MODEL 1
REMARK VINA RESULT:    -8.557      0.000      0.000
REMARK INTER + INTRA:         -13.177
REMARK INTER:                 -12.058
REMARK INTRA:                  -1.119
REMARK UNBOUND:                -1.119
REMARK  Name = 
REMARK  9 active torsions:
REMARK  status: ('A' for Active; 'I' for Inactive)
REMARK    1  A    between atoms: C_1  and  C_2
REMARK    2  A    between atoms: C_6  and  C_7
REMARK    3  A    between atoms: C_7  and  N_8
REMARK    4  A    between atoms: N_8  and  C_9
REMARK    5  A    between atoms: C_9  and  C_10
REMARK    6  A    between atoms: C_13  and  C_14
REMARK    7  A    between atoms: C_14  and  N_15
REMARK    8  A    between atoms: C_16  and  C_18
REMARK    9  A    between atoms: C_29  and  C_30
REMARK                            x       y       z     vdW  Elec       q    Type
REMARK                         _______ _______ _______ _____ _____    ______ ____
ROOT
ATOM      1  C   UNL     1      44.411   4.106  12.311  0.00  0.00    +0.000 A 
ATOM      2  C   UNL     1      45.720   3.858  12.760  0.00  0.00    +0.000 A 
ATOM      3  C   UNL     1      46.573   4.901  13.145  0.00  0.00    +0.000 A 
ATOM      4  C   UNL     1      46.151   6.232  13.075  0.00  0.00    +0.000 A 
ATOM      5  C   UNL     1      44.858   6.495  12.607  0.00  0.00    +0.000 A 
ATOM      6  C   UNL     1      43.983   5.454  12.228  0.00  0.00    +0.000 A 
ATOM      7  C   UNL     1      42.611   5.822  11.731  0.00  0.00    +0.000 C 
ENDROOT
BRANCH   1   8
ATOM      8  C   UNL     1      43.531   2.962  11.820  0.00  0.00    +0.000 C 
BRANCH   8   9
ATOM      9  N   UNL     1      43.949   2.276  10.578  0.00  0.00    +0.000 NA
ATOM     10  H   UNL     1      44.813   1.776  10.792  0.00  0.00    +0.000 HD
BRANCH   9  11
ATOM     11  C   UNL     1      44.266   3.268   9.534  0.00  0.00    +0.000 C 
BRANCH  11  17
ATOM     12  C   UNL     1      46.820  -0.374   7.684  0.00  0.00    +0.000 C 
ATOM     13  C   UNL     1      46.574   1.101   7.657  0.00  0.00    +0.000 A 
ATOM     14  C   UNL     1      47.359   1.961   6.902  0.00  0.00    +0.000 A 
ATOM     15  C   UNL     1      47.094   3.325   6.959  0.00  0.00    +0.000 A 
ATOM     16  C   UNL     1      46.066   3.799   7.778  0.00  0.00    +0.000 A 
ATOM     17  C   UNL     1      45.317   2.881   8.507  0.00  0.00    +0.000 A 
ATOM     18  N   UNL     1      45.563   1.546   8.438  0.00  0.00    +0.000 NA
ENDBRANCH  11  17
ENDBRANCH   9  11
ENDBRANCH   8   9
ENDBRANCH   1   8
BRANCH   4  19
ATOM     19  C   UNL     1      47.084   7.361  13.441  0.00  0.00    +0.000 C 
BRANCH  19  20
ATOM     20  N   UNL     1      47.668   7.162  14.747  0.00  0.00    +0.000 N 
ATOM     21  C   UNL     1      49.014   6.941  14.904  0.00  0.00    +0.000 C 
ATOM     22  O   UNL     1      49.786   6.941  13.949  0.00  0.00    +0.000 OA
ATOM     23  H   UNL     1      47.030   6.941  15.506  0.00  0.00    +0.000 HD
BRANCH  21  24
ATOM     24  C   UNL     1      49.503   6.757  16.277  0.00  0.00    +0.000 A 
ATOM     25  C   UNL     1      50.566   7.521  16.738  0.00  0.00    +0.000 A 
ATOM     26  S   UNL     1      50.987   7.217  18.362  0.00  0.00    +0.000 S 
ATOM     27  C   UNL     1      49.794   6.010  18.497  0.00  0.00    +0.000 A 
ATOM     28  N   UNL     1      49.635   5.317  19.657  0.00  0.00    +0.000 NA
ATOM     29  C   UNL     1      48.716   4.411  19.614  0.00  0.00    +0.000 A 
ATOM     30  N   UNL     1      47.937   4.141  18.517  0.00  0.00    +0.000 N 
ATOM     31  C   UNL     1      48.044   4.837  17.336  0.00  0.00    +0.000 A 
ATOM     32  O   UNL     1      47.306   4.592  16.388  0.00  0.00    +0.000 OA
ATOM     33  C   UNL     1      49.076   5.862  17.324  0.00  0.00    +0.000 A 
ATOM     34  H   UNL     1      47.228   3.424  18.553  0.00  0.00    +0.000 HD
ENDBRANCH  21  24
ENDBRANCH  19  20
ENDBRANCH   4  19
TORSDOF 7
ENDMDL
MODEL 2
REMARK VINA RESULT:    -8.386      1.422      1.722
REMARK INTER + INTRA:         -12.937
REMARK INTER:                 -11.857
REMARK INTRA:                  -1.080
REMARK UNBOUND:                -1.119
REMARK  Name = 
REMARK  9 active torsions:
REMARK  status: ('A' for Active; 'I' for Inactive)
REMARK    1  A    between atoms: C_1  and  C_2
REMARK    2  A    between atoms: C_6  and  C_7
REMARK    3  A    between atoms: C_7  and  N_8
REMARK    4  A    between atoms: N_8  and  C_9
REMARK    5  A    between atoms: C_9  and  C_10
REMARK    6  A    between atoms: C_13  and  C_14
REMARK    7  A    between atoms: C_14  and  N_15
REMARK    8  A    between atoms: C_16  and  C_18
REMARK    9  A    between atoms: C_29  and  C_30
REMARK                            x       y       z     vdW  Elec       q    Type
REMARK                         _______ _______ _______ _____ _____    ______ ____
ROOT
ATOM      1  C   UNL     1      44.797   5.592  11.383  0.00  0.00    +0.000 A 
ATOM      2  C   UNL     1      45.690   6.532  10.839  0.00  0.00    +0.000 A 
ATOM      3  C   UNL     1      46.856   6.914  11.516  0.00  0.00    +0.000 A 
ATOM      4  C   UNL     1      47.159   6.381  12.773  0.00  0.00    +0.000 A 
ATOM      5  C   UNL     1      46.267   5.461  13.337  0.00  0.00    +0.000 A 
ATOM      6  C   UNL     1      45.096   5.058  12.660  0.00  0.00    +0.000 A 
ATOM      7  C   UNL     1      44.186   4.068  13.339  0.00  0.00    +0.000 C 
ENDROOT
BRANCH   1   8
ATOM      8  C   UNL     1      43.496   5.254  10.666  0.00  0.00    +0.000 C 
BRANCH   8   9
ATOM      9  N   UNL     1      43.604   4.518   9.386  0.00  0.00    +0.000 NA
ATOM     10  H   UNL     1      42.653   4.277   9.101  0.00  0.00    +0.000 HD
BRANCH   9  11
ATOM     11  C   UNL     1      44.331   3.251   9.591  0.00  0.00    +0.000 C 
BRANCH  11  17
ATOM     12  C   UNL     1      46.832  -0.402   7.691  0.00  0.00    +0.000 C 
ATOM     13  C   UNL     1      46.582   1.073   7.659  0.00  0.00    +0.000 A 
ATOM     14  C   UNL     1      47.340   1.928   6.872  0.00  0.00    +0.000 A 
ATOM     15  C   UNL     1      47.074   3.292   6.926  0.00  0.00    +0.000 A 
ATOM     16  C   UNL     1      46.072   3.771   7.774  0.00  0.00    +0.000 A 
ATOM     17  C   UNL     1      45.349   2.858   8.535  0.00  0.00    +0.000 A 
ATOM     18  N   UNL     1      45.596   1.522   8.468  0.00  0.00    +0.000 NA
ENDBRANCH  11  17
ENDBRANCH   9  11
ENDBRANCH   8   9
ENDBRANCH   1   8
BRANCH   4  19
ATOM     19  C   UNL     1      48.387   6.828  13.528  0.00  0.00    +0.000 C 
BRANCH  19  20
ATOM     20  N   UNL     1      48.148   6.865  14.952  0.00  0.00    +0.000 N 
ATOM     21  C   UNL     1      49.171   6.710  15.854  0.00  0.00    +0.000 C 
ATOM     22  O   UNL     1      50.337   6.571  15.494  0.00  0.00    +0.000 OA
ATOM     23  H   UNL     1      47.185   6.758  15.258  0.00  0.00    +0.000 HD
BRANCH  21  24
ATOM     24  C   UNL     1      48.817   6.771  17.279  0.00  0.00    +0.000 A 
ATOM     25  C   UNL     1      48.417   7.975  17.840  0.00  0.00    +0.000 A 
ATOM     26  S   UNL     1      48.003   7.870  19.490  0.00  0.00    +0.000 S 
ATOM     27  C   UNL     1      48.394   6.214  19.534  0.00  0.00    +0.000 A 
ATOM     28  N   UNL     1      48.284   5.504  20.689  0.00  0.00    +0.000 NA
ATOM     29  C   UNL     1      48.641   4.267  20.590  0.00  0.00    +0.000 A 
ATOM     30  N   UNL     1      49.091   3.675  19.437  0.00  0.00    +0.000 N 
ATOM     31  C   UNL     1      49.189   4.347  18.242  0.00  0.00    +0.000 A 
ATOM     32  O   UNL     1      49.563   3.776  17.223  0.00  0.00    +0.000 OA
ATOM     33  C   UNL     1      48.813   5.751  18.299  0.00  0.00    +0.000 A 
ATOM     34  H   UNL     1      49.346   2.699  19.425  0.00  0.00    +0.000 HD
ENDBRANCH  21  24
ENDBRANCH  19  20
ENDBRANCH   4  19
TORSDOF 7
ENDMDL
MODEL 3
REMARK VINA RESULT:    -8.224      2.243      2.769
REMARK INTER + INTRA:         -12.708
REMARK INTER:                 -11.476
REMARK INTRA:                  -1.232
REMARK UNBOUND:                -1.119
REMARK  Name = 
REMARK  9 active torsions:
REMARK  status: ('A' for Active; 'I' for Inactive)
REMARK    1  A    between atoms: C_1  and  C_2
REMARK    2  A    between atoms: C_6  and  C_7
REMARK    3  A    between atoms: C_7  and  N_8
REMARK    4  A    between atoms: N_8  and  C_9
REMARK    5  A    between atoms: C_9  and  C_10
REMARK    6  A    between atoms: C_13  and  C_14
REMARK    7  A    between atoms: C_14  and  N_15
REMARK    8  A    between atoms: C_16  and  C_18
REMARK    9  A    between atoms: C_29  and  C_30
REMARK                            x       y       z     vdW  Elec       q    Type
REMARK                         _______ _______ _______ _____ _____    ______ ____
ROOT
ATOM      1  C   UNL     1      44.831   5.552  11.492  0.00  0.00    +0.000 A 
ATOM      2  C   UNL     1      45.784   6.487  11.051  0.00  0.00    +0.000 A 
ATOM      3  C   UNL     1      46.934   6.771  11.800  0.00  0.00    +0.000 A 
ATOM      4  C   UNL     1      47.160   6.142  13.027  0.00  0.00    +0.000 A 
ATOM      5  C   UNL     1      46.207   5.226  13.491  0.00  0.00    +0.000 A 
ATOM      6  C   UNL     1      45.051   4.921  12.740  0.00  0.00    +0.000 A 
ATOM      7  C   UNL     1      44.073   3.928  13.311  0.00  0.00    +0.000 C 
ENDROOT
BRANCH   1   8
ATOM      8  C   UNL     1      43.549   5.320  10.700  0.00  0.00    +0.000 C 
BRANCH   8   9
ATOM      9  N   UNL     1      43.680   4.647   9.388  0.00  0.00    +0.000 NA
ATOM     10  H   UNL     1      42.733   4.489   9.040  0.00  0.00    +0.000 HD
BRANCH   9  11
ATOM     11  C   UNL     1      44.309   3.324   9.559  0.00  0.00    +0.000 C 
BRANCH  11  17
ATOM     12  C   UNL     1      46.787  -0.380   7.729  0.00  0.00    +0.000 C 
ATOM     13  C   UNL     1      46.560   1.098   7.683  0.00  0.00    +0.000 A 
ATOM     14  C   UNL     1      47.346   1.936   6.904  0.00  0.00    +0.000 A 
ATOM     15  C   UNL     1      47.100   3.305   6.944  0.00  0.00    +0.000 A 
ATOM     16  C   UNL     1      46.090   3.804   7.770  0.00  0.00    +0.000 A 
ATOM     17  C   UNL     1      45.339   2.908   8.524  0.00  0.00    +0.000 A 
ATOM     18  N   UNL     1      45.567   1.568   8.470  0.00  0.00    +0.000 NA
ENDBRANCH  11  17
ENDBRANCH   9  11
ENDBRANCH   8   9
ENDBRANCH   1   8
BRANCH   4  19
ATOM     19  C   UNL     1      48.371   6.484  13.861  0.00  0.00    +0.000 C 
BRANCH  19  20
ATOM     20  N   UNL     1      48.012   6.727  15.239  0.00  0.00    +0.000 N 
ATOM     21  C   UNL     1      48.860   6.399  16.268  0.00  0.00    +0.000 C 
ATOM     22  O   UNL     1      49.972   5.919  16.064  0.00  0.00    +0.000 OA
ATOM     23  H   UNL     1      47.033   6.910  15.433  0.00  0.00    +0.000 HD
BRANCH  21  24
ATOM     24  C   UNL     1      48.399   6.695  17.631  0.00  0.00    +0.000 A 
ATOM     25  C   UNL     1      48.257   5.665  18.550  0.00  0.00    +0.000 A 
ATOM     26  S   UNL     1      47.753   6.177  20.096  0.00  0.00    +0.000 S 
ATOM     27  C   UNL     1      47.653   7.796  19.582  0.00  0.00    +0.000 A 
ATOM     28  N   UNL     1      47.246   8.774  20.437  0.00  0.00    +0.000 NA
ATOM     29  C   UNL     1      47.186   9.951  19.909  0.00  0.00    +0.000 A 
ATOM     30  N   UNL     1      47.504  10.240  18.607  0.00  0.00    +0.000 N 
ATOM     31  C   UNL     1      47.948   9.289  17.718  0.00  0.00    +0.000 A 
ATOM     32  O   UNL     1      48.256   9.590  16.570  0.00  0.00    +0.000 OA
ATOM     33  C   UNL     1      48.020   7.939  18.255  0.00  0.00    +0.000 A 
ATOM     34  H   UNL     1      47.444  11.185  18.259  0.00  0.00    +0.000 HD
ENDBRANCH  21  24
ENDBRANCH  19  20
ENDBRANCH   4  19
TORSDOF 7
ENDMDL
MODEL 4
REMARK VINA RESULT:    -7.823      1.484      2.078
REMARK INTER + INTRA:         -12.143
REMARK INTER:                 -11.254
REMARK INTRA:                  -0.889
REMARK UNBOUND:                -1.119
REMARK  Name = 
REMARK  9 active torsions:
REMARK  status: ('A' for Active; 'I' for Inactive)
REMARK    1  A    between atoms: C_1  and  C_2
REMARK    2  A    between atoms: C_6  and  C_7
REMARK    3  A    between atoms: C_7  and  N_8
REMARK    4  A    between atoms: N_8  and  C_9
REMARK    5  A    between atoms: C_9  and  C_10
REMARK    6  A    between atoms: C_13  and  C_14
REMARK    7  A    between atoms: C_14  and  N_15
REMARK    8  A    between atoms: C_16  and  C_18
REMARK    9  A    between atoms: C_29  and  C_30
REMARK                            x       y       z     vdW  Elec       q    Type
REMARK                         _______ _______ _______ _____ _____    ______ ____
ROOT
ATOM      1  C   UNL     1      44.271   4.578  11.889  0.00  0.00    +0.000 A 
ATOM      2  C   UNL     1      43.635   5.751  11.447  0.00  0.00    +0.000 A 
ATOM      3  C   UNL     1      44.176   7.019  11.701  0.00  0.00    +0.000 A 
ATOM      4  C   UNL     1      45.364   7.156  12.424  0.00  0.00    +0.000 A 
ATOM      5  C   UNL     1      45.996   5.997  12.891  0.00  0.00    +0.000 A 
ATOM      6  C   UNL     1      45.470   4.714  12.631  0.00  0.00    +0.000 A 
ATOM      7  C   UNL     1      46.208   3.518  13.173  0.00  0.00    +0.000 C 
ENDROOT
BRANCH   1   8
ATOM      8  C   UNL     1      43.622   3.216  11.671  0.00  0.00    +0.000 C 
BRANCH   8   9
ATOM      9  N   UNL     1      44.098   2.420  10.518  0.00  0.00    +0.000 NA
ATOM     10  H   UNL     1      44.971   1.974  10.805  0.00  0.00    +0.000 HD
BRANCH   9  11
ATOM     11  C   UNL     1      44.415   3.309   9.385  0.00  0.00    +0.000 C 
BRANCH  11  17
ATOM     12  C   UNL     1      46.805  -0.527   7.719  0.00  0.00    +0.000 C 
ATOM     13  C   UNL     1      46.647   0.958   7.644  0.00  0.00    +0.000 A 
ATOM     14  C   UNL     1      47.505   1.749   6.892  0.00  0.00    +0.000 A 
ATOM     15  C   UNL     1      47.319   3.128   6.903  0.00  0.00    +0.000 A 
ATOM     16  C   UNL     1      46.295   3.684   7.675  0.00  0.00    +0.000 A 
ATOM     17  C   UNL     1      45.472   2.833   8.404  0.00  0.00    +0.000 A 
ATOM     18  N   UNL     1      45.641   1.483   8.379  0.00  0.00    +0.000 NA
ENDBRANCH  11  17
ENDBRANCH   9  11
ENDBRANCH   8   9
ENDBRANCH   1   8
BRANCH   4  19
ATOM     19  C   UNL     1      45.922   8.522  12.744  0.00  0.00    +0.000 C 
BRANCH  19  20
ATOM     20  N   UNL     1      46.621   8.524  14.008  0.00  0.00    +0.000 N 
ATOM     21  C   UNL     1      47.931   8.926  14.101  0.00  0.00    +0.000 C 
ATOM     22  O   UNL     1      48.554   9.335  13.124  0.00  0.00    +0.000 OA
ATOM     23  H   UNL     1      46.204   7.991  14.765  0.00  0.00    +0.000 HD
BRANCH  21  24
ATOM     24  C   UNL     1      48.545   8.894  15.435  0.00  0.00    +0.000 A 
ATOM     25  C   UNL     1      48.856  10.083  16.079  0.00  0.00    +0.000 A 
ATOM     26  S   UNL     1      49.523   9.878  17.634  0.00  0.00    +0.000 S 
ATOM     27  C   UNL     1      49.471   8.183  17.487  0.00  0.00    +0.000 A 
ATOM     28  N   UNL     1      49.931   7.383  18.487  0.00  0.00    +0.000 NA
ATOM     29  C   UNL     1      49.861   6.119  18.233  0.00  0.00    +0.000 A 
ATOM     30  N   UNL     1      49.366   5.583  17.071  0.00  0.00    +0.000 N 
ATOM     31  C   UNL     1      48.865   6.352  16.048  0.00  0.00    +0.000 A 
ATOM     32  O   UNL     1      48.399   5.837  15.038  0.00  0.00    +0.000 OA
ATOM     33  C   UNL     1      48.933   7.787  16.275  0.00  0.00    +0.000 A 
ATOM     34  H   UNL     1      49.332   4.583  16.939  0.00  0.00    +0.000 HD
ENDBRANCH  21  24
ENDBRANCH  19  20
ENDBRANCH   4  19
TORSDOF 7
ENDMDL
MODEL 5
REMARK VINA RESULT:    -7.623      1.807      2.412
REMARK INTER + INTRA:         -11.862
REMARK INTER:                 -10.583
REMARK INTRA:                  -1.280
REMARK UNBOUND:                -1.119
REMARK  Name = 
REMARK  9 active torsions:
REMARK  status: ('A' for Active; 'I' for Inactive)
REMARK    1  A    between atoms: C_1  and  C_2
REMARK    2  A    between atoms: C_6  and  C_7
REMARK    3  A    between atoms: C_7  and  N_8
REMARK    4  A    between atoms: N_8  and  C_9
REMARK    5  A    between atoms: C_9  and  C_10
REMARK    6  A    between atoms: C_13  and  C_14
REMARK    7  A    between atoms: C_14  and  N_15
REMARK    8  A    between atoms: C_16  and  C_18
REMARK    9  A    between atoms: C_29  and  C_30
REMARK                            x       y       z     vdW  Elec       q    Type
REMARK                         _______ _______ _______ _____ _____    ______ ____
ROOT
ATOM      1  C   UNL     1      45.748   5.087  12.437  0.00  0.00    +0.000 A 
ATOM      2  C   UNL     1      45.764   6.296  11.719  0.00  0.00    +0.000 A 
ATOM      3  C   UNL     1      46.850   7.178  11.793  0.00  0.00    +0.000 A 
ATOM      4  C   UNL     1      47.951   6.889  12.605  0.00  0.00    +0.000 A 
ATOM      5  C   UNL     1      47.939   5.700  13.343  0.00  0.00    +0.000 A 
ATOM      6  C   UNL     1      46.857   4.796  13.268  0.00  0.00    +0.000 A 
ATOM      7  C   UNL     1      46.919   3.541  14.099  0.00  0.00    +0.000 C 
ENDROOT
BRANCH   1   8
ATOM      8  C   UNL     1      44.521   4.183  12.404  0.00  0.00    +0.000 C 
BRANCH   8   9
ATOM      9  N   UNL     1      43.733   4.162  11.152  0.00  0.00    +0.000 NA
ATOM     10  H   UNL     1      42.748   4.178  11.421  0.00  0.00    +0.000 HD
BRANCH   9  11
ATOM     11  C   UNL     1      43.966   2.899  10.428  0.00  0.00    +0.000 C 
BRANCH  11  17
ATOM     12  C   UNL     1      46.878   0.313   7.593  0.00  0.00    +0.000 C 
ATOM     13  C   UNL     1      46.343   1.676   7.899  0.00  0.00    +0.000 A 
ATOM     14  C   UNL     1      46.818   2.811   7.256  0.00  0.00    +0.000 A 
ATOM     15  C   UNL     1      46.299   4.048   7.624  0.00  0.00    +0.000 A 
ATOM     16  C   UNL     1      45.335   4.125   8.632  0.00  0.00    +0.000 A 
ATOM     17  C   UNL     1      44.903   2.948   9.234  0.00  0.00    +0.000 A 
ATOM     18  N   UNL     1      45.396   1.736   8.862  0.00  0.00    +0.000 NA
ENDBRANCH  11  17
ENDBRANCH   9  11
ENDBRANCH   8   9
ENDBRANCH   1   8
BRANCH   4  19
ATOM     19  C   UNL     1      49.100   7.861  12.726  0.00  0.00    +0.000 C 
BRANCH  19  20
ATOM     20  N   UNL     1      50.135   7.349  13.594  0.00  0.00    +0.000 N 
ATOM     21  C   UNL     1      50.238   7.756  14.902  0.00  0.00    +0.000 C 
ATOM     22  O   UNL     1      49.437   8.541  15.402  0.00  0.00    +0.000 OA
ATOM     23  H   UNL     1      50.920   6.884  13.148  0.00  0.00    +0.000 HD
BRANCH  21  24
ATOM     24  C   UNL     1      51.324   7.168  15.698  0.00  0.00    +0.000 A 
ATOM     25  C   UNL     1      52.607   7.688  15.605  0.00  0.00    +0.000 A 
ATOM     26  S   UNL     1      53.743   6.924  16.620  0.00  0.00    +0.000 S 
ATOM     27  C   UNL     1      52.571   5.829  17.190  0.00  0.00    +0.000 A 
ATOM     28  N   UNL     1      52.901   4.863  18.091  0.00  0.00    +0.000 NA
ATOM     29  C   UNL     1      51.925   4.082  18.414  0.00  0.00    +0.000 A 
ATOM     30  N   UNL     1      50.648   4.184  17.924  0.00  0.00    +0.000 N 
ATOM     31  C   UNL     1      50.265   5.161  17.035  0.00  0.00    +0.000 A 
ATOM     32  O   UNL     1      49.106   5.242  16.645  0.00  0.00    +0.000 OA
ATOM     33  C   UNL     1      51.330   6.062  16.624  0.00  0.00    +0.000 A 
ATOM     34  H   UNL     1      49.928   3.545  18.225  0.00  0.00    +0.000 HD
ENDBRANCH  21  24
ENDBRANCH  19  20
ENDBRANCH   4  19
TORSDOF 7
ENDMDL
MODEL 6
REMARK VINA RESULT:    -7.471      2.911      8.563
REMARK INTER + INTRA:         -11.647
REMARK INTER:                  -9.943
REMARK INTRA:                  -1.704
REMARK UNBOUND:                -1.119
REMARK  Name = 
REMARK  9 active torsions:
REMARK  status: ('A' for Active; 'I' for Inactive)
REMARK    1  A    between atoms: C_1  and  C_2
REMARK    2  A    between atoms: C_6  and  C_7
REMARK    3  A    between atoms: C_7  and  N_8
REMARK    4  A    between atoms: N_8  and  C_9
REMARK    5  A    between atoms: C_9  and  C_10
REMARK    6  A    between atoms: C_13  and  C_14
REMARK    7  A    between atoms: C_14  and  N_15
REMARK    8  A    between atoms: C_16  and  C_18
REMARK    9  A    between atoms: C_29  and  C_30
REMARK                            x       y       z     vdW  Elec       q    Type
REMARK                         _______ _______ _______ _____ _____    ______ ____
ROOT
ATOM      1  C   UNL     1      49.342   7.911  16.443  0.00  0.00    +0.000 A 
ATOM      2  C   UNL     1      49.645   6.874  15.542  0.00  0.00    +0.000 A 
ATOM      3  C   UNL     1      49.162   6.882  14.227  0.00  0.00    +0.000 A 
ATOM      4  C   UNL     1      48.341   7.919  13.773  0.00  0.00    +0.000 A 
ATOM      5  C   UNL     1      48.012   8.945  14.666  0.00  0.00    +0.000 A 
ATOM      6  C   UNL     1      48.502   8.957  15.990  0.00  0.00    +0.000 A 
ATOM      7  C   UNL     1      48.097  10.095  16.890  0.00  0.00    +0.000 C 
ENDROOT
BRANCH   1   8
ATOM      8  C   UNL     1      49.812   7.840  17.891  0.00  0.00    +0.000 C 
BRANCH   8   9
ATOM      9  N   UNL     1      48.815   7.424  18.903  0.00  0.00    +0.000 NA
ATOM     10  H   UNL     1      48.927   8.048  19.704  0.00  0.00    +0.000 HD
BRANCH   9  11
ATOM     11  C   UNL     1      49.109   6.057  19.371  0.00  0.00    +0.000 C 
BRANCH  11  17
ATOM     12  C   UNL     1      50.502   2.014  17.153  0.00  0.00    +0.000 C 
ATOM     13  C   UNL     1      49.377   2.972  17.382  0.00  0.00    +0.000 A 
ATOM     14  C   UNL     1      48.172   2.864  16.702  0.00  0.00    +0.000 A 
ATOM     15  C   UNL     1      47.187   3.817  16.939  0.00  0.00    +0.000 A 
ATOM     16  C   UNL     1      47.433   4.861  17.834  0.00  0.00    +0.000 A 
ATOM     17  C   UNL     1      48.662   4.909  18.483  0.00  0.00    +0.000 A 
ATOM     18  N   UNL     1      49.619   3.967  18.265  0.00  0.00    +0.000 NA
ENDBRANCH  11  17
ENDBRANCH   9  11
ENDBRANCH   8   9
ENDBRANCH   1   8
BRANCH   4  19
ATOM     19  C   UNL     1      47.777   7.903  12.373  0.00  0.00    +0.000 C 
BRANCH  19  20
ATOM     20  N   UNL     1      47.047   6.685  12.111  0.00  0.00    +0.000 N 
ATOM     21  C   UNL     1      45.679   6.633  12.215  0.00  0.00    +0.000 C 
ATOM     22  O   UNL     1      45.013   7.625  12.498  0.00  0.00    +0.000 OA
ATOM     23  H   UNL     1      47.584   5.822  12.096  0.00  0.00    +0.000 HD
BRANCH  21  24
ATOM     24  C   UNL     1      45.037   5.345  11.921  0.00  0.00    +0.000 A 
ATOM     25  C   UNL     1      44.352   4.671  12.922  0.00  0.00    +0.000 A 
ATOM     26  S   UNL     1      43.630   3.214  12.412  0.00  0.00    +0.000 S 
ATOM     27  C   UNL     1      44.250   3.400  10.838  0.00  0.00    +0.000 A 
ATOM     28  N   UNL     1      44.016   2.460   9.882  0.00  0.00    +0.000 NA
ATOM     29  C   UNL     1      44.569   2.710   8.743  0.00  0.00    +0.000 A 
ATOM     30  N   UNL     1      45.331   3.818   8.471  0.00  0.00    +0.000 N 
ATOM     31  C   UNL     1      45.568   4.806   9.398  0.00  0.00    +0.000 A 
ATOM     32  O   UNL     1      46.225   5.800   9.109  0.00  0.00    +0.000 OA
ATOM     33  C   UNL     1      44.979   4.568  10.706  0.00  0.00    +0.000 A 
ATOM     34  H   UNL     1      45.728   3.958   7.555  0.00  0.00    +0.000 HD
ENDBRANCH  21  24
ENDBRANCH  19  20
ENDBRANCH   4  19
TORSDOF 7
ENDMDL
MODEL 7
REMARK VINA RESULT:    -7.376      2.432      2.911
REMARK INTER + INTRA:         -11.514
REMARK INTER:                 -10.547
REMARK INTRA:                  -0.967
REMARK UNBOUND:                -1.119
REMARK  Name = 
REMARK  9 active torsions:
REMARK  status: ('A' for Active; 'I' for Inactive)
REMARK    1  A    between atoms: C_1  and  C_2
REMARK    2  A    between atoms: C_6  and  C_7
REMARK    3  A    between atoms: C_7  and  N_8
REMARK    4  A    between atoms: N_8  and  C_9
REMARK    5  A    between atoms: C_9  and  C_10
REMARK    6  A    between atoms: C_13  and  C_14
REMARK    7  A    between atoms: C_14  and  N_15
REMARK    8  A    between atoms: C_16  and  C_18
REMARK    9  A    between atoms: C_29  and  C_30
REMARK                            x       y       z     vdW  Elec       q    Type
REMARK                         _______ _______ _______ _____ _____    ______ ____
ROOT
ATOM      1  C   UNL     1      45.932   5.878  12.063  0.00  0.00    +0.000 A 
ATOM      2  C   UNL     1      45.844   7.235  11.703  0.00  0.00    +0.000 A 
ATOM      3  C   UNL     1      46.542   8.226  12.406  0.00  0.00    +0.000 A 
ATOM      4  C   UNL     1      47.338   7.895  13.507  0.00  0.00    +0.000 A 
ATOM      5  C   UNL     1      47.416   6.551  13.890  0.00  0.00    +0.000 A 
ATOM      6  C   UNL     1      46.729   5.540  13.184  0.00  0.00    +0.000 A 
ATOM      7  C   UNL     1      46.862   4.119  13.664  0.00  0.00    +0.000 C 
ENDROOT
BRANCH   1   8
ATOM      8  C   UNL     1      45.100   4.828  11.335  0.00  0.00    +0.000 C 
BRANCH   8   9
ATOM      9  N   UNL     1      44.965   4.974   9.868  0.00  0.00    +0.000 NA
ATOM     10  H   UNL     1      44.173   5.598   9.704  0.00  0.00    +0.000 HD
BRANCH   9  11
ATOM     11  C   UNL     1      44.629   3.674   9.259  0.00  0.00    +0.000 C 
BRANCH  11  17
ATOM     12  C   UNL     1      46.737  -0.375   7.720  0.00  0.00    +0.000 C 
ATOM     13  C   UNL     1      46.669   1.113   7.580  0.00  0.00    +0.000 A 
ATOM     14  C   UNL     1      47.555   1.813   6.774  0.00  0.00    +0.000 A 
ATOM     15  C   UNL     1      47.455   3.200   6.725  0.00  0.00    +0.000 A 
ATOM     16  C   UNL     1      46.487   3.853   7.493  0.00  0.00    +0.000 A 
ATOM     17  C   UNL     1      45.630   3.089   8.279  0.00  0.00    +0.000 A 
ATOM     18  N   UNL     1      45.715   1.732   8.311  0.00  0.00    +0.000 NA
ENDBRANCH  11  17
ENDBRANCH   9  11
ENDBRANCH   8   9
ENDBRANCH   1   8
BRANCH   4  19
ATOM     19  C   UNL     1      48.051   8.966  14.297  0.00  0.00    +0.000 C 
BRANCH  19  20
ATOM     20  N   UNL     1      47.727   8.888  15.703  0.00  0.00    +0.000 N 
ATOM     21  C   UNL     1      48.316   9.722  16.621  0.00  0.00    +0.000 C 
ATOM     22  O   UNL     1      49.113  10.595  16.285  0.00  0.00    +0.000 OA
ATOM     23  H   UNL     1      47.253   8.047  16.019  0.00  0.00    +0.000 HD
BRANCH  21  24
ATOM     24  C   UNL     1      47.911   9.562  18.023  0.00  0.00    +0.000 A 
ATOM     25  C   UNL     1      47.488  10.666  18.750  0.00  0.00    +0.000 A 
ATOM     26  S   UNL     1      47.015  10.307  20.347  0.00  0.00    +0.000 S 
ATOM     27  C   UNL     1      47.408   8.663  20.147  0.00  0.00    +0.000 A 
ATOM     28  N   UNL     1      47.257   7.782  21.174  0.00  0.00    +0.000 NA
ATOM     29  C   UNL     1      47.620   6.575  20.896  0.00  0.00    +0.000 A 
ATOM     30  N   UNL     1      48.113   6.167  19.683  0.00  0.00    +0.000 N 
ATOM     31  C   UNL     1      48.253   7.017  18.610  0.00  0.00    +0.000 A 
ATOM     32  O   UNL     1      48.665   6.610  17.530  0.00  0.00    +0.000 OA
ATOM     33  C   UNL     1      47.873   8.396  18.872  0.00  0.00    +0.000 A 
ATOM     34  H   UNL     1      48.371   5.204  19.528  0.00  0.00    +0.000 HD
ENDBRANCH  21  24
ENDBRANCH  19  20
ENDBRANCH   4  19
TORSDOF 7
ENDMDL
MODEL 8
REMARK VINA RESULT:    -7.098      4.826      6.480
REMARK INTER + INTRA:         -11.122
REMARK INTER:                  -9.974
REMARK INTRA:                  -1.148
REMARK UNBOUND:                -1.119
REMARK  Name = 
REMARK  9 active torsions:
REMARK  status: ('A' for Active; 'I' for Inactive)
REMARK    1  A    between atoms: C_1  and  C_2
REMARK    2  A    between atoms: C_6  and  C_7
REMARK    3  A    between atoms: C_7  and  N_8
REMARK    4  A    between atoms: N_8  and  C_9
REMARK    5  A    between atoms: C_9  and  C_10
REMARK    6  A    between atoms: C_13  and  C_14
REMARK    7  A    between atoms: C_14  and  N_15
REMARK    8  A    between atoms: C_16  and  C_18
REMARK    9  A    between atoms: C_29  and  C_30
REMARK                            x       y       z     vdW  Elec       q    Type
REMARK                         _______ _______ _______ _____ _____    ______ ____
ROOT
ATOM      1  C   UNL     1      45.863   5.279  12.836  0.00  0.00    +0.000 A 
ATOM      2  C   UNL     1      47.062   5.063  13.538  0.00  0.00    +0.000 A 
ATOM      3  C   UNL     1      48.099   6.005  13.526  0.00  0.00    +0.000 A 
ATOM      4  C   UNL     1      47.979   7.190  12.793  0.00  0.00    +0.000 A 
ATOM      5  C   UNL     1      46.800   7.408  12.070  0.00  0.00    +0.000 A 
ATOM      6  C   UNL     1      45.742   6.473  12.084  0.00  0.00    +0.000 A 
ATOM      7  C   UNL     1      44.510   6.781  11.275  0.00  0.00    +0.000 C 
ENDROOT
BRANCH   1   8
ATOM      8  C   UNL     1      44.783   4.204  12.797  0.00  0.00    +0.000 C 
BRANCH   8   9
ATOM      9  N   UNL     1      45.045   3.017  11.953  0.00  0.00    +0.000 NA
ATOM     10  H   UNL     1      46.038   3.035  11.716  0.00  0.00    +0.000 HD
BRANCH   9  11
ATOM     11  C   UNL     1      44.292   3.119  10.689  0.00  0.00    +0.000 C 
BRANCH  11  17
ATOM     12  C   UNL     1      46.831   0.441   7.593  0.00  0.00    +0.000 C 
ATOM     13  C   UNL     1      46.362   1.819   7.938  0.00  0.00    +0.000 A 
ATOM     14  C   UNL     1      46.790   2.936   7.236  0.00  0.00    +0.000 A 
ATOM     15  C   UNL     1      46.340   4.189   7.641  0.00  0.00    +0.000 A 
ATOM     16  C   UNL     1      45.490   4.297   8.745  0.00  0.00    +0.000 A 
ATOM     17  C   UNL     1      45.099   3.135   9.403  0.00  0.00    +0.000 A 
ATOM     18  N   UNL     1      45.523   1.909   8.995  0.00  0.00    +0.000 NA
ENDBRANCH  11  17
ENDBRANCH   9  11
ENDBRANCH   8   9
ENDBRANCH   1   8
BRANCH   4  19
ATOM     19  C   UNL     1      49.114   8.184  12.737  0.00  0.00    +0.000 C 
BRANCH  19  20
ATOM     20  N   UNL     1      49.979   7.934  11.607  0.00  0.00    +0.000 N 
ATOM     21  C   UNL     1      51.243   8.466  11.542  0.00  0.00    +0.000 C 
ATOM     22  O   UNL     1      51.709   9.145  12.453  0.00  0.00    +0.000 OA
ATOM     23  H   UNL     1      49.542   7.571  10.766  0.00  0.00    +0.000 HD
BRANCH  21  24
ATOM     24  C   UNL     1      52.041   8.144  10.351  0.00  0.00    +0.000 A 
ATOM     25  C   UNL     1      52.410   6.829  10.103  0.00  0.00    +0.000 A 
ATOM     26  S   UNL     1      53.296   6.615   8.663  0.00  0.00    +0.000 S 
ATOM     27  C   UNL     1      53.267   8.286   8.338  0.00  0.00    +0.000 A 
ATOM     28  N   UNL     1      53.884   8.792   7.236  0.00  0.00    +0.000 NA
ATOM     29  C   UNL     1      53.811  10.076   7.127  0.00  0.00    +0.000 A 
ATOM     30  N   UNL     1      53.170  10.900   8.017  0.00  0.00    +0.000 N 
ATOM     31  C   UNL     1      52.508  10.429   9.127  0.00  0.00    +0.000 A 
ATOM     32  O   UNL     1      51.917  11.192   9.882  0.00  0.00    +0.000 OA
ATOM     33  C   UNL     1      52.572   8.987   9.308  0.00  0.00    +0.000 A 
ATOM     34  H   UNL     1      53.142  11.897   7.868  0.00  0.00    +0.000 HD
ENDBRANCH  21  24
ENDBRANCH  19  20
ENDBRANCH   4  19
TORSDOF 7
ENDMDL
MODEL 9
REMARK VINA RESULT:    -7.092      3.726      9.145
REMARK INTER + INTRA:         -11.114
REMARK INTER:                  -9.112
REMARK INTRA:                  -2.002
REMARK UNBOUND:                -1.119
REMARK  Name = 
REMARK  9 active torsions:
REMARK  status: ('A' for Active; 'I' for Inactive)
REMARK    1  A    between atoms: C_1  and  C_2
REMARK    2  A    between atoms: C_6  and  C_7
REMARK    3  A    between atoms: C_7  and  N_8
REMARK    4  A    between atoms: N_8  and  C_9
REMARK    5  A    between atoms: C_9  and  C_10
REMARK    6  A    between atoms: C_13  and  C_14
REMARK    7  A    between atoms: C_14  and  N_15
REMARK    8  A    between atoms: C_16  and  C_18
REMARK    9  A    between atoms: C_29  and  C_30
REMARK                            x       y       z     vdW  Elec       q    Type
REMARK                         _______ _______ _______ _____ _____    ______ ____
ROOT
ATOM      1  C   UNL     1      50.573   4.896  19.392  0.00  0.00    +0.000 A 
ATOM      2  C   UNL     1      49.227   5.235  19.615  0.00  0.00    +0.000 A 
ATOM      3  C   UNL     1      48.199   4.719  18.816  0.00  0.00    +0.000 A 
ATOM      4  C   UNL     1      48.485   3.860  17.750  0.00  0.00    +0.000 A 
ATOM      5  C   UNL     1      49.823   3.533  17.501  0.00  0.00    +0.000 A 
ATOM      6  C   UNL     1      50.868   4.035  18.307  0.00  0.00    +0.000 A 
ATOM      7  C   UNL     1      52.281   3.639  17.969  0.00  0.00    +0.000 C 
ENDROOT
BRANCH   1   8
ATOM      8  C   UNL     1      51.681   5.533  20.223  0.00  0.00    +0.000 C 
BRANCH   8   9
ATOM      9  N   UNL     1      51.746   7.012  20.238  0.00  0.00    +0.000 NA
ATOM     10  H   UNL     1      50.798   7.349  20.412  0.00  0.00    +0.000 HD
BRANCH   9  11
ATOM     11  C   UNL     1      52.150   7.514  18.911  0.00  0.00    +0.000 C 
BRANCH  11  17
ATOM     12  C   UNL     1      47.721   9.281  18.221  0.00  0.00    +0.000 C 
ATOM     13  C   UNL     1      48.879   8.570  17.595  0.00  0.00    +0.000 A 
ATOM     14  C   UNL     1      48.815   8.060  16.307  0.00  0.00    +0.000 A 
ATOM     15  C   UNL     1      49.920   7.376  15.807  0.00  0.00    +0.000 A 
ATOM     16  C   UNL     1      51.050   7.204  16.609  0.00  0.00    +0.000 A 
ATOM     17  C   UNL     1      51.047   7.742  17.892  0.00  0.00    +0.000 A 
ATOM     18  N   UNL     1      49.975   8.427  18.374  0.00  0.00    +0.000 NA
ENDBRANCH  11  17
ENDBRANCH   9  11
ENDBRANCH   8   9
ENDBRANCH   1   8
BRANCH   4  19
ATOM     19  C   UNL     1      47.384   3.343  16.855  0.00  0.00    +0.000 C 
BRANCH  19  20
ATOM     20  N   UNL     1      46.935   4.358  15.931  0.00  0.00    +0.000 N 
ATOM     21  C   UNL     1      46.939   4.145  14.575  0.00  0.00    +0.000 C 
ATOM     22  O   UNL     1      47.289   3.072  14.089  0.00  0.00    +0.000 OA
ATOM     23  H   UNL     1      46.857   5.305  16.291  0.00  0.00    +0.000 HD
BRANCH  21  24
ATOM     24  C   UNL     1      46.456   5.242  13.726  0.00  0.00    +0.000 A 
ATOM     25  C   UNL     1      47.221   6.391  13.582  0.00  0.00    +0.000 A 
ATOM     26  S   UNL     1      46.542   7.551  12.534  0.00  0.00    +0.000 S 
ATOM     27  C   UNL     1      45.168   6.582  12.271  0.00  0.00    +0.000 A 
ATOM     28  N   UNL     1      44.156   7.012  11.468  0.00  0.00    +0.000 NA
ATOM     29  C   UNL     1      43.162   6.194  11.380  0.00  0.00    +0.000 A 
ATOM     30  N   UNL     1      43.090   4.981  12.017  0.00  0.00    +0.000 N 
ATOM     31  C   UNL     1      44.101   4.495  12.813  0.00  0.00    +0.000 A 
ATOM     32  O   UNL     1      44.017   3.391  13.339  0.00  0.00    +0.000 OA
ATOM     33  C   UNL     1      45.242   5.384  12.960  0.00  0.00    +0.000 A 
ATOM     34  H   UNL     1      42.286   4.384  11.899  0.00  0.00    +0.000 HD
ENDBRANCH  21  24
ENDBRANCH  19  20
ENDBRANCH   4  19
TORSDOF 7
ENDMDL
