MODEL 1
REMARK VINA RESULT:    -8.278      0.000      0.000
REMARK INTER + INTRA:         -11.563
REMARK INTER:                 -10.698
REMARK INTRA:                  -0.865
REMARK UNBOUND:                -0.865
REMARK  Name = 
REMARK  7 active torsions:
REMARK  status: ('A' for Active; 'I' for Inactive)
REMARK    1  A    between atoms: C_1  and  C_2
REMARK    2  A    between atoms: C_4  and  C_5
REMARK    3  A    between atoms: C_5  and  C_6
REMARK    4  A    between atoms: C_5  and  C_7
REMARK    5  A    between atoms: C_7  and  N_8
REMARK    6  A    between atoms: C_12  and  C_13
REMARK    7  A    between atoms: C_19  and  C_20
REMARK                            x       y       z     vdW  Elec       q    Type
REMARK                         _______ _______ _______ _____ _____    ______ ____
ROOT
ATOM      1  C   UNL     1      43.229   5.066  12.229  0.00  0.00    +0.000 C 
ATOM      2  C   UNL     1      42.438   6.362  12.006  0.00  0.00    +0.000 C 
ENDROOT
BRANCH   1   6
ATOM      3  C   UNL     1      47.268   3.785  14.998  0.00  0.00    +0.000 C 
ATOM      4  C   UNL     1      46.586   4.738  14.059  0.00  0.00    +0.000 A 
ATOM      5  C   UNL     1      45.285   4.490  13.598  0.00  0.00    +0.000 A 
ATOM      6  C   UNL     1      44.651   5.374  12.713  0.00  0.00    +0.000 A 
ATOM      7  C   UNL     1      45.365   6.516  12.294  0.00  0.00    +0.000 A 
ATOM      8  C   UNL     1      46.686   6.776  12.730  0.00  0.00    +0.000 A 
ATOM      9  C   UNL     1      47.273   5.881  13.629  0.00  0.00    +0.000 A 
BRANCH   8  10
ATOM     10  C   UNL     1      47.431   8.007  12.221  0.00  0.00    +0.000 C 
ATOM     11  C   UNL     1      48.891   7.743  11.777  0.00  0.00    +0.000 C 
ATOM     12  C   UNL     1      49.981   8.128  12.781  0.00  0.00    +0.000 C 
ATOM     13  N   UNL     1      49.737   9.417  13.417  0.00  0.00    +0.000 NA
ATOM     14  C   UNL     1      48.466   9.382  14.134  0.00  0.00    +0.000 C 
ATOM     15  C   UNL     1      47.297   9.213  13.169  0.00  0.00    +0.000 C 
ATOM     16  H   UNL     1      49.706  10.149  12.705  0.00  0.00    +0.000 HD
ENDBRANCH   8  10
ENDBRANCH   1   6
BRANCH   1  17
ATOM     17  C   UNL     1      43.241   4.159  10.975  0.00  0.00    +0.000 C 
BRANCH  17  18
ATOM     18  N   UNL     1      43.898   4.797   9.819  0.00  0.00    +0.000 N 
ATOM     19  C   UNL     1      44.743   3.917   9.109  0.00  0.00    +0.000 A 
ATOM     20  C   UNL     1      45.468   4.404   8.024  0.00  0.00    +0.000 A 
ATOM     21  C   UNL     1      46.319   3.546   7.318  0.00  0.00    +0.000 A 
ATOM     22  C   UNL     1      46.424   2.209   7.706  0.00  0.00    +0.000 A 
ATOM     23  C   UNL     1      45.650   1.803   8.775  0.00  0.00    +0.000 A 
ATOM     24  N   UNL     1      44.823   2.622   9.475  0.00  0.00    +0.000 NA
ATOM     25  H   UNL     1      44.455   5.604  10.087  0.00  0.00    +0.000 HD
BRANCH  22  26
ATOM     26  C   UNL     1      47.339   1.301   6.969  0.00  0.00    +0.000 C 
ATOM     27  N   UNL     1      48.465   1.819   6.390  0.00  0.00    +0.000 N 
ATOM     28  O   UNL     1      47.096   0.104   6.865  0.00  0.00    +0.000 OA
ATOM     29  H   UNL     1      48.752   2.785   6.396  0.00  0.00    +0.000 HD
ATOM     30  H   UNL     1      49.058   1.167   5.891  0.00  0.00    +0.000 HD
ENDBRANCH  22  26
ENDBRANCH  17  18
ENDBRANCH   1  17
TORSDOF 5
ENDMDL
MODEL 2
REMARK VINA RESULT:    -8.064      2.523      3.430
REMARK INTER + INTRA:         -11.286
REMARK INTER:                 -10.375
REMARK INTRA:                  -0.910
REMARK UNBOUND:                -0.865
REMARK  Name = 
REMARK  7 active torsions:
REMARK  status: ('A' for Active; 'I' for Inactive)
REMARK    1  A    between atoms: C_1  and  C_2
REMARK    2  A    between atoms: C_4  and  C_5
REMARK    3  A    between atoms: C_5  and  C_6
REMARK    4  A    between atoms: C_5  and  C_7
REMARK    5  A    between atoms: C_7  and  N_8
REMARK    6  A    between atoms: C_12  and  C_13
REMARK    7  A    between atoms: C_19  and  C_20
REMARK                            x       y       z     vdW  Elec       q    Type
REMARK                         _______ _______ _______ _____ _____    ______ ____
ROOT
ATOM      1  C   UNL     1      44.133   5.144  12.027  0.00  0.00    +0.000 C 
ATOM      2  C   UNL     1      42.905   5.333  12.926  0.00  0.00    +0.000 C 
ENDROOT
BRANCH   1   6
ATOM      3  C   UNL     1      48.714   7.298  12.053  0.00  0.00    +0.000 C 
ATOM      4  C   UNL     1      47.218   7.427  12.034  0.00  0.00    +0.000 A 
ATOM      5  C   UNL     1      46.395   6.291  12.045  0.00  0.00    +0.000 A 
ATOM      6  C   UNL     1      44.998   6.410  12.017  0.00  0.00    +0.000 A 
ATOM      7  C   UNL     1      44.446   7.706  11.968  0.00  0.00    +0.000 A 
ATOM      8  C   UNL     1      45.256   8.866  11.936  0.00  0.00    +0.000 A 
ATOM      9  C   UNL     1      46.644   8.704  11.987  0.00  0.00    +0.000 A 
BRANCH   8  10
ATOM     10  C   UNL     1      44.612  10.247  11.848  0.00  0.00    +0.000 C 
ATOM     11  C   UNL     1      43.329  10.310  10.982  0.00  0.00    +0.000 C 
ATOM     12  C   UNL     1      43.500  10.860   9.563  0.00  0.00    +0.000 C 
ATOM     13  N   UNL     1      44.356  12.039   9.511  0.00  0.00    +0.000 NA
ATOM     14  C   UNL     1      45.684  11.709  10.021  0.00  0.00    +0.000 C 
ATOM     15  C   UNL     1      45.628  11.353  11.503  0.00  0.00    +0.000 C 
ATOM     16  H   UNL     1      43.948  12.784  10.079  0.00  0.00    +0.000 HD
ENDBRANCH   8  10
ENDBRANCH   1   6
BRANCH   1  17
ATOM     17  C   UNL     1      43.753   4.706  10.592  0.00  0.00    +0.000 C 
BRANCH  17  18
ATOM     18  N   UNL     1      44.012   3.275  10.347  0.00  0.00    +0.000 N 
ATOM     19  C   UNL     1      44.929   3.052   9.298  0.00  0.00    +0.000 A 
ATOM     20  C   UNL     1      45.224   1.743   8.925  0.00  0.00    +0.000 A 
ATOM     21  C   UNL     1      46.122   1.506   7.878  0.00  0.00    +0.000 A 
ATOM     22  C   UNL     1      46.717   2.587   7.224  0.00  0.00    +0.000 A 
ATOM     23  C   UNL     1      46.389   3.850   7.675  0.00  0.00    +0.000 A 
ATOM     24  N   UNL     1      45.516   4.100   8.686  0.00  0.00    +0.000 NA
ATOM     25  H   UNL     1      43.165   2.760  10.126  0.00  0.00    +0.000 HD
BRANCH  22  26
ATOM     26  C   UNL     1      47.657   2.339   6.102  0.00  0.00    +0.000 C 
ATOM     27  N   UNL     1      47.657   3.196   5.035  0.00  0.00    +0.000 N 
ATOM     28  O   UNL     1      48.420   1.381   6.115  0.00  0.00    +0.000 OA
ATOM     29  H   UNL     1      47.063   4.000   4.911  0.00  0.00    +0.000 HD
ATOM     30  H   UNL     1      48.309   2.987   4.288  0.00  0.00    +0.000 HD
ENDBRANCH  22  26
ENDBRANCH  17  18
ENDBRANCH   1  17
TORSDOF 5
ENDMDL
MODEL 3
REMARK VINA RESULT:    -7.788      1.391      2.338
REMARK INTER + INTRA:         -10.930
REMARK INTER:                 -10.449
REMARK INTRA:                  -0.481
REMARK UNBOUND:                -0.865
REMARK  Name = 
REMARK  7 active torsions:
REMARK  status: ('A' for Active; 'I' for Inactive)
REMARK    1  A    between atoms: C_1  and  C_2
REMARK    2  A    between atoms: C_4  and  C_5
REMARK    3  A    between atoms: C_5  and  C_6
REMARK    4  A    between atoms: C_5  and  C_7
REMARK    5  A    between atoms: C_7  and  N_8
REMARK    6  A    between atoms: C_12  and  C_13
REMARK    7  A    between atoms: C_19  and  C_20
REMARK                            x       y       z     vdW  Elec       q    Type
REMARK                         _______ _______ _______ _____ _____    ______ ____
ROOT
ATOM      1  C   UNL     1      44.300   4.622  12.072  0.00  0.00    +0.000 C 
ATOM      2  C   UNL     1      43.553   4.365  13.387  0.00  0.00    +0.000 C 
ENDROOT
BRANCH   1   6
ATOM      3  C   UNL     1      44.804   9.658  12.126  0.00  0.00    +0.000 C 
ATOM      4  C   UNL     1      45.417   8.291  12.209  0.00  0.00    +0.000 A 
ATOM      5  C   UNL     1      44.627   7.136  12.103  0.00  0.00    +0.000 A 
ATOM      6  C   UNL     1      45.198   5.858  12.190  0.00  0.00    +0.000 A 
ATOM      7  C   UNL     1      46.590   5.769  12.396  0.00  0.00    +0.000 A 
ATOM      8  C   UNL     1      47.404   6.919  12.526  0.00  0.00    +0.000 A 
ATOM      9  C   UNL     1      46.799   8.174  12.411  0.00  0.00    +0.000 A 
BRANCH   8  10
ATOM     10  C   UNL     1      48.902   6.771  12.784  0.00  0.00    +0.000 C 
ATOM     11  C   UNL     1      49.353   7.146  14.217  0.00  0.00    +0.000 C 
ATOM     12  C   UNL     1      49.978   8.534  14.385  0.00  0.00    +0.000 C 
ATOM     13  N   UNL     1      50.917   8.866  13.320  0.00  0.00    +0.000 NA
ATOM     14  C   UNL     1      50.231   8.842  12.031  0.00  0.00    +0.000 C 
ATOM     15  C   UNL     1      49.759   7.433  11.688  0.00  0.00    +0.000 C 
ATOM     16  H   UNL     1      51.680   8.186  13.312  0.00  0.00    +0.000 HD
ENDBRANCH   8  10
ENDBRANCH   1   6
BRANCH   1  17
ATOM     17  C   UNL     1      43.341   4.732  10.861  0.00  0.00    +0.000 C 
BRANCH  17  18
ATOM     18  N   UNL     1      44.039   5.108   9.618  0.00  0.00    +0.000 N 
ATOM     19  C   UNL     1      44.769   4.042   9.050  0.00  0.00    +0.000 A 
ATOM     20  C   UNL     1      45.520   4.274   7.899  0.00  0.00    +0.000 A 
ATOM     21  C   UNL     1      46.259   3.229   7.332  0.00  0.00    +0.000 A 
ATOM     22  C   UNL     1      46.228   1.965   7.923  0.00  0.00    +0.000 A 
ATOM     23  C   UNL     1      45.437   1.816   9.045  0.00  0.00    +0.000 A 
ATOM     24  N   UNL     1      44.717   2.818   9.613  0.00  0.00    +0.000 NA
ATOM     25  H   UNL     1      44.685   5.881   9.754  0.00  0.00    +0.000 HD
BRANCH  22  26
ATOM     26  C   UNL     1      47.024   0.859   7.333  0.00  0.00    +0.000 C 
ATOM     27  N   UNL     1      46.605  -0.430   7.514  0.00  0.00    +0.000 N 
ATOM     28  O   UNL     1      48.047   1.084   6.698  0.00  0.00    +0.000 OA
ATOM     29  H   UNL     1      45.794  -0.731   8.031  0.00  0.00    +0.000 HD
ATOM     30  H   UNL     1      47.180  -1.156   7.101  0.00  0.00    +0.000 HD
ENDBRANCH  22  26
ENDBRANCH  17  18
ENDBRANCH   1  17
TORSDOF 5
ENDMDL
MODEL 4
REMARK VINA RESULT:    -7.258      4.266      8.486
REMARK INTER + INTRA:         -10.244
REMARK INTER:                  -9.500
REMARK INTRA:                  -0.744
REMARK UNBOUND:                -0.865
REMARK  Name = 
REMARK  7 active torsions:
REMARK  status: ('A' for Active; 'I' for Inactive)
REMARK    1  A    between atoms: C_1  and  C_2
REMARK    2  A    between atoms: C_4  and  C_5
REMARK    3  A    between atoms: C_5  and  C_6
REMARK    4  A    between atoms: C_5  and  C_7
REMARK    5  A    between atoms: C_7  and  N_8
REMARK    6  A    between atoms: C_12  and  C_13
REMARK    7  A    between atoms: C_19  and  C_20
REMARK                            x       y       z     vdW  Elec       q    Type
REMARK                         _______ _______ _______ _____ _____    ______ ____
ROOT
ATOM      1  C   UNL     1      48.162   6.498  12.788  0.00  0.00    +0.000 C 
ATOM      2  C   UNL     1      49.242   7.351  12.111  0.00  0.00    +0.000 C 
ENDROOT
BRANCH   1   6
ATOM      3  C   UNL     1      44.726  10.078  11.789  0.00  0.00    +0.000 C 
ATOM      4  C   UNL     1      45.124   8.631  11.813  0.00  0.00    +0.000 A 
ATOM      5  C   UNL     1      46.391   8.237  12.269  0.00  0.00    +0.000 A 
ATOM      6  C   UNL     1      46.768   6.886  12.283  0.00  0.00    +0.000 A 
ATOM      7  C   UNL     1      45.836   5.936  11.816  0.00  0.00    +0.000 A 
ATOM      8  C   UNL     1      44.561   6.311  11.331  0.00  0.00    +0.000 A 
ATOM      9  C   UNL     1      44.217   7.666  11.355  0.00  0.00    +0.000 A 
BRANCH   8  10
ATOM     10  C   UNL     1      43.601   5.248  10.802  0.00  0.00    +0.000 C 
ATOM     11  C   UNL     1      42.945   4.367  11.894  0.00  0.00    +0.000 C 
ATOM     12  C   UNL     1      43.560   2.980  12.100  0.00  0.00    +0.000 C 
ATOM     13  N   UNL     1      43.870   2.305  10.846  0.00  0.00    +0.000 NA
ATOM     14  C   UNL     1      44.822   3.103  10.078  0.00  0.00    +0.000 C 
ATOM     15  C   UNL     1      44.204   4.428   9.647  0.00  0.00    +0.000 C 
ATOM     16  H   UNL     1      43.014   2.181  10.302  0.00  0.00    +0.000 HD
ENDBRANCH   8  10
ENDBRANCH   1   6
BRANCH   1  17
ATOM     17  C   UNL     1      48.243   6.559  14.333  0.00  0.00    +0.000 C 
BRANCH  17  18
ATOM     18  N   UNL     1      47.554   5.429  14.983  0.00  0.00    +0.000 N 
ATOM     19  C   UNL     1      47.972   5.220  16.314  0.00  0.00    +0.000 A 
ATOM     20  C   UNL     1      47.441   4.149  17.030  0.00  0.00    +0.000 A 
ATOM     21  C   UNL     1      47.855   3.922  18.347  0.00  0.00    +0.000 A 
ATOM     22  C   UNL     1      48.792   4.777  18.931  0.00  0.00    +0.000 A 
ATOM     23  C   UNL     1      49.247   5.829  18.160  0.00  0.00    +0.000 A 
ATOM     24  N   UNL     1      48.860   6.063  16.879  0.00  0.00    +0.000 NA
ATOM     25  H   UNL     1      47.686   4.554  14.482  0.00  0.00    +0.000 HD
BRANCH  22  26
ATOM     26  C   UNL     1      49.245   4.529  20.322  0.00  0.00    +0.000 C 
ATOM     27  N   UNL     1      50.582   4.594  20.606  0.00  0.00    +0.000 N 
ATOM     28  O   UNL     1      48.446   4.260  21.211  0.00  0.00    +0.000 OA
ATOM     29  H   UNL     1      51.325   4.787  19.954  0.00  0.00    +0.000 HD
ATOM     30  H   UNL     1      50.851   4.411  21.566  0.00  0.00    +0.000 HD
ENDBRANCH  22  26
ENDBRANCH  17  18
ENDBRANCH   1  17
TORSDOF 5
ENDMDL
MODEL 5
REMARK VINA RESULT:    -7.241      1.623      2.972
REMARK INTER + INTRA:         -10.223
REMARK INTER:                  -9.650
REMARK INTRA:                  -0.573
REMARK UNBOUND:                -0.865
REMARK  Name = 
REMARK  7 active torsions:
REMARK  status: ('A' for Active; 'I' for Inactive)
REMARK    1  A    between atoms: C_1  and  C_2
REMARK    2  A    between atoms: C_4  and  C_5
REMARK    3  A    between atoms: C_5  and  C_6
REMARK    4  A    between atoms: C_5  and  C_7
REMARK    5  A    between atoms: C_7  and  N_8
REMARK    6  A    between atoms: C_12  and  C_13
REMARK    7  A    between atoms: C_19  and  C_20
REMARK                            x       y       z     vdW  Elec       q    Type
REMARK                         _______ _______ _______ _____ _____    ______ ____
ROOT
ATOM      1  C   UNL     1      45.460   5.743  11.829  0.00  0.00    +0.000 C 
ATOM      2  C   UNL     1      45.275   5.190  13.248  0.00  0.00    +0.000 C 
ENDROOT
BRANCH   1   6
ATOM      3  C   UNL     1      43.901  10.546  11.479  0.00  0.00    +0.000 C 
ATOM      4  C   UNL     1      45.005   9.551  11.691  0.00  0.00    +0.000 A 
ATOM      5  C   UNL     1      44.751   8.172  11.660  0.00  0.00    +0.000 A 
ATOM      6  C   UNL     1      45.780   7.242  11.868  0.00  0.00    +0.000 A 
ATOM      7  C   UNL     1      47.077   7.736  12.117  0.00  0.00    +0.000 A 
ATOM      8  C   UNL     1      47.353   9.123  12.173  0.00  0.00    +0.000 A 
ATOM      9  C   UNL     1      46.303  10.016  11.939  0.00  0.00    +0.000 A 
BRANCH   8  10
ATOM     10  C   UNL     1      48.767   9.609  12.481  0.00  0.00    +0.000 C 
ATOM     11  C   UNL     1      49.815   9.292  11.384  0.00  0.00    +0.000 C 
ATOM     12  C   UNL     1      50.720   8.085  11.646  0.00  0.00    +0.000 C 
ATOM     13  N   UNL     1      51.206   8.029  13.019  0.00  0.00    +0.000 NA
ATOM     14  C   UNL     1      50.076   7.943  13.941  0.00  0.00    +0.000 C 
ATOM     15  C   UNL     1      49.234   9.214  13.894  0.00  0.00    +0.000 C 
ATOM     16  H   UNL     1      51.751   8.869  13.225  0.00  0.00    +0.000 HD
ENDBRANCH   8  10
ENDBRANCH   1   6
BRANCH   1  17
ATOM     17  C   UNL     1      44.245   5.447  10.916  0.00  0.00    +0.000 C 
BRANCH  17  18
ATOM     18  N   UNL     1      44.106   4.013  10.604  0.00  0.00    +0.000 N 
ATOM     19  C   UNL     1      44.917   3.602   9.524  0.00  0.00    +0.000 A 
ATOM     20  C   UNL     1      44.843   2.281   9.088  0.00  0.00    +0.000 A 
ATOM     21  C   UNL     1      45.633   1.863   8.010  0.00  0.00    +0.000 A 
ATOM     22  C   UNL     1      46.490   2.773   7.390  0.00  0.00    +0.000 A 
ATOM     23  C   UNL     1      46.519   4.055   7.903  0.00  0.00    +0.000 A 
ATOM     24  N   UNL     1      45.758   4.481   8.944  0.00  0.00    +0.000 NA
ATOM     25  H   UNL     1      43.148   3.755  10.380  0.00  0.00    +0.000 HD
BRANCH  22  26
ATOM     26  C   UNL     1      47.315   2.336   6.237  0.00  0.00    +0.000 C 
ATOM     27  N   UNL     1      47.247   3.043   5.067  0.00  0.00    +0.000 N 
ATOM     28  O   UNL     1      48.044   1.354   6.314  0.00  0.00    +0.000 OA
ATOM     29  H   UNL     1      46.672   3.850   4.886  0.00  0.00    +0.000 HD
ATOM     30  H   UNL     1      47.821   2.707   4.302  0.00  0.00    +0.000 HD
ENDBRANCH  22  26
ENDBRANCH  17  18
ENDBRANCH   1  17
TORSDOF 5
ENDMDL
MODEL 6
REMARK VINA RESULT:    -7.144      4.144      8.400
REMARK INTER + INTRA:         -10.097
REMARK INTER:                  -9.222
REMARK INTRA:                  -0.875
REMARK UNBOUND:                -0.865
REMARK  Name = 
REMARK  7 active torsions:
REMARK  status: ('A' for Active; 'I' for Inactive)
REMARK    1  A    between atoms: C_1  and  C_2
REMARK    2  A    between atoms: C_4  and  C_5
REMARK    3  A    between atoms: C_5  and  C_6
REMARK    4  A    between atoms: C_5  and  C_7
REMARK    5  A    between atoms: C_7  and  N_8
REMARK    6  A    between atoms: C_12  and  C_13
REMARK    7  A    between atoms: C_19  and  C_20
REMARK                            x       y       z     vdW  Elec       q    Type
REMARK                         _______ _______ _______ _____ _____    ______ ____
ROOT
ATOM      1  C   UNL     1      49.328   7.254  12.831  0.00  0.00    +0.000 C 
ATOM      2  C   UNL     1      49.961   7.771  11.533  0.00  0.00    +0.000 C 
ENDROOT
BRANCH   1   6
ATOM      3  C   UNL     1      45.022   9.721  11.835  0.00  0.00    +0.000 C 
ATOM      4  C   UNL     1      45.734   8.464  12.245  0.00  0.00    +0.000 A 
ATOM      5  C   UNL     1      47.132   8.429  12.353  0.00  0.00    +0.000 A 
ATOM      6  C   UNL     1      47.799   7.253  12.727  0.00  0.00    +0.000 A 
ATOM      7  C   UNL     1      47.020   6.105  12.982  0.00  0.00    +0.000 A 
ATOM      8  C   UNL     1      45.611   6.111  12.859  0.00  0.00    +0.000 A 
ATOM      9  C   UNL     1      44.984   7.310  12.506  0.00  0.00    +0.000 A 
BRANCH   8  10
ATOM     10  C   UNL     1      44.815   4.833  13.112  0.00  0.00    +0.000 C 
ATOM     11  C   UNL     1      45.301   3.598  12.313  0.00  0.00    +0.000 C 
ATOM     12  C   UNL     1      44.495   3.247  11.059  0.00  0.00    +0.000 C 
ATOM     13  N   UNL     1      43.055   3.338  11.267  0.00  0.00    +0.000 NA
ATOM     14  C   UNL     1      42.697   4.699  11.657  0.00  0.00    +0.000 C 
ATOM     15  C   UNL     1      43.294   5.055  13.015  0.00  0.00    +0.000 C 
ATOM     16  H   UNL     1      42.773   2.688  12.003  0.00  0.00    +0.000 HD
ENDBRANCH   8  10
ENDBRANCH   1   6
BRANCH   1  17
ATOM     17  C   UNL     1      49.810   8.038  14.076  0.00  0.00    +0.000 C 
BRANCH  17  18
ATOM     18  N   UNL     1      50.830   7.305  14.849  0.00  0.00    +0.000 N 
ATOM     19  C   UNL     1      50.297   6.632  15.968  0.00  0.00    +0.000 A 
ATOM     20  C   UNL     1      51.160   5.943  16.817  0.00  0.00    +0.000 A 
ATOM     21  C   UNL     1      50.647   5.280  17.938  0.00  0.00    +0.000 A 
ATOM     22  C   UNL     1      49.274   5.311  18.187  0.00  0.00    +0.000 A 
ATOM     23  C   UNL     1      48.487   5.995  17.281  0.00  0.00    +0.000 A 
ATOM     24  N   UNL     1      48.967   6.648  16.191  0.00  0.00    +0.000 NA
ATOM     25  H   UNL     1      51.573   7.913  15.185  0.00  0.00    +0.000 HD
BRANCH  22  26
ATOM     26  C   UNL     1      48.729   4.623  19.385  0.00  0.00    +0.000 C 
ATOM     27  N   UNL     1      48.442   3.288  19.309  0.00  0.00    +0.000 N 
ATOM     28  O   UNL     1      48.527   5.232  20.428  0.00  0.00    +0.000 OA
ATOM     29  H   UNL     1      48.550   2.696  18.502  0.00  0.00    +0.000 HD
ATOM     30  H   UNL     1      48.065   2.858  20.146  0.00  0.00    +0.000 HD
ENDBRANCH  22  26
ENDBRANCH  17  18
ENDBRANCH   1  17
TORSDOF 5
ENDMDL
MODEL 7
REMARK VINA RESULT:    -7.124      3.742      7.604
REMARK INTER + INTRA:         -10.072
REMARK INTER:                  -8.856
REMARK INTRA:                  -1.216
REMARK UNBOUND:                -0.865
REMARK  Name = 
REMARK  7 active torsions:
REMARK  status: ('A' for Active; 'I' for Inactive)
REMARK    1  A    between atoms: C_1  and  C_2
REMARK    2  A    between atoms: C_4  and  C_5
REMARK    3  A    between atoms: C_5  and  C_6
REMARK    4  A    between atoms: C_5  and  C_7
REMARK    5  A    between atoms: C_7  and  N_8
REMARK    6  A    between atoms: C_12  and  C_13
REMARK    7  A    between atoms: C_19  and  C_20
REMARK                            x       y       z     vdW  Elec       q    Type
REMARK                         _______ _______ _______ _____ _____    ______ ____
ROOT
ATOM      1  C   UNL     1      48.511   8.870  12.464  0.00  0.00    +0.000 C 
ATOM      2  C   UNL     1      48.668   9.828  13.652  0.00  0.00    +0.000 C 
ENDROOT
BRANCH   1   6
ATOM      3  C   UNL     1      43.969  10.911  11.554  0.00  0.00    +0.000 C 
ATOM      4  C   UNL     1      44.849   9.700  11.669  0.00  0.00    +0.000 A 
ATOM      5  C   UNL     1      46.207   9.823  12.002  0.00  0.00    +0.000 A 
ATOM      6  C   UNL     1      47.032   8.694  12.100  0.00  0.00    +0.000 A 
ATOM      7  C   UNL     1      46.458   7.431  11.846  0.00  0.00    +0.000 A 
ATOM      8  C   UNL     1      45.097   7.284  11.489  0.00  0.00    +0.000 A 
ATOM      9  C   UNL     1      44.303   8.434  11.423  0.00  0.00    +0.000 A 
BRANCH   8  10
ATOM     10  C   UNL     1      44.529   5.899  11.188  0.00  0.00    +0.000 C 
ATOM     11  C   UNL     1      43.063   5.688  11.639  0.00  0.00    +0.000 C 
ATOM     12  C   UNL     1      42.864   4.926  12.952  0.00  0.00    +0.000 C 
ATOM     13  N   UNL     1      43.735   3.762  13.070  0.00  0.00    +0.000 NA
ATOM     14  C   UNL     1      45.132   4.182  13.007  0.00  0.00    +0.000 C 
ATOM     15  C   UNL     1      45.469   4.765  11.639  0.00  0.00    +0.000 C 
ATOM     16  H   UNL     1      43.541   3.111  12.306  0.00  0.00    +0.000 HD
ENDBRANCH   8  10
ENDBRANCH   1   6
BRANCH   1  17
ATOM     17  C   UNL     1      49.200   7.505  12.712  0.00  0.00    +0.000 C 
BRANCH  17  18
ATOM     18  N   UNL     1      49.899   7.450  14.008  0.00  0.00    +0.000 N 
ATOM     19  C   UNL     1      49.290   6.569  14.927  0.00  0.00    +0.000 A 
ATOM     20  C   UNL     1      49.818   6.460  16.212  0.00  0.00    +0.000 A 
ATOM     21  C   UNL     1      49.216   5.600  17.137  0.00  0.00    +0.000 A 
ATOM     22  C   UNL     1      48.098   4.855  16.759  0.00  0.00    +0.000 A 
ATOM     23  C   UNL     1      47.656   5.003  15.459  0.00  0.00    +0.000 A 
ATOM     24  N   UNL     1      48.224   5.836  14.548  0.00  0.00    +0.000 NA
ATOM     25  H   UNL     1      49.961   8.361  14.455  0.00  0.00    +0.000 HD
BRANCH  22  26
ATOM     26  C   UNL     1      47.448   3.954  17.744  0.00  0.00    +0.000 C 
ATOM     27  N   UNL     1      47.779   4.068  19.067  0.00  0.00    +0.000 N 
ATOM     28  O   UNL     1      46.633   3.111  17.390  0.00  0.00    +0.000 OA
ATOM     29  H   UNL     1      48.447   4.709  19.465  0.00  0.00    +0.000 HD
ATOM     30  H   UNL     1      47.318   3.430  19.705  0.00  0.00    +0.000 HD
ENDBRANCH  22  26
ENDBRANCH  17  18
ENDBRANCH   1  17
TORSDOF 5
ENDMDL
MODEL 8
REMARK VINA RESULT:    -6.821      3.546      6.121
REMARK INTER + INTRA:          -9.681
REMARK INTER:                  -8.836
REMARK INTRA:                  -0.845
REMARK UNBOUND:                -0.865
REMARK  Name = 
REMARK  7 active torsions:
REMARK  status: ('A' for Active; 'I' for Inactive)
REMARK    1  A    between atoms: C_1  and  C_2
REMARK    2  A    between atoms: C_4  and  C_5
REMARK    3  A    between atoms: C_5  and  C_6
REMARK    4  A    between atoms: C_5  and  C_7
REMARK    5  A    between atoms: C_7  and  N_8
REMARK    6  A    between atoms: C_12  and  C_13
REMARK    7  A    between atoms: C_19  and  C_20
REMARK                            x       y       z     vdW  Elec       q    Type
REMARK                         _______ _______ _______ _____ _____    ______ ____
ROOT
ATOM      1  C   UNL     1      49.184   8.028  14.223  0.00  0.00    +0.000 C 
ATOM      2  C   UNL     1      49.927   8.135  12.885  0.00  0.00    +0.000 C 
ENDROOT
BRANCH   1   6
ATOM      3  C   UNL     1      53.653   7.033  16.383  0.00  0.00    +0.000 C 
ATOM      4  C   UNL     1      52.180   6.770  16.266  0.00  0.00    +0.000 A 
ATOM      5  C   UNL     1      51.391   7.474  15.344  0.00  0.00    +0.000 A 
ATOM      6  C   UNL     1      50.012   7.236  15.242  0.00  0.00    +0.000 A 
ATOM      7  C   UNL     1      49.443   6.273  16.100  0.00  0.00    +0.000 A 
ATOM      8  C   UNL     1      50.214   5.565  17.051  0.00  0.00    +0.000 A 
ATOM      9  C   UNL     1      51.589   5.817  17.106  0.00  0.00    +0.000 A 
BRANCH   8  10
ATOM     10  C   UNL     1      49.545   4.557  17.983  0.00  0.00    +0.000 C 
ATOM     11  C   UNL     1      49.441   3.120  17.415  0.00  0.00    +0.000 C 
ATOM     12  C   UNL     1      48.080   2.721  16.837  0.00  0.00    +0.000 C 
ATOM     13  N   UNL     1      46.962   3.156  17.666  0.00  0.00    +0.000 NA
ATOM     14  C   UNL     1      46.980   4.610  17.797  0.00  0.00    +0.000 C 
ATOM     15  C   UNL     1      48.215   5.077  18.559  0.00  0.00    +0.000 C 
ATOM     16  H   UNL     1      47.037   2.730  18.592  0.00  0.00    +0.000 HD
ENDBRANCH   8  10
ENDBRANCH   1   6
BRANCH   1  17
ATOM     17  C   UNL     1      47.763   7.433  14.064  0.00  0.00    +0.000 C 
BRANCH  17  18
ATOM     18  N   UNL     1      47.254   7.542  12.685  0.00  0.00    +0.000 N 
ATOM     19  C   UNL     1      46.471   6.434  12.296  0.00  0.00    +0.000 A 
ATOM     20  C   UNL     1      45.970   6.382  10.997  0.00  0.00    +0.000 A 
ATOM     21  C   UNL     1      45.201   5.283  10.595  0.00  0.00    +0.000 A 
ATOM     22  C   UNL     1      44.940   4.256  11.503  0.00  0.00    +0.000 A 
ATOM     23  C   UNL     1      45.453   4.400  12.777  0.00  0.00    +0.000 A 
ATOM     24  N   UNL     1      46.204   5.456  13.185  0.00  0.00    +0.000 NA
ATOM     25  H   UNL     1      48.001   7.640  12.002  0.00  0.00    +0.000 HD
BRANCH  22  26
ATOM     26  C   UNL     1      44.140   3.082  11.073  0.00  0.00    +0.000 C 
ATOM     27  N   UNL     1      44.659   2.233  10.135  0.00  0.00    +0.000 N 
ATOM     28  O   UNL     1      43.026   2.870  11.538  0.00  0.00    +0.000 OA
ATOM     29  H   UNL     1      45.551   2.319   9.675  0.00  0.00    +0.000 HD
ATOM     30  H   UNL     1      44.078   1.448   9.864  0.00  0.00    +0.000 HD
ENDBRANCH  22  26
ENDBRANCH  17  18
ENDBRANCH   1  17
TORSDOF 5
ENDMDL
MODEL 9
REMARK VINA RESULT:    -6.716      3.627      6.586
REMARK INTER + INTRA:          -9.545
REMARK INTER:                  -8.409
REMARK INTRA:                  -1.136
REMARK UNBOUND:                -0.865
REMARK  Name = 
REMARK  7 active torsions:
REMARK  status: ('A' for Active; 'I' for Inactive)
REMARK    1  A    between atoms: C_1  and  C_2
REMARK    2  A    between atoms: C_4  and  C_5
REMARK    3  A    between atoms: C_5  and  C_6
REMARK    4  A    between atoms: C_5  and  C_7
REMARK    5  A    between atoms: C_7  and  N_8
REMARK    6  A    between atoms: C_12  and  C_13
REMARK    7  A    between atoms: C_19  and  C_20
REMARK                            x       y       z     vdW  Elec       q    Type
REMARK                         _______ _______ _______ _____ _____    ______ ____
ROOT
ATOM      1  C   UNL     1      49.390   8.088  14.958  0.00  0.00    +0.000 C 
ATOM      2  C   UNL     1      50.847   8.551  15.081  0.00  0.00    +0.000 C 
ENDROOT
BRANCH   1   6
ATOM      3  C   UNL     1      47.431   8.934  19.548  0.00  0.00    +0.000 C 
ATOM      4  C   UNL     1      47.937   7.976  18.509  0.00  0.00    +0.000 A 
ATOM      5  C   UNL     1      48.414   8.438  17.272  0.00  0.00    +0.000 A 
ATOM      6  C   UNL     1      48.878   7.544  16.297  0.00  0.00    +0.000 A 
ATOM      7  C   UNL     1      48.842   6.166  16.593  0.00  0.00    +0.000 A 
ATOM      8  C   UNL     1      48.346   5.675  17.824  0.00  0.00    +0.000 A 
ATOM      9  C   UNL     1      47.914   6.602  18.778  0.00  0.00    +0.000 A 
BRANCH   8  10
ATOM     10  C   UNL     1      48.295   4.172  18.084  0.00  0.00    +0.000 C 
ATOM     11  C   UNL     1      49.678   3.493  18.238  0.00  0.00    +0.000 C 
ATOM     12  C   UNL     1      50.204   2.748  17.008  0.00  0.00    +0.000 C 
ATOM     13  N   UNL     1      49.179   1.949  16.348  0.00  0.00    +0.000 NA
ATOM     14  C   UNL     1      48.085   2.812  15.910  0.00  0.00    +0.000 C 
ATOM     15  C   UNL     1      47.366   3.433  17.102  0.00  0.00    +0.000 C 
ATOM     16  H   UNL     1      48.819   1.248  16.999  0.00  0.00    +0.000 HD
ENDBRANCH   8  10
ENDBRANCH   1   6
BRANCH   1  17
ATOM     17  C   UNL     1      49.191   7.061  13.816  0.00  0.00    +0.000 C 
BRANCH  17  18
ATOM     18  N   UNL     1      48.182   7.494  12.832  0.00  0.00    +0.000 N 
ATOM     19  C   UNL     1      47.078   6.619  12.752  0.00  0.00    +0.000 A 
ATOM     20  C   UNL     1      46.074   6.881  11.822  0.00  0.00    +0.000 A 
ATOM     21  C   UNL     1      44.978   6.016  11.723  0.00  0.00    +0.000 A 
ATOM     22  C   UNL     1      44.902   4.904  12.563  0.00  0.00    +0.000 A 
ATOM     23  C   UNL     1      45.926   4.734  13.474  0.00  0.00    +0.000 A 
ATOM     24  N   UNL     1      46.999   5.560  13.582  0.00  0.00    +0.000 NA
ATOM     25  H   UNL     1      48.568   7.584  11.896  0.00  0.00    +0.000 HD
BRANCH  22  26
ATOM     26  C   UNL     1      43.749   3.975  12.449  0.00  0.00    +0.000 C 
ATOM     27  N   UNL     1      42.827   4.182  11.460  0.00  0.00    +0.000 N 
ATOM     28  O   UNL     1      43.609   3.040  13.228  0.00  0.00    +0.000 OA
ATOM     29  H   UNL     1      42.832   4.925  10.780  0.00  0.00    +0.000 HD
ATOM     30  H   UNL     1      42.052   3.529  11.420  0.00  0.00    +0.000 HD
ENDBRANCH  22  26
ENDBRANCH  17  18
ENDBRANCH   1  17
TORSDOF 5
ENDMDL
