MODEL 1
REMARK VINA RESULT:    -7.980      0.000      0.000
REMARK INTER + INTRA:         -11.780
REMARK INTER:                 -10.780
REMARK INTRA:                  -1.000
REMARK UNBOUND:                -1.000
REMARK  Name = 
REMARK  7 active torsions:
REMARK  status: ('A' for Active; 'I' for Inactive)
REMARK    1  A    between atoms: C_1  and  C_2
REMARK    2  A    between atoms: C_2  and  N_3
REMARK    3  A    between atoms: C_2  and  C_10
REMARK    4  A    between atoms: N_3  and  C_4
REMARK    5  A    between atoms: C_13  and  C_14
REMARK    6  A    between atoms: C_14  and  N_15
REMARK    7  A    between atoms: C_16  and  C_18
REMARK                            x       y       z     vdW  Elec       q    Type
REMARK                         _______ _______ _______ _____ _____    ______ ____
ROOT
ATOM      1  C   UNL     1      44.965   5.425  11.723  0.00  0.00    +0.000 A 
ATOM      2  C   UNL     1      45.281   4.776  12.929  0.00  0.00    +0.000 A 
ATOM      3  C   UNL     1      46.428   5.142  13.655  0.00  0.00    +0.000 A 
ATOM      4  C   UNL     1      47.254   6.189  13.229  0.00  0.00    +0.000 A 
ATOM      5  C   UNL     1      46.922   6.850  12.045  0.00  0.00    +0.000 A 
ATOM      6  C   UNL     1      45.811   6.467  11.305  0.00  0.00    +0.000 A 
ENDROOT
BRANCH   1   8
ATOM      7  C   UNL     1      42.424   5.239  11.783  0.00  0.00    +0.000 C 
ATOM      8  C   UNL     1      43.702   5.086  10.934  0.00  0.00    +0.000 C 
BRANCH   8   9
ATOM      9  N   UNL     1      43.699   3.757  10.300  0.00  0.00    +0.000 NA
ATOM     10  H   UNL     1      43.586   3.061  11.041  0.00  0.00    +0.000 HD
BRANCH   9  11
ATOM     11  C   UNL     1      44.919   3.387   9.561  0.00  0.00    +0.000 C 
ATOM     12  C   UNL     1      45.208   4.221   8.313  0.00  0.00    +0.000 C 
ATOM     13  C   UNL     1      46.406   3.683   7.565  0.00  0.00    +0.000 C 
ATOM     14  O   UNL     1      46.190   2.330   7.197  0.00  0.00    +0.000 OA
ATOM     15  C   UNL     1      45.995   1.489   8.333  0.00  0.00    +0.000 C 
ATOM     16  C   UNL     1      44.781   1.919   9.142  0.00  0.00    +0.000 C 
ENDBRANCH   9  11
ENDBRANCH   8   9
ENDBRANCH   1   8
BRANCH   4  17
ATOM     17  C   UNL     1      48.474   6.616  13.993  0.00  0.00    +0.000 C 
BRANCH  17  18
ATOM     18  N   UNL     1      48.202   6.784  15.403  0.00  0.00    +0.000 N 
ATOM     19  C   UNL     1      49.147   6.560  16.361  0.00  0.00    +0.000 C 
ATOM     20  O   UNL     1      50.308   6.209  16.094  0.00  0.00    +0.000 OA
ATOM     21  H   UNL     1      47.222   6.731  15.677  0.00  0.00    +0.000 HD
BRANCH  19  22
ATOM     22  C   UNL     1      48.717   6.809  17.744  0.00  0.00    +0.000 A 
ATOM     23  C   UNL     1      48.334   8.078  18.138  0.00  0.00    +0.000 A 
ATOM     24  S   UNL     1      47.819   8.174  19.769  0.00  0.00    +0.000 S 
ATOM     25  C   UNL     1      48.142   6.520  20.020  0.00  0.00    +0.000 A 
ATOM     26  N   UNL     1      47.957   5.940  21.236  0.00  0.00    +0.000 NA
ATOM     27  C   UNL     1      48.268   4.687  21.285  0.00  0.00    +0.000 A 
ATOM     28  N   UNL     1      48.735   3.955  20.226  0.00  0.00    +0.000 N 
ATOM     29  C   UNL     1      48.890   4.486  18.970  0.00  0.00    +0.000 A 
ATOM     30  O   UNL     1      49.225   3.782  18.019  0.00  0.00    +0.000 OA
ATOM     31  C   UNL     1      48.599   5.909  18.867  0.00  0.00    +0.000 A 
ATOM     32  H   UNL     1      48.933   2.971  20.317  0.00  0.00    +0.000 HD
ENDBRANCH  19  22
ENDBRANCH  17  18
ENDBRANCH   4  17
TORSDOF 6
ENDMDL
MODEL 2
REMARK VINA RESULT:    -7.610      1.277      1.944
REMARK INTER + INTRA:         -11.279
REMARK INTER:                 -10.096
REMARK INTRA:                  -1.183
REMARK UNBOUND:                -1.000
REMARK  Name = 
REMARK  7 active torsions:
REMARK  status: ('A' for Active; 'I' for Inactive)
REMARK    1  A    between atoms: C_1  and  C_2
REMARK    2  A    between atoms: C_2  and  N_3
REMARK    3  A    between atoms: C_2  and  C_10
REMARK    4  A    between atoms: N_3  and  C_4
REMARK    5  A    between atoms: C_13  and  C_14
REMARK    6  A    between atoms: C_14  and  N_15
REMARK    7  A    between atoms: C_16  and  C_18
REMARK                            x       y       z     vdW  Elec       q    Type
REMARK                         _______ _______ _______ _____ _____    ______ ____
ROOT
ATOM      1  C   UNL     1      45.007   5.552  11.769  0.00  0.00    +0.000 A 
ATOM      2  C   UNL     1      45.427   4.791  12.875  0.00  0.00    +0.000 A 
ATOM      3  C   UNL     1      46.529   5.204  13.644  0.00  0.00    +0.000 A 
ATOM      4  C   UNL     1      47.204   6.399  13.366  0.00  0.00    +0.000 A 
ATOM      5  C   UNL     1      46.766   7.166  12.285  0.00  0.00    +0.000 A 
ATOM      6  C   UNL     1      45.701   6.744  11.499  0.00  0.00    +0.000 A 
ENDROOT
BRANCH   1   8
ATOM      7  C   UNL     1      42.465   5.375  11.709  0.00  0.00    +0.000 C 
ATOM      8  C   UNL     1      43.784   5.160  10.941  0.00  0.00    +0.000 C 
BRANCH   8   9
ATOM      9  N   UNL     1      43.808   3.790  10.403  0.00  0.00    +0.000 NA
ATOM     10  H   UNL     1      43.776   3.146  11.197  0.00  0.00    +0.000 HD
BRANCH   9  11
ATOM     11  C   UNL     1      44.997   3.422   9.613  0.00  0.00    +0.000 C 
ATOM     12  C   UNL     1      45.272   4.303   8.395  0.00  0.00    +0.000 C 
ATOM     13  C   UNL     1      46.433   3.769   7.590  0.00  0.00    +0.000 C 
ATOM     14  O   UNL     1      46.172   2.439   7.168  0.00  0.00    +0.000 OA
ATOM     15  C   UNL     1      45.986   1.554   8.272  0.00  0.00    +0.000 C 
ATOM     16  C   UNL     1      44.807   1.978   9.134  0.00  0.00    +0.000 C 
ENDBRANCH   9  11
ENDBRANCH   8   9
ENDBRANCH   1   8
BRANCH   4  17
ATOM     17  C   UNL     1      48.371   6.875  14.182  0.00  0.00    +0.000 C 
BRANCH  17  18
ATOM     18  N   UNL     1      48.210   6.576  15.587  0.00  0.00    +0.000 N 
ATOM     19  C   UNL     1      49.263   6.233  16.386  0.00  0.00    +0.000 C 
ATOM     20  O   UNL     1      50.430   6.165  15.970  0.00  0.00    +0.000 OA
ATOM     21  H   UNL     1      47.277   6.290  15.878  0.00  0.00    +0.000 HD
BRANCH  19  22
ATOM     22  C   UNL     1      48.933   5.992  17.798  0.00  0.00    +0.000 A 
ATOM     23  C   UNL     1      49.175   4.757  18.369  0.00  0.00    +0.000 A 
ATOM     24  S   UNL     1      48.774   4.670  20.033  0.00  0.00    +0.000 S 
ATOM     25  C   UNL     1      48.212   6.278  20.031  0.00  0.00    +0.000 A 
ATOM     26  N   UNL     1      47.682   6.842  21.150  0.00  0.00    +0.000 NA
ATOM     27  C   UNL     1      47.273   8.058  20.995  0.00  0.00    +0.000 A 
ATOM     28  N   UNL     1      47.357   8.768  19.826  0.00  0.00    +0.000 N 
ATOM     29  C   UNL     1      47.928   8.256  18.688  0.00  0.00    +0.000 A 
ATOM     30  O   UNL     1      48.070   8.948  17.682  0.00  0.00    +0.000 OA
ATOM     31  C   UNL     1      48.364   6.871  18.792  0.00  0.00    +0.000 A 
ATOM     32  H   UNL     1      47.047   9.726  19.772  0.00  0.00    +0.000 HD
ENDBRANCH  19  22
ENDBRANCH  17  18
ENDBRANCH   4  17
TORSDOF 6
ENDMDL
MODEL 3
REMARK VINA RESULT:    -7.393      2.273      2.373
REMARK INTER + INTRA:         -10.985
REMARK INTER:                 -10.005
REMARK INTRA:                  -0.981
REMARK UNBOUND:                -1.000
REMARK  Name = 
REMARK  7 active torsions:
REMARK  status: ('A' for Active; 'I' for Inactive)
REMARK    1  A    between atoms: C_1  and  C_2
REMARK    2  A    between atoms: C_2  and  N_3
REMARK    3  A    between atoms: C_2  and  C_10
REMARK    4  A    between atoms: N_3  and  C_4
REMARK    5  A    between atoms: C_13  and  C_14
REMARK    6  A    between atoms: C_14  and  N_15
REMARK    7  A    between atoms: C_16  and  C_18
REMARK                            x       y       z     vdW  Elec       q    Type
REMARK                         _______ _______ _______ _____ _____    ______ ____
ROOT
ATOM      1  C   UNL     1      44.624   5.531  11.486  0.00  0.00    +0.000 A 
ATOM      2  C   UNL     1      45.593   4.909  12.294  0.00  0.00    +0.000 A 
ATOM      3  C   UNL     1      46.547   5.680  12.980  0.00  0.00    +0.000 A 
ATOM      4  C   UNL     1      46.530   7.080  12.922  0.00  0.00    +0.000 A 
ATOM      5  C   UNL     1      45.549   7.694  12.142  0.00  0.00    +0.000 A 
ATOM      6  C   UNL     1      44.627   6.935  11.432  0.00  0.00    +0.000 A 
ENDROOT
BRANCH   1   8
ATOM      7  C   UNL     1      43.261   3.377  11.454  0.00  0.00    +0.000 C 
ATOM      8  C   UNL     1      43.543   4.728  10.765  0.00  0.00    +0.000 C 
BRANCH   8   9
ATOM      9  N   UNL     1      43.791   4.493   9.333  0.00  0.00    +0.000 NA
ATOM     10  H   UNL     1      43.025   3.916   8.978  0.00  0.00    +0.000 HD
BRANCH   9  11
ATOM     11  C   UNL     1      45.039   3.786   8.996  0.00  0.00    +0.000 C 
ATOM     12  C   UNL     1      45.753   4.281   7.739  0.00  0.00    +0.000 C 
ATOM     13  C   UNL     1      46.948   3.414   7.416  0.00  0.00    +0.000 C 
ATOM     14  O   UNL     1      46.545   2.065   7.238  0.00  0.00    +0.000 OA
ATOM     15  C   UNL     1      45.943   1.526   8.414  0.00  0.00    +0.000 C 
ATOM     16  C   UNL     1      44.697   2.304   8.808  0.00  0.00    +0.000 C 
ENDBRANCH   9  11
ENDBRANCH   8   9
ENDBRANCH   1   8
BRANCH   4  17
ATOM     17  C   UNL     1      47.523   7.929  13.661  0.00  0.00    +0.000 C 
BRANCH  17  18
ATOM     18  N   UNL     1      48.455   7.135  14.429  0.00  0.00    +0.000 N 
ATOM     19  C   UNL     1      48.898   7.518  15.661  0.00  0.00    +0.000 C 
ATOM     20  O   UNL     1      48.528   8.564  16.216  0.00  0.00    +0.000 OA
ATOM     21  H   UNL     1      49.027   6.481  13.897  0.00  0.00    +0.000 HD
BRANCH  19  22
ATOM     22  C   UNL     1      49.817   6.580  16.322  0.00  0.00    +0.000 A 
ATOM     23  C   UNL     1      51.118   6.959  16.600  0.00  0.00    +0.000 A 
ATOM     24  S   UNL     1      52.032   5.759  17.414  0.00  0.00    +0.000 S 
ATOM     25  C   UNL     1      50.725   4.667  17.375  0.00  0.00    +0.000 A 
ATOM     26  N   UNL     1      50.840   3.408  17.877  0.00  0.00    +0.000 NA
ATOM     27  C   UNL     1      49.778   2.684  17.756  0.00  0.00    +0.000 A 
ATOM     28  N   UNL     1      48.604   3.105  17.190  0.00  0.00    +0.000 N 
ATOM     29  C   UNL     1      48.427   4.381  16.715  0.00  0.00    +0.000 A 
ATOM     30  O   UNL     1      47.334   4.756  16.295  0.00  0.00    +0.000 OA
ATOM     31  C   UNL     1      49.609   5.228  16.784  0.00  0.00    +0.000 A 
ATOM     32  H   UNL     1      47.796   2.503  17.149  0.00  0.00    +0.000 HD
ENDBRANCH  19  22
ENDBRANCH  17  18
ENDBRANCH   4  17
TORSDOF 6
ENDMDL
MODEL 4
REMARK VINA RESULT:    -7.111      4.189      9.766
REMARK INTER + INTRA:         -10.605
REMARK INTER:                  -9.424
REMARK INTRA:                  -1.181
REMARK UNBOUND:                -1.000
REMARK  Name = 
REMARK  7 active torsions:
REMARK  status: ('A' for Active; 'I' for Inactive)
REMARK    1  A    between atoms: C_1  and  C_2
REMARK    2  A    between atoms: C_2  and  N_3
REMARK    3  A    between atoms: C_2  and  C_10
REMARK    4  A    between atoms: N_3  and  C_4
REMARK    5  A    between atoms: C_13  and  C_14
REMARK    6  A    between atoms: C_14  and  N_15
REMARK    7  A    between atoms: C_16  and  C_18
REMARK                            x       y       z     vdW  Elec       q    Type
REMARK                         _______ _______ _______ _____ _____    ______ ____
ROOT
ATOM      1  C   UNL     1      51.401   4.424  17.645  0.00  0.00    +0.000 A 
ATOM      2  C   UNL     1      50.970   3.087  17.567  0.00  0.00    +0.000 A 
ATOM      3  C   UNL     1      49.625   2.790  17.283  0.00  0.00    +0.000 A 
ATOM      4  C   UNL     1      48.695   3.804  17.022  0.00  0.00    +0.000 A 
ATOM      5  C   UNL     1      49.133   5.128  17.072  0.00  0.00    +0.000 A 
ATOM      6  C   UNL     1      50.452   5.429  17.389  0.00  0.00    +0.000 A 
ENDROOT
BRANCH   1   8
ATOM      7  C   UNL     1      53.211   6.203  17.415  0.00  0.00    +0.000 C 
ATOM      8  C   UNL     1      52.863   4.783  17.903  0.00  0.00    +0.000 C 
BRANCH   8   9
ATOM      9  N   UNL     1      53.845   3.834  17.353  0.00  0.00    +0.000 NA
ATOM     10  H   UNL     1      53.335   3.159  16.779  0.00  0.00    +0.000 HD
BRANCH   9  11
ATOM     11  C   UNL     1      54.613   3.049  18.337  0.00  0.00    +0.000 C 
ATOM     12  C   UNL     1      54.412   1.536  18.268  0.00  0.00    +0.000 C 
ATOM     13  C   UNL     1      55.143   0.839  19.392  0.00  0.00    +0.000 C 
ATOM     14  O   UNL     1      54.696   1.325  20.648  0.00  0.00    +0.000 OA
ATOM     15  C   UNL     1      54.935   2.724  20.798  0.00  0.00    +0.000 C 
ATOM     16  C   UNL     1      54.206   3.530  19.734  0.00  0.00    +0.000 C 
ENDBRANCH   9  11
ENDBRANCH   8   9
ENDBRANCH   1   8
BRANCH   4  17
ATOM     17  C   UNL     1      47.258   3.515  16.697  0.00  0.00    +0.000 C 
BRANCH  17  18
ATOM     18  N   UNL     1      46.725   4.437  15.719  0.00  0.00    +0.000 N 
ATOM     19  C   UNL     1      46.771   4.186  14.379  0.00  0.00    +0.000 C 
ATOM     20  O   UNL     1      47.259   3.149  13.903  0.00  0.00    +0.000 OA
ATOM     21  H   UNL     1      46.638   5.406  16.021  0.00  0.00    +0.000 HD
BRANCH  19  22
ATOM     22  C   UNL     1      46.156   5.210  13.522  0.00  0.00    +0.000 A 
ATOM     23  C   UNL     1      46.822   6.395  13.265  0.00  0.00    +0.000 A 
ATOM     24  S   UNL     1      45.978   7.451  12.211  0.00  0.00    +0.000 S 
ATOM     25  C   UNL     1      44.663   6.373  12.105  0.00  0.00    +0.000 A 
ATOM     26  N   UNL     1      43.555   6.681  11.378  0.00  0.00    +0.000 NA
ATOM     27  C   UNL     1      42.627   5.782  11.410  0.00  0.00    +0.000 A 
ATOM     28  N   UNL     1      42.710   4.596  12.090  0.00  0.00    +0.000 N 
ATOM     29  C   UNL     1      43.828   4.223  12.794  0.00  0.00    +0.000 A 
ATOM     30  O   UNL     1      43.907   3.114  13.319  0.00  0.00    +0.000 OA
ATOM     31  C   UNL     1      44.888   5.220  12.832  0.00  0.00    +0.000 A 
ATOM     32  H   UNL     1      41.965   3.918  12.053  0.00  0.00    +0.000 HD
ENDBRANCH  19  22
ENDBRANCH  17  18
ENDBRANCH   4  17
TORSDOF 6
ENDMDL
MODEL 5
REMARK VINA RESULT:    -7.102      4.085      5.435
REMARK INTER + INTRA:         -10.593
REMARK INTER:                  -9.783
REMARK INTRA:                  -0.810
REMARK UNBOUND:                -1.000
REMARK  Name = 
REMARK  7 active torsions:
REMARK  status: ('A' for Active; 'I' for Inactive)
REMARK    1  A    between atoms: C_1  and  C_2
REMARK    2  A    between atoms: C_2  and  N_3
REMARK    3  A    between atoms: C_2  and  C_10
REMARK    4  A    between atoms: N_3  and  C_4
REMARK    5  A    between atoms: C_13  and  C_14
REMARK    6  A    between atoms: C_14  and  N_15
REMARK    7  A    between atoms: C_16  and  C_18
REMARK                            x       y       z     vdW  Elec       q    Type
REMARK                         _______ _______ _______ _____ _____    ______ ____
ROOT
ATOM      1  C   UNL     1      45.077   7.726  11.968  0.00  0.00    +0.000 A 
ATOM      2  C   UNL     1      46.343   7.708  12.580  0.00  0.00    +0.000 A 
ATOM      3  C   UNL     1      46.775   6.572  13.286  0.00  0.00    +0.000 A 
ATOM      4  C   UNL     1      45.988   5.417  13.358  0.00  0.00    +0.000 A 
ATOM      5  C   UNL     1      44.743   5.428  12.726  0.00  0.00    +0.000 A 
ATOM      6  C   UNL     1      44.296   6.561  12.058  0.00  0.00    +0.000 A 
ENDROOT
BRANCH   1   8
ATOM      7  C   UNL     1      44.914  10.266  11.840  0.00  0.00    +0.000 C 
ATOM      8  C   UNL     1      44.595   8.924  11.152  0.00  0.00    +0.000 C 
BRANCH   8   9
ATOM      9  N   UNL     1      43.169   8.899  10.789  0.00  0.00    +0.000 NA
ATOM     10  H   UNL     1      43.091   8.448   9.874  0.00  0.00    +0.000 HD
BRANCH   9  11
ATOM     11  C   UNL     1      42.505  10.209  10.668  0.00  0.00    +0.000 C 
ATOM     12  C   UNL     1      41.012  10.219  10.997  0.00  0.00    +0.000 C 
ATOM     13  C   UNL     1      40.406  11.576  10.725  0.00  0.00    +0.000 C 
ATOM     14  O   UNL     1      40.599  11.939   9.367  0.00  0.00    +0.000 OA
ATOM     15  C   UNL     1      41.982  12.024   9.026  0.00  0.00    +0.000 C 
ATOM     16  C   UNL     1      42.687  10.691   9.225  0.00  0.00    +0.000 C 
ENDBRANCH   9  11
ENDBRANCH   8   9
ENDBRANCH   1   8
BRANCH   4  17
ATOM     17  C   UNL     1      46.432   4.182  14.089  0.00  0.00    +0.000 C 
BRANCH  17  18
ATOM     18  N   UNL     1      47.496   4.458  15.027  0.00  0.00    +0.000 N 
ATOM     19  C   UNL     1      47.447   4.050  16.328  0.00  0.00    +0.000 C 
ATOM     20  O   UNL     1      46.496   3.403  16.796  0.00  0.00    +0.000 OA
ATOM     21  H   UNL     1      48.101   5.245  14.796  0.00  0.00    +0.000 HD
BRANCH  19  22
ATOM     22  C   UNL     1      48.625   4.383  17.141  0.00  0.00    +0.000 A 
ATOM     23  C   UNL     1      48.684   5.585  17.822  0.00  0.00    +0.000 A 
ATOM     24  S   UNL     1      50.108   5.786  18.755  0.00  0.00    +0.000 S 
ATOM     25  C   UNL     1      50.719   4.284  18.234  0.00  0.00    +0.000 A 
ATOM     26  N   UNL     1      51.944   3.844  18.630  0.00  0.00    +0.000 NA
ATOM     27  C   UNL     1      52.289   2.701  18.136  0.00  0.00    +0.000 A 
ATOM     28  N   UNL     1      51.516   1.949  17.291  0.00  0.00    +0.000 N 
ATOM     29  C   UNL     1      50.255   2.331  16.905  0.00  0.00    +0.000 A 
ATOM     30  O   UNL     1      49.550   1.593  16.219  0.00  0.00    +0.000 OA
ATOM     31  C   UNL     1      49.834   3.635  17.395  0.00  0.00    +0.000 A 
ATOM     32  H   UNL     1      51.825   1.049  16.961  0.00  0.00    +0.000 HD
ENDBRANCH  19  22
ENDBRANCH  17  18
ENDBRANCH   4  17
TORSDOF 6
ENDMDL
MODEL 6
REMARK VINA RESULT:    -6.997      1.792      2.260
REMARK INTER + INTRA:         -10.452
REMARK INTER:                  -9.228
REMARK INTRA:                  -1.224
REMARK UNBOUND:                -1.000
REMARK  Name = 
REMARK  7 active torsions:
REMARK  status: ('A' for Active; 'I' for Inactive)
REMARK    1  A    between atoms: C_1  and  C_2
REMARK    2  A    between atoms: C_2  and  N_3
REMARK    3  A    between atoms: C_2  and  C_10
REMARK    4  A    between atoms: N_3  and  C_4
REMARK    5  A    between atoms: C_13  and  C_14
REMARK    6  A    between atoms: C_14  and  N_15
REMARK    7  A    between atoms: C_16  and  C_18
REMARK                            x       y       z     vdW  Elec       q    Type
REMARK                         _______ _______ _______ _____ _____    ______ ____
ROOT
ATOM      1  C   UNL     1      45.306   5.209  11.515  0.00  0.00    +0.000 A 
ATOM      2  C   UNL     1      45.783   4.667  12.721  0.00  0.00    +0.000 A 
ATOM      3  C   UNL     1      46.847   5.279  13.405  0.00  0.00    +0.000 A 
ATOM      4  C   UNL     1      47.426   6.465  12.937  0.00  0.00    +0.000 A 
ATOM      5  C   UNL     1      46.932   7.017  11.754  0.00  0.00    +0.000 A 
ATOM      6  C   UNL     1      45.905   6.395  11.055  0.00  0.00    +0.000 A 
ENDROOT
BRANCH   1   8
ATOM      7  C   UNL     1      42.837   4.588  11.625  0.00  0.00    +0.000 C 
ATOM      8  C   UNL     1      44.120   4.598  10.771  0.00  0.00    +0.000 C 
BRANCH   8   9
ATOM      9  N   UNL     1      44.350   3.247  10.234  0.00  0.00    +0.000 NA
ATOM     10  H   UNL     1      44.546   2.629  11.025  0.00  0.00    +0.000 HD
BRANCH   9  11
ATOM     11  C   UNL     1      45.479   3.101   9.299  0.00  0.00    +0.000 C 
ATOM     12  C   UNL     1      45.458   4.042   8.095  0.00  0.00    +0.000 C 
ATOM     13  C   UNL     1      46.586   3.729   7.140  0.00  0.00    +0.000 C 
ATOM     14  O   UNL     1      46.499   2.383   6.698  0.00  0.00    +0.000 OA
ATOM     15  C   UNL     1      46.596   1.457   7.778  0.00  0.00    +0.000 C 
ATOM     16  C   UNL     1      45.475   1.657   8.786  0.00  0.00    +0.000 C 
ENDBRANCH   9  11
ENDBRANCH   8   9
ENDBRANCH   1   8
BRANCH   4  17
ATOM     17  C   UNL     1      48.550   7.153  13.657  0.00  0.00    +0.000 C 
BRANCH  17  18
ATOM     18  N   UNL     1      48.908   6.474  14.882  0.00  0.00    +0.000 N 
ATOM     19  C   UNL     1      48.855   7.087  16.099  0.00  0.00    +0.000 C 
ATOM     20  O   UNL     1      48.485   8.263  16.246  0.00  0.00    +0.000 OA
ATOM     21  H   UNL     1      49.520   5.665  14.781  0.00  0.00    +0.000 HD
BRANCH  19  22
ATOM     22  C   UNL     1      49.220   6.247  17.248  0.00  0.00    +0.000 A 
ATOM     23  C   UNL     1      48.255   5.848  18.155  0.00  0.00    +0.000 A 
ATOM     24  S   UNL     1      48.850   4.834  19.402  0.00  0.00    +0.000 S 
ATOM     25  C   UNL     1      50.439   4.939  18.796  0.00  0.00    +0.000 A 
ATOM     26  N   UNL     1      51.476   4.324  19.425  0.00  0.00    +0.000 NA
ATOM     27  C   UNL     1      52.627   4.511  18.868  0.00  0.00    +0.000 A 
ATOM     28  N   UNL     1      52.835   5.246  17.731  0.00  0.00    +0.000 N 
ATOM     29  C   UNL     1      51.812   5.841  17.036  0.00  0.00    +0.000 A 
ATOM     30  O   UNL     1      52.018   6.418  15.971  0.00  0.00    +0.000 OA
ATOM     31  C   UNL     1      50.497   5.703  17.646  0.00  0.00    +0.000 A 
ATOM     32  H   UNL     1      53.753   5.332  17.324  0.00  0.00    +0.000 HD
ENDBRANCH  19  22
ENDBRANCH  17  18
ENDBRANCH   4  17
TORSDOF 6
ENDMDL
MODEL 7
REMARK VINA RESULT:    -6.946      2.480      3.241
REMARK INTER + INTRA:         -10.382
REMARK INTER:                  -9.033
REMARK INTRA:                  -1.350
REMARK UNBOUND:                -1.000
REMARK  Name = 
REMARK  7 active torsions:
REMARK  status: ('A' for Active; 'I' for Inactive)
REMARK    1  A    between atoms: C_1  and  C_2
REMARK    2  A    between atoms: C_2  and  N_3
REMARK    3  A    between atoms: C_2  and  C_10
REMARK    4  A    between atoms: N_3  and  C_4
REMARK    5  A    between atoms: C_13  and  C_14
REMARK    6  A    between atoms: C_14  and  N_15
REMARK    7  A    between atoms: C_16  and  C_18
REMARK                            x       y       z     vdW  Elec       q    Type
REMARK                         _______ _______ _______ _____ _____    ______ ____
ROOT
ATOM      1  C   UNL     1      45.650   7.931  11.798  0.00  0.00    +0.000 A 
ATOM      2  C   UNL     1      45.858   8.789  12.892  0.00  0.00    +0.000 A 
ATOM      3  C   UNL     1      47.088   8.789  13.572  0.00  0.00    +0.000 A 
ATOM      4  C   UNL     1      48.151   7.979  13.153  0.00  0.00    +0.000 A 
ATOM      5  C   UNL     1      47.951   7.149  12.049  0.00  0.00    +0.000 A 
ATOM      6  C   UNL     1      46.724   7.118  11.397  0.00  0.00    +0.000 A 
ENDROOT
BRANCH   1   8
ATOM      7  C   UNL     1      43.680   9.331  10.988  0.00  0.00    +0.000 C 
ATOM      8  C   UNL     1      44.344   7.939  11.006  0.00  0.00    +0.000 C 
BRANCH   8   9
ATOM      9  N   UNL     1      43.350   6.940  11.431  0.00  0.00    +0.000 NA
ATOM     10  H   UNL     1      43.052   7.184  12.378  0.00  0.00    +0.000 HD
BRANCH   9  11
ATOM     11  C   UNL     1      43.815   5.542  11.485  0.00  0.00    +0.000 C 
ATOM     12  C   UNL     1      43.664   4.751  10.187  0.00  0.00    +0.000 C 
ATOM     13  C   UNL     1      44.053   3.304  10.384  0.00  0.00    +0.000 C 
ATOM     14  O   UNL     1      43.258   2.713  11.400  0.00  0.00    +0.000 OA
ATOM     15  C   UNL     1      43.424   3.366  12.658  0.00  0.00    +0.000 C 
ATOM     16  C   UNL     1      43.018   4.830  12.583  0.00  0.00    +0.000 C 
ENDBRANCH   9  11
ENDBRANCH   8   9
ENDBRANCH   1   8
BRANCH   4  17
ATOM     17  C   UNL     1      49.483   7.973  13.847  0.00  0.00    +0.000 C 
BRANCH  17  18
ATOM     18  N   UNL     1      49.518   7.037  14.947  0.00  0.00    +0.000 N 
ATOM     19  C   UNL     1      49.272   7.414  16.236  0.00  0.00    +0.000 C 
ATOM     20  O   UNL     1      48.989   8.579  16.555  0.00  0.00    +0.000 OA
ATOM     21  H   UNL     1      50.061   6.188  14.793  0.00  0.00    +0.000 HD
BRANCH  19  22
ATOM     22  C   UNL     1      49.316   6.333  17.231  0.00  0.00    +0.000 A 
ATOM     23  C   UNL     1      50.108   6.455  18.358  0.00  0.00    +0.000 A 
ATOM     24  S   UNL     1      50.000   5.122  19.430  0.00  0.00    +0.000 S 
ATOM     25  C   UNL     1      48.923   4.310  18.390  0.00  0.00    +0.000 A 
ATOM     26  N   UNL     1      48.454   3.068  18.689  0.00  0.00    +0.000 NA
ATOM     27  C   UNL     1      47.666   2.564  17.797  0.00  0.00    +0.000 A 
ATOM     28  N   UNL     1      47.293   3.193  16.639  0.00  0.00    +0.000 N 
ATOM     29  C   UNL     1      47.701   4.464  16.321  0.00  0.00    +0.000 A 
ATOM     30  O   UNL     1      47.277   5.036  15.319  0.00  0.00    +0.000 OA
ATOM     31  C   UNL     1      48.630   5.063  17.269  0.00  0.00    +0.000 A 
ATOM     32  H   UNL     1      46.650   2.762  15.993  0.00  0.00    +0.000 HD
ENDBRANCH  19  22
ENDBRANCH  17  18
ENDBRANCH   4  17
TORSDOF 6
ENDMDL
MODEL 8
REMARK VINA RESULT:    -6.880      3.779      9.120
REMARK INTER + INTRA:         -10.293
REMARK INTER:                  -9.032
REMARK INTRA:                  -1.261
REMARK UNBOUND:                -1.000
REMARK  Name = 
REMARK  7 active torsions:
REMARK  status: ('A' for Active; 'I' for Inactive)
REMARK    1  A    between atoms: C_1  and  C_2
REMARK    2  A    between atoms: C_2  and  N_3
REMARK    3  A    between atoms: C_2  and  C_10
REMARK    4  A    between atoms: N_3  and  C_4
REMARK    5  A    between atoms: C_13  and  C_14
REMARK    6  A    between atoms: C_14  and  N_15
REMARK    7  A    between atoms: C_16  and  C_18
REMARK                            x       y       z     vdW  Elec       q    Type
REMARK                         _______ _______ _______ _____ _____    ______ ____
ROOT
ATOM      1  C   UNL     1      49.612   5.214  17.289  0.00  0.00    +0.000 A 
ATOM      2  C   UNL     1      48.434   4.742  16.683  0.00  0.00    +0.000 A 
ATOM      3  C   UNL     1      47.910   5.388  15.550  0.00  0.00    +0.000 A 
ATOM      4  C   UNL     1      48.565   6.480  14.966  0.00  0.00    +0.000 A 
ATOM      5  C   UNL     1      49.749   6.928  15.554  0.00  0.00    +0.000 A 
ATOM      6  C   UNL     1      50.251   6.316  16.696  0.00  0.00    +0.000 A 
ENDROOT
BRANCH   1   8
ATOM      7  C   UNL     1      49.644   4.998  19.829  0.00  0.00    +0.000 C 
ATOM      8  C   UNL     1      50.236   4.508  18.492  0.00  0.00    +0.000 C 
BRANCH   8   9
ATOM      9  N   UNL     1      51.704   4.578  18.564  0.00  0.00    +0.000 NA
ATOM     10  H   UNL     1      52.006   5.352  17.969  0.00  0.00    +0.000 HD
BRANCH   9  11
ATOM     11  C   UNL     1      52.435   3.385  18.102  0.00  0.00    +0.000 C 
ATOM     12  C   UNL     1      51.565   2.176  17.756  0.00  0.00    +0.000 C 
ATOM     13  C   UNL     1      52.416   0.975  17.413  0.00  0.00    +0.000 C 
ATOM     14  O   UNL     1      53.274   0.653  18.497  0.00  0.00    +0.000 OA
ATOM     15  C   UNL     1      54.166   1.721  18.810  0.00  0.00    +0.000 C 
ATOM     16  C   UNL     1      53.410   2.978  19.212  0.00  0.00    +0.000 C 
ENDBRANCH   9  11
ENDBRANCH   8   9
ENDBRANCH   1   8
BRANCH   4  17
ATOM     17  C   UNL     1      48.039   7.177  13.744  0.00  0.00    +0.000 C 
BRANCH  17  18
ATOM     18  N   UNL     1      47.302   6.282  12.882  0.00  0.00    +0.000 N 
ATOM     19  C   UNL     1      46.410   6.732  11.953  0.00  0.00    +0.000 C 
ATOM     20  O   UNL     1      46.176   7.938  11.773  0.00  0.00    +0.000 OA
ATOM     21  H   UNL     1      47.203   5.324  13.214  0.00  0.00    +0.000 HD
BRANCH  19  22
ATOM     22  C   UNL     1      45.769   5.693  11.135  0.00  0.00    +0.000 A 
ATOM     23  C   UNL     1      45.901   5.709   9.759  0.00  0.00    +0.000 A 
ATOM     24  S   UNL     1      45.129   4.398   8.971  0.00  0.00    +0.000 S 
ATOM     25  C   UNL     1      44.545   3.789  10.451  0.00  0.00    +0.000 A 
ATOM     26  N   UNL     1      43.758   2.680  10.497  0.00  0.00    +0.000 NA
ATOM     27  C   UNL     1      43.368   2.350  11.684  0.00  0.00    +0.000 A 
ATOM     28  N   UNL     1      43.703   3.018  12.832  0.00  0.00    +0.000 N 
ATOM     29  C   UNL     1      44.533   4.111  12.837  0.00  0.00    +0.000 A 
ATOM     30  O   UNL     1      44.887   4.635  13.891  0.00  0.00    +0.000 OA
ATOM     31  C   UNL     1      44.965   4.557  11.520  0.00  0.00    +0.000 A 
ATOM     32  H   UNL     1      43.392   2.696  13.735  0.00  0.00    +0.000 HD
ENDBRANCH  19  22
ENDBRANCH  17  18
ENDBRANCH   4  17
TORSDOF 6
ENDMDL
MODEL 9
REMARK VINA RESULT:    -6.651      4.188      5.753
REMARK INTER + INTRA:          -9.984
REMARK INTER:                  -8.824
REMARK INTRA:                  -1.160
REMARK UNBOUND:                -1.000
REMARK  Name = 
REMARK  7 active torsions:
REMARK  status: ('A' for Active; 'I' for Inactive)
REMARK    1  A    between atoms: C_1  and  C_2
REMARK    2  A    between atoms: C_2  and  N_3
REMARK    3  A    between atoms: C_2  and  C_10
REMARK    4  A    between atoms: N_3  and  C_4
REMARK    5  A    between atoms: C_13  and  C_14
REMARK    6  A    between atoms: C_14  and  N_15
REMARK    7  A    between atoms: C_16  and  C_18
REMARK                            x       y       z     vdW  Elec       q    Type
REMARK                         _______ _______ _______ _____ _____    ______ ____
ROOT
ATOM      1  C   UNL     1      44.735   8.323  11.571  0.00  0.00    +0.000 A 
ATOM      2  C   UNL     1      45.921   8.292  12.327  0.00  0.00    +0.000 A 
ATOM      3  C   UNL     1      46.310   7.116  12.991  0.00  0.00    +0.000 A 
ATOM      4  C   UNL     1      45.562   5.937  12.880  0.00  0.00    +0.000 A 
ATOM      5  C   UNL     1      44.401   5.964  12.107  0.00  0.00    +0.000 A 
ATOM      6  C   UNL     1      43.992   7.134  11.478  0.00  0.00    +0.000 A 
ENDROOT
BRANCH   1   8
ATOM      7  C   UNL     1      44.445  10.855  11.636  0.00  0.00    +0.000 C 
ATOM      8  C   UNL     1      44.308   9.569  10.797  0.00  0.00    +0.000 C 
BRANCH   8   9
ATOM      9  N   UNL     1      42.953   9.513  10.224  0.00  0.00    +0.000 NA
ATOM     10  H   UNL     1      43.041   9.616   9.210  0.00  0.00    +0.000 HD
BRANCH   9  11
ATOM     11  C   UNL     1      42.014  10.558  10.670  0.00  0.00    +0.000 C 
ATOM     12  C   UNL     1      40.699  10.049  11.259  0.00  0.00    +0.000 C 
ATOM     13  C   UNL     1      39.763  11.194  11.570  0.00  0.00    +0.000 C 
ATOM     14  O   UNL     1      39.502  11.949  10.397  0.00  0.00    +0.000 OA
ATOM     15  C   UNL     1      40.690  12.517   9.848  0.00  0.00    +0.000 C 
ATOM     16  C   UNL     1      41.693  11.442   9.460  0.00  0.00    +0.000 C 
ENDBRANCH   9  11
ENDBRANCH   8   9
ENDBRANCH   1   8
BRANCH   4  17
ATOM     17  C   UNL     1      45.964   4.661  13.563  0.00  0.00    +0.000 C 
BRANCH  17  18
ATOM     18  N   UNL     1      46.622   4.903  14.826  0.00  0.00    +0.000 N 
ATOM     19  C   UNL     1      47.432   3.977  15.417  0.00  0.00    +0.000 C 
ATOM     20  O   UNL     1      47.672   2.869  14.910  0.00  0.00    +0.000 OA
ATOM     21  H   UNL     1      46.201   5.617  15.418  0.00  0.00    +0.000 HD
BRANCH  19  22
ATOM     22  C   UNL     1      48.051   4.393  16.683  0.00  0.00    +0.000 A 
ATOM     23  C   UNL     1      47.815   3.677  17.842  0.00  0.00    +0.000 A 
ATOM     24  S   UNL     1      48.654   4.276  19.212  0.00  0.00    +0.000 S 
ATOM     25  C   UNL     1      49.322   5.553  18.304  0.00  0.00    +0.000 A 
ATOM     26  N   UNL     1      50.125   6.487  18.883  0.00  0.00    +0.000 NA
ATOM     27  C   UNL     1      50.538   7.411  18.080  0.00  0.00    +0.000 A 
ATOM     28  N   UNL     1      50.234   7.480  16.746  0.00  0.00    +0.000 N 
ATOM     29  C   UNL     1      49.470   6.534  16.111  0.00  0.00    +0.000 A 
ATOM     30  O   UNL     1      49.290   6.575  14.895  0.00  0.00    +0.000 OA
ATOM     31  C   UNL     1      48.937   5.494  16.978  0.00  0.00    +0.000 A 
ATOM     32  H   UNL     1      50.611   8.210  16.161  0.00  0.00    +0.000 HD
ENDBRANCH  19  22
ENDBRANCH  17  18
ENDBRANCH   4  17
TORSDOF 6
ENDMDL
