MODEL 1
REMARK VINA RESULT:    -8.779      0.000      0.000
REMARK INTER + INTRA:         -12.730
REMARK INTER:                 -11.858
REMARK INTRA:                  -0.872
REMARK UNBOUND:                -0.872
REMARK  Name = 
REMARK  6 active torsions:
REMARK  status: ('A' for Active; 'I' for Inactive)
REMARK    1  A    between atoms: C_2  and  C_4
REMARK    2  A    between atoms: N_8  and  C_9
REMARK    3  A    between atoms: C_9  and  C_10
REMARK    4  A    between atoms: C_10  and  C_11
REMARK    5  A    between atoms: C_15  and  O_16
REMARK    6  A    between atoms: O_16  and  C_17
REMARK                            x       y       z     vdW  Elec       q    Type
REMARK                         _______ _______ _______ _____ _____    ______ ____
ROOT
ATOM      1  C   UNL     1      46.509   2.500   7.696  0.00  0.00    +0.000 A 
ATOM      2  C   UNL     1      45.798   1.923   8.740  0.00  0.00    +0.000 A 
ATOM      3  C   UNL     1      44.952   2.726   9.502  0.00  0.00    +0.000 A 
ATOM      4  C   UNL     1      44.839   4.086   9.227  0.00  0.00    +0.000 A 
ATOM      5  N   UNL     1      44.001   4.922   9.922  0.00  0.00    +0.000 N 
ATOM      6  N   UNL     1      45.550   4.659   8.236  0.00  0.00    +0.000 NA
ATOM      7  C   UNL     1      46.368   3.864   7.497  0.00  0.00    +0.000 A 
ATOM      8  H   UNL     1      44.074   5.897   9.666  0.00  0.00    +0.000 HD
ENDROOT
BRANCH   1  10
ATOM      9  N   UNL     1      48.492   2.365   6.305  0.00  0.00    +0.000 N 
ATOM     10  C   UNL     1      47.399   1.718   6.815  0.00  0.00    +0.000 C 
ATOM     11  O   UNL     1      47.193   0.535   6.580  0.00  0.00    +0.000 OA
ATOM     12  H   UNL     1      49.152   1.795   5.792  0.00  0.00    +0.000 HD
ATOM     13  H   UNL     1      48.820   3.250   6.667  0.00  0.00    +0.000 HD
ENDBRANCH   1  10
BRANCH   5  14
ATOM     14  C   UNL     1      43.153   4.475  11.004  0.00  0.00    +0.000 C 
BRANCH  14  15
ATOM     15  C   UNL     1      43.229   5.397  12.224  0.00  0.00    +0.000 C 
BRANCH  15  16
ATOM     16  C   UNL     1      44.669   5.553  12.654  0.00  0.00    +0.000 A 
ATOM     17  C   UNL     1      45.335   6.772  12.484  0.00  0.00    +0.000 A 
ATOM     18  C   UNL     1      46.628   6.943  12.989  0.00  0.00    +0.000 A 
ATOM     19  C   UNL     1      47.270   5.901  13.664  0.00  0.00    +0.000 A 
ATOM     20  C   UNL     1      46.622   4.679  13.825  0.00  0.00    +0.000 A 
ATOM     21  C   UNL     1      45.325   4.512  13.328  0.00  0.00    +0.000 A 
BRANCH  20  22
ATOM     22  O   UNL     1      47.129   3.597  14.503  0.00  0.00    +0.000 OA
BRANCH  22  23
ATOM     23  C   UNL     1      47.840   3.804  15.744  0.00  0.00    +0.000 C 
ATOM     24  C   UNL     1      48.361   2.544  16.473  0.00  0.00    +0.000 C 
ATOM     25  C   UNL     1      47.747   3.063  17.779  0.00  0.00    +0.000 C 
ATOM     26  C   UNL     1      46.916   4.058  16.961  0.00  0.00    +0.000 C 
ENDBRANCH  22  23
ENDBRANCH  20  22
ENDBRANCH  15  16
ENDBRANCH  14  15
ENDBRANCH   5  14
TORSDOF 6
ENDMDL
MODEL 2
REMARK VINA RESULT:    -7.875      1.915      2.404
REMARK INTER + INTRA:         -11.509
REMARK INTER:                 -10.521
REMARK INTRA:                  -0.988
REMARK UNBOUND:                -0.872
REMARK  Name = 
REMARK  6 active torsions:
REMARK  status: ('A' for Active; 'I' for Inactive)
REMARK    1  A    between atoms: C_2  and  C_4
REMARK    2  A    between atoms: N_8  and  C_9
REMARK    3  A    between atoms: C_9  and  C_10
REMARK    4  A    between atoms: C_10  and  C_11
REMARK    5  A    between atoms: C_15  and  O_16
REMARK    6  A    between atoms: O_16  and  C_17
REMARK                            x       y       z     vdW  Elec       q    Type
REMARK                         _______ _______ _______ _____ _____    ______ ____
ROOT
ATOM      1  C   UNL     1      46.426   2.768   7.337  0.00  0.00    +0.000 A 
ATOM      2  C   UNL     1      45.763   3.898   7.798  0.00  0.00    +0.000 A 
ATOM      3  C   UNL     1      44.939   3.786   8.916  0.00  0.00    +0.000 A 
ATOM      4  C   UNL     1      44.772   2.554   9.545  0.00  0.00    +0.000 A 
ATOM      5  N   UNL     1      43.998   2.385  10.665  0.00  0.00    +0.000 N 
ATOM      6  N   UNL     1      45.387   1.446   9.083  0.00  0.00    +0.000 NA
ATOM      7  C   UNL     1      46.191   1.571   7.995  0.00  0.00    +0.000 A 
ATOM      8  H   UNL     1      43.908   1.427  10.972  0.00  0.00    +0.000 HD
ENDROOT
BRANCH   1  10
ATOM      9  N   UNL     1      48.652   2.470   6.422  0.00  0.00    +0.000 N 
ATOM     10  C   UNL     1      47.346   2.803   6.184  0.00  0.00    +0.000 C 
ATOM     11  O   UNL     1      46.955   3.080   5.058  0.00  0.00    +0.000 OA
ATOM     12  H   UNL     1      49.251   2.394   5.611  0.00  0.00    +0.000 HD
ATOM     13  H   UNL     1      48.951   2.008   7.270  0.00  0.00    +0.000 HD
ENDBRANCH   1  10
BRANCH   5  14
ATOM     14  C   UNL     1      43.282   3.467  11.305  0.00  0.00    +0.000 C 
BRANCH  14  15
ATOM     15  C   UNL     1      43.849   3.804  12.686  0.00  0.00    +0.000 C 
BRANCH  15  16
ATOM     16  C   UNL     1      44.857   4.923  12.562  0.00  0.00    +0.000 A 
ATOM     17  C   UNL     1      44.542   6.092  11.860  0.00  0.00    +0.000 A 
ATOM     18  C   UNL     1      45.435   7.167  11.848  0.00  0.00    +0.000 A 
ATOM     19  C   UNL     1      46.652   7.087  12.532  0.00  0.00    +0.000 A 
ATOM     20  C   UNL     1      46.982   5.923  13.221  0.00  0.00    +0.000 A 
ATOM     21  C   UNL     1      46.083   4.851  13.240  0.00  0.00    +0.000 A 
BRANCH  20  22
ATOM     22  O   UNL     1      48.124   5.739  13.962  0.00  0.00    +0.000 OA
BRANCH  22  23
ATOM     23  C   UNL     1      48.514   6.739  14.930  0.00  0.00    +0.000 C 
ATOM     24  C   UNL     1      49.966   7.264  14.850  0.00  0.00    +0.000 C 
ATOM     25  C   UNL     1      50.117   7.037  16.359  0.00  0.00    +0.000 C 
ATOM     26  C   UNL     1      48.860   6.160  16.325  0.00  0.00    +0.000 C 
ENDBRANCH  22  23
ENDBRANCH  20  22
ENDBRANCH  15  16
ENDBRANCH  14  15
ENDBRANCH   5  14
TORSDOF 6
ENDMDL
MODEL 3
REMARK VINA RESULT:    -7.721      1.980      3.754
REMARK INTER + INTRA:         -11.301
REMARK INTER:                 -10.240
REMARK INTRA:                  -1.062
REMARK UNBOUND:                -0.872
REMARK  Name = 
REMARK  6 active torsions:
REMARK  status: ('A' for Active; 'I' for Inactive)
REMARK    1  A    between atoms: C_2  and  C_4
REMARK    2  A    between atoms: N_8  and  C_9
REMARK    3  A    between atoms: C_9  and  C_10
REMARK    4  A    between atoms: C_10  and  C_11
REMARK    5  A    between atoms: C_15  and  O_16
REMARK    6  A    between atoms: O_16  and  C_17
REMARK                            x       y       z     vdW  Elec       q    Type
REMARK                         _______ _______ _______ _____ _____    ______ ____
ROOT
ATOM      1  C   UNL     1      46.436   2.696   7.608  0.00  0.00    +0.000 A 
ATOM      2  C   UNL     1      46.113   4.036   7.779  0.00  0.00    +0.000 A 
ATOM      3  C   UNL     1      45.194   4.386   8.766  0.00  0.00    +0.000 A 
ATOM      4  C   UNL     1      44.600   3.403   9.553  0.00  0.00    +0.000 A 
ATOM      5  N   UNL     1      43.711   3.687  10.559  0.00  0.00    +0.000 N 
ATOM      6  N   UNL     1      44.885   2.098   9.372  0.00  0.00    +0.000 NA
ATOM      7  C   UNL     1      45.786   1.770   8.408  0.00  0.00    +0.000 A 
ATOM      8  H   UNL     1      43.303   2.874  10.999  0.00  0.00    +0.000 HD
ENDROOT
BRANCH   1  10
ATOM      9  N   UNL     1      47.530   2.970   5.461  0.00  0.00    +0.000 N 
ATOM     10  C   UNL     1      47.426   2.239   6.613  0.00  0.00    +0.000 C 
ATOM     11  O   UNL     1      48.148   1.273   6.821  0.00  0.00    +0.000 OA
ATOM     12  H   UNL     1      48.282   2.715   4.834  0.00  0.00    +0.000 HD
ATOM     13  H   UNL     1      47.133   3.895   5.364  0.00  0.00    +0.000 HD
ENDBRANCH   1  10
BRANCH   5  14
ATOM     14  C   UNL     1      43.306   5.031  10.904  0.00  0.00    +0.000 C 
BRANCH  14  15
ATOM     15  C   UNL     1      43.443   5.315  12.402  0.00  0.00    +0.000 C 
BRANCH  15  16
ATOM     16  C   UNL     1      44.900   5.511  12.752  0.00  0.00    +0.000 A 
ATOM     17  C   UNL     1      45.539   4.650  13.651  0.00  0.00    +0.000 A 
ATOM     18  C   UNL     1      46.914   4.766  13.880  0.00  0.00    +0.000 A 
ATOM     19  C   UNL     1      47.663   5.743  13.217  0.00  0.00    +0.000 A 
ATOM     20  C   UNL     1      47.034   6.614  12.332  0.00  0.00    +0.000 A 
ATOM     21  C   UNL     1      45.661   6.491  12.097  0.00  0.00    +0.000 A 
BRANCH  20  22
ATOM     22  O   UNL     1      47.666   7.584  11.593  0.00  0.00    +0.000 OA
BRANCH  22  23
ATOM     23  C   UNL     1      48.507   8.553  12.259  0.00  0.00    +0.000 C 
ATOM     24  C   UNL     1      47.827   9.475  13.299  0.00  0.00    +0.000 C 
ATOM     25  C   UNL     1      48.492  10.688  12.636  0.00  0.00    +0.000 C 
ATOM     26  C   UNL     1      48.799   9.817  11.413  0.00  0.00    +0.000 C 
ENDBRANCH  22  23
ENDBRANCH  20  22
ENDBRANCH  15  16
ENDBRANCH  14  15
ENDBRANCH   5  14
TORSDOF 6
ENDMDL
MODEL 4
REMARK VINA RESULT:    -7.504      2.824      4.943
REMARK INTER + INTRA:         -11.008
REMARK INTER:                  -9.968
REMARK INTRA:                  -1.040
REMARK UNBOUND:                -0.872
REMARK  Name = 
REMARK  6 active torsions:
REMARK  status: ('A' for Active; 'I' for Inactive)
REMARK    1  A    between atoms: C_2  and  C_4
REMARK    2  A    between atoms: N_8  and  C_9
REMARK    3  A    between atoms: C_9  and  C_10
REMARK    4  A    between atoms: C_10  and  C_11
REMARK    5  A    between atoms: C_15  and  O_16
REMARK    6  A    between atoms: O_16  and  C_17
REMARK                            x       y       z     vdW  Elec       q    Type
REMARK                         _______ _______ _______ _____ _____    ______ ____
ROOT
ATOM      1  C   UNL     1      46.422   2.777   7.363  0.00  0.00    +0.000 A 
ATOM      2  C   UNL     1      45.807   3.911   7.876  0.00  0.00    +0.000 A 
ATOM      3  C   UNL     1      44.988   3.785   8.996  0.00  0.00    +0.000 A 
ATOM      4  C   UNL     1      44.780   2.536   9.577  0.00  0.00    +0.000 A 
ATOM      5  N   UNL     1      44.010   2.351  10.697  0.00  0.00    +0.000 N 
ATOM      6  N   UNL     1      45.349   1.426   9.065  0.00  0.00    +0.000 NA
ATOM      7  C   UNL     1      46.148   1.564   7.975  0.00  0.00    +0.000 A 
ATOM      8  H   UNL     1      43.886   1.385  10.966  0.00  0.00    +0.000 HD
ENDROOT
BRANCH   1  10
ATOM      9  N   UNL     1      48.639   2.480   6.425  0.00  0.00    +0.000 N 
ATOM     10  C   UNL     1      47.333   2.824   6.203  0.00  0.00    +0.000 C 
ATOM     11  O   UNL     1      46.935   3.121   5.084  0.00  0.00    +0.000 OA
ATOM     12  H   UNL     1      49.231   2.412   5.608  0.00  0.00    +0.000 HD
ATOM     13  H   UNL     1      48.942   2.003   7.264  0.00  0.00    +0.000 HD
ENDBRANCH   1  10
BRANCH   5  14
ATOM     14  C   UNL     1      43.341   3.432  11.387  0.00  0.00    +0.000 C 
BRANCH  14  15
ATOM     15  C   UNL     1      44.074   3.851  12.664  0.00  0.00    +0.000 C 
BRANCH  15  16
ATOM     16  C   UNL     1      44.771   5.173  12.439  0.00  0.00    +0.000 A 
ATOM     17  C   UNL     1      46.145   5.303  12.668  0.00  0.00    +0.000 A 
ATOM     18  C   UNL     1      46.801   6.495  12.348  0.00  0.00    +0.000 A 
ATOM     19  C   UNL     1      46.094   7.569  11.800  0.00  0.00    +0.000 A 
ATOM     20  C   UNL     1      44.724   7.456  11.583  0.00  0.00    +0.000 A 
ATOM     21  C   UNL     1      44.070   6.260  11.895  0.00  0.00    +0.000 A 
BRANCH  20  22
ATOM     22  O   UNL     1      43.931   8.422  11.014  0.00  0.00    +0.000 OA
BRANCH  22  23
ATOM     23  C   UNL     1      44.375   9.798  11.011  0.00  0.00    +0.000 C 
ATOM     24  C   UNL     1      43.482  10.825  11.745  0.00  0.00    +0.000 C 
ATOM     25  C   UNL     1      43.549  11.740  10.516  0.00  0.00    +0.000 C 
ATOM     26  C   UNL     1      44.065  10.553   9.694  0.00  0.00    +0.000 C 
ENDBRANCH  22  23
ENDBRANCH  20  22
ENDBRANCH  15  16
ENDBRANCH  14  15
ENDBRANCH   5  14
TORSDOF 6
ENDMDL
MODEL 5
REMARK VINA RESULT:    -7.284      3.027      7.505
REMARK INTER + INTRA:         -10.711
REMARK INTER:                 -10.112
REMARK INTRA:                  -0.598
REMARK UNBOUND:                -0.872
REMARK  Name = 
REMARK  6 active torsions:
REMARK  status: ('A' for Active; 'I' for Inactive)
REMARK    1  A    between atoms: C_2  and  C_4
REMARK    2  A    between atoms: N_8  and  C_9
REMARK    3  A    between atoms: C_9  and  C_10
REMARK    4  A    between atoms: C_10  and  C_11
REMARK    5  A    between atoms: C_15  and  O_16
REMARK    6  A    between atoms: O_16  and  C_17
REMARK                            x       y       z     vdW  Elec       q    Type
REMARK                         _______ _______ _______ _____ _____    ______ ____
ROOT
ATOM      1  C   UNL     1      47.630   4.180  15.912  0.00  0.00    +0.000 A 
ATOM      2  C   UNL     1      47.017   3.902  14.697  0.00  0.00    +0.000 A 
ATOM      3  C   UNL     1      47.100   4.840  13.671  0.00  0.00    +0.000 A 
ATOM      4  C   UNL     1      47.772   6.044  13.872  0.00  0.00    +0.000 A 
ATOM      5  N   UNL     1      47.913   6.994  12.893  0.00  0.00    +0.000 N 
ATOM      6  N   UNL     1      48.341   6.334  15.059  0.00  0.00    +0.000 NA
ATOM      7  C   UNL     1      48.257   5.408  16.050  0.00  0.00    +0.000 A 
ATOM      8  H   UNL     1      48.359   7.848  13.198  0.00  0.00    +0.000 HD
ENDROOT
BRANCH   1  10
ATOM      9  N   UNL     1      48.840   2.811  17.507  0.00  0.00    +0.000 N 
ATOM     10  C   UNL     1      47.623   3.228  17.040  0.00  0.00    +0.000 C 
ATOM     11  O   UNL     1      46.581   2.857  17.562  0.00  0.00    +0.000 OA
ATOM     12  H   UNL     1      48.830   2.245  18.345  0.00  0.00    +0.000 HD
ATOM     13  H   UNL     1      49.705   3.277  17.267  0.00  0.00    +0.000 HD
ENDBRANCH   1  10
BRANCH   5  14
ATOM     14  C   UNL     1      47.382   6.841  11.556  0.00  0.00    +0.000 C 
BRANCH  14  15
ATOM     15  C   UNL     1      45.854   6.940  11.521  0.00  0.00    +0.000 C 
BRANCH  15  16
ATOM     16  C   UNL     1      45.279   5.699  10.879  0.00  0.00    +0.000 A 
ATOM     17  C   UNL     1      44.310   4.938  11.541  0.00  0.00    +0.000 A 
ATOM     18  C   UNL     1      43.700   3.859  10.893  0.00  0.00    +0.000 A 
ATOM     19  C   UNL     1      44.053   3.527   9.582  0.00  0.00    +0.000 A 
ATOM     20  C   UNL     1      45.028   4.268   8.920  0.00  0.00    +0.000 A 
ATOM     21  C   UNL     1      45.630   5.352   9.565  0.00  0.00    +0.000 A 
BRANCH  20  22
ATOM     22  O   UNL     1      45.429   4.066   7.622  0.00  0.00    +0.000 OA
BRANCH  22  23
ATOM     23  C   UNL     1      46.680   3.391   7.360  0.00  0.00    +0.000 C 
ATOM     24  C   UNL     1      46.970   2.994   5.894  0.00  0.00    +0.000 C 
ATOM     25  C   UNL     1      47.339   1.581   6.364  0.00  0.00    +0.000 C 
ATOM     26  C   UNL     1      46.662   1.881   7.707  0.00  0.00    +0.000 C 
ENDBRANCH  22  23
ENDBRANCH  20  22
ENDBRANCH  15  16
ENDBRANCH  14  15
ENDBRANCH   5  14
TORSDOF 6
ENDMDL
MODEL 6
REMARK VINA RESULT:    -7.004      3.711      8.619
REMARK INTER + INTRA:         -10.332
REMARK INTER:                  -9.849
REMARK INTRA:                  -0.483
REMARK UNBOUND:                -0.872
REMARK  Name = 
REMARK  6 active torsions:
REMARK  status: ('A' for Active; 'I' for Inactive)
REMARK    1  A    between atoms: C_2  and  C_4
REMARK    2  A    between atoms: N_8  and  C_9
REMARK    3  A    between atoms: C_9  and  C_10
REMARK    4  A    between atoms: C_10  and  C_11
REMARK    5  A    between atoms: C_15  and  O_16
REMARK    6  A    between atoms: O_16  and  C_17
REMARK                            x       y       z     vdW  Elec       q    Type
REMARK                         _______ _______ _______ _____ _____    ______ ____
ROOT
ATOM      1  C   UNL     1      48.456   4.693  18.239  0.00  0.00    +0.000 A 
ATOM      2  C   UNL     1      48.805   5.599  17.247  0.00  0.00    +0.000 A 
ATOM      3  C   UNL     1      48.230   5.470  15.984  0.00  0.00    +0.000 A 
ATOM      4  C   UNL     1      47.335   4.436  15.723  0.00  0.00    +0.000 A 
ATOM      5  N   UNL     1      46.714   4.274  14.510  0.00  0.00    +0.000 N 
ATOM      6  N   UNL     1      47.015   3.534  16.672  0.00  0.00    +0.000 NA
ATOM      7  C   UNL     1      47.580   3.674  17.900  0.00  0.00    +0.000 A 
ATOM      8  H   UNL     1      46.146   3.441  14.438  0.00  0.00    +0.000 HD
ENDROOT
BRANCH   1  10
ATOM      9  N   UNL     1      48.494   3.884  20.525  0.00  0.00    +0.000 N 
ATOM     10  C   UNL     1      48.987   4.777  19.614  0.00  0.00    +0.000 C 
ATOM     11  O   UNL     1      49.858   5.582  19.918  0.00  0.00    +0.000 OA
ATOM     12  H   UNL     1      48.939   3.877  21.434  0.00  0.00    +0.000 HD
ATOM     13  H   UNL     1      47.968   3.063  20.256  0.00  0.00    +0.000 HD
ENDBRANCH   1  10
BRANCH   5  14
ATOM     14  C   UNL     1      46.924   5.159  13.386  0.00  0.00    +0.000 C 
BRANCH  14  15
ATOM     15  C   UNL     1      45.609   5.664  12.788  0.00  0.00    +0.000 C 
BRANCH  15  16
ATOM     16  C   UNL     1      45.133   4.704  11.722  0.00  0.00    +0.000 A 
ATOM     17  C   UNL     1      44.227   3.685  12.034  0.00  0.00    +0.000 A 
ATOM     18  C   UNL     1      43.704   2.875  11.021  0.00  0.00    +0.000 A 
ATOM     19  C   UNL     1      44.081   3.071   9.690  0.00  0.00    +0.000 A 
ATOM     20  C   UNL     1      44.994   4.072   9.370  0.00  0.00    +0.000 A 
ATOM     21  C   UNL     1      45.510   4.888  10.383  0.00  0.00    +0.000 A 
BRANCH  20  22
ATOM     22  O   UNL     1      45.410   4.388   8.100  0.00  0.00    +0.000 OA
BRANCH  22  23
ATOM     23  C   UNL     1      46.592   3.757   7.560  0.00  0.00    +0.000 C 
ATOM     24  C   UNL     1      46.619   3.505   6.034  0.00  0.00    +0.000 C 
ATOM     25  C   UNL     1      47.059   2.059   6.295  0.00  0.00    +0.000 C 
ATOM     26  C   UNL     1      46.629   2.221   7.757  0.00  0.00    +0.000 C 
ENDBRANCH  22  23
ENDBRANCH  20  22
ENDBRANCH  15  16
ENDBRANCH  14  15
ENDBRANCH   5  14
TORSDOF 6
ENDMDL
MODEL 7
REMARK VINA RESULT:    -6.567      2.980      4.388
REMARK INTER + INTRA:          -9.742
REMARK INTER:                  -8.847
REMARK INTRA:                  -0.895
REMARK UNBOUND:                -0.872
REMARK  Name = 
REMARK  6 active torsions:
REMARK  status: ('A' for Active; 'I' for Inactive)
REMARK    1  A    between atoms: C_2  and  C_4
REMARK    2  A    between atoms: N_8  and  C_9
REMARK    3  A    between atoms: C_9  and  C_10
REMARK    4  A    between atoms: C_10  and  C_11
REMARK    5  A    between atoms: C_15  and  O_16
REMARK    6  A    between atoms: O_16  and  C_17
REMARK                            x       y       z     vdW  Elec       q    Type
REMARK                         _______ _______ _______ _____ _____    ______ ____
ROOT
ATOM      1  C   UNL     1      44.360   4.122  11.491  0.00  0.00    +0.000 A 
ATOM      2  C   UNL     1      45.121   4.966  10.693  0.00  0.00    +0.000 A 
ATOM      3  C   UNL     1      45.563   6.177  11.224  0.00  0.00    +0.000 A 
ATOM      4  C   UNL     1      45.228   6.537  12.527  0.00  0.00    +0.000 A 
ATOM      5  N   UNL     1      45.656   7.700  13.115  0.00  0.00    +0.000 N 
ATOM      6  N   UNL     1      44.463   5.737  13.296  0.00  0.00    +0.000 NA
ATOM      7  C   UNL     1      44.042   4.557  12.768  0.00  0.00    +0.000 A 
ATOM      8  H   UNL     1      45.278   7.867  14.037  0.00  0.00    +0.000 HD
ENDROOT
BRANCH   1  10
ATOM      9  N   UNL     1      44.551   2.241   9.973  0.00  0.00    +0.000 N 
ATOM     10  C   UNL     1      43.882   2.807  11.024  0.00  0.00    +0.000 C 
ATOM     11  O   UNL     1      42.954   2.228  11.573  0.00  0.00    +0.000 OA
ATOM     12  H   UNL     1      44.287   1.295   9.728  0.00  0.00    +0.000 HD
ATOM     13  H   UNL     1      45.456   2.569   9.662  0.00  0.00    +0.000 HD
ENDBRANCH   1  10
BRANCH   5  14
ATOM     14  C   UNL     1      46.499   8.665  12.443  0.00  0.00    +0.000 C 
BRANCH  14  15
ATOM     15  C   UNL     1      47.986   8.317  12.553  0.00  0.00    +0.000 C 
BRANCH  15  16
ATOM     16  C   UNL     1      48.359   8.136  14.007  0.00  0.00    +0.000 A 
ATOM     17  C   UNL     1      48.198   9.184  14.920  0.00  0.00    +0.000 A 
ATOM     18  C   UNL     1      48.435   8.972  16.281  0.00  0.00    +0.000 A 
ATOM     19  C   UNL     1      48.839   7.716  16.745  0.00  0.00    +0.000 A 
ATOM     20  C   UNL     1      49.017   6.671  15.843  0.00  0.00    +0.000 A 
ATOM     21  C   UNL     1      48.770   6.882  14.482  0.00  0.00    +0.000 A 
BRANCH  20  22
ATOM     22  O   UNL     1      49.369   5.387  16.179  0.00  0.00    +0.000 OA
BRANCH  22  23
ATOM     23  C   UNL     1      48.674   4.716  17.254  0.00  0.00    +0.000 C 
ATOM     24  C   UNL     1      48.954   3.206  17.436  0.00  0.00    +0.000 C 
ATOM     25  C   UNL     1      47.443   2.949  17.502  0.00  0.00    +0.000 C 
ATOM     26  C   UNL     1      47.207   4.348  16.920  0.00  0.00    +0.000 C 
ENDBRANCH  22  23
ENDBRANCH  20  22
ENDBRANCH  15  16
ENDBRANCH  14  15
ENDBRANCH   5  14
TORSDOF 6
ENDMDL
MODEL 8
REMARK VINA RESULT:    -6.359      3.598      7.426
REMARK INTER + INTRA:          -9.460
REMARK INTER:                  -9.142
REMARK INTRA:                  -0.318
REMARK UNBOUND:                -0.872
REMARK  Name = 
REMARK  6 active torsions:
REMARK  status: ('A' for Active; 'I' for Inactive)
REMARK    1  A    between atoms: C_2  and  C_4
REMARK    2  A    between atoms: N_8  and  C_9
REMARK    3  A    between atoms: C_9  and  C_10
REMARK    4  A    between atoms: C_10  and  C_11
REMARK    5  A    between atoms: C_15  and  O_16
REMARK    6  A    between atoms: O_16  and  C_17
REMARK                            x       y       z     vdW  Elec       q    Type
REMARK                         _______ _______ _______ _____ _____    ______ ____
ROOT
ATOM      1  C   UNL     1      49.331   8.560  12.291  0.00  0.00    +0.000 A 
ATOM      2  C   UNL     1      47.989   8.868  12.104  0.00  0.00    +0.000 A 
ATOM      3  C   UNL     1      47.032   7.889  12.361  0.00  0.00    +0.000 A 
ATOM      4  C   UNL     1      47.421   6.619  12.781  0.00  0.00    +0.000 A 
ATOM      5  N   UNL     1      46.526   5.623  13.078  0.00  0.00    +0.000 N 
ATOM      6  N   UNL     1      48.723   6.303  12.934  0.00  0.00    +0.000 NA
ATOM      7  C   UNL     1      49.646   7.269  12.684  0.00  0.00    +0.000 A 
ATOM      8  H   UNL     1      46.948   4.732  13.299  0.00  0.00    +0.000 HD
ENDROOT
BRANCH   1  10
ATOM      9  N   UNL     1      50.760  10.321  13.149  0.00  0.00    +0.000 N 
ATOM     10  C   UNL     1      50.408   9.546  12.078  0.00  0.00    +0.000 C 
ATOM     11  O   UNL     1      50.988   9.643  11.005  0.00  0.00    +0.000 OA
ATOM     12  H   UNL     1      51.568  10.918  13.027  0.00  0.00    +0.000 HD
ATOM     13  H   UNL     1      50.478  10.104  14.096  0.00  0.00    +0.000 HD
ENDBRANCH   1  10
BRANCH   5  14
ATOM     14  C   UNL     1      45.092   5.792  12.988  0.00  0.00    +0.000 C 
BRANCH  14  15
ATOM     15  C   UNL     1      44.627   6.074  11.557  0.00  0.00    +0.000 C 
BRANCH  15  16
ATOM     16  C   UNL     1      44.646   4.794  10.754  0.00  0.00    +0.000 A 
ATOM     17  C   UNL     1      44.140   3.607  11.295  0.00  0.00    +0.000 A 
ATOM     18  C   UNL     1      44.055   2.455  10.506  0.00  0.00    +0.000 A 
ATOM     19  C   UNL     1      44.475   2.476   9.173  0.00  0.00    +0.000 A 
ATOM     20  C   UNL     1      44.994   3.648   8.630  0.00  0.00    +0.000 A 
ATOM     21  C   UNL     1      45.071   4.801   9.417  0.00  0.00    +0.000 A 
BRANCH  20  22
ATOM     22  O   UNL     1      45.400   3.804   7.327  0.00  0.00    +0.000 OA
BRANCH  22  23
ATOM     23  C   UNL     1      46.760   3.478   6.961  0.00  0.00    +0.000 C 
ATOM     24  C   UNL     1      47.018   3.105   5.482  0.00  0.00    +0.000 C 
ATOM     25  C   UNL     1      47.797   1.867   5.946  0.00  0.00    +0.000 C 
ATOM     26  C   UNL     1      47.183   2.037   7.340  0.00  0.00    +0.000 C 
ENDBRANCH  22  23
ENDBRANCH  20  22
ENDBRANCH  15  16
ENDBRANCH  14  15
ENDBRANCH   5  14
TORSDOF 6
ENDMDL
MODEL 9
REMARK VINA RESULT:    -6.218      2.961      3.606
REMARK INTER + INTRA:          -9.270
REMARK INTER:                  -8.592
REMARK INTRA:                  -0.678
REMARK UNBOUND:                -0.872
REMARK  Name = 
REMARK  6 active torsions:
REMARK  status: ('A' for Active; 'I' for Inactive)
REMARK    1  A    between atoms: C_2  and  C_4
REMARK    2  A    between atoms: N_8  and  C_9
REMARK    3  A    between atoms: C_9  and  C_10
REMARK    4  A    between atoms: C_10  and  C_11
REMARK    5  A    between atoms: C_15  and  O_16
REMARK    6  A    between atoms: O_16  and  C_17
REMARK                            x       y       z     vdW  Elec       q    Type
REMARK                         _______ _______ _______ _____ _____    ______ ____
ROOT
ATOM      1  C   UNL     1      46.511   2.619   7.707  0.00  0.00    +0.000 A 
ATOM      2  C   UNL     1      46.471   4.007   7.749  0.00  0.00    +0.000 A 
ATOM      3  C   UNL     1      45.726   4.629   8.748  0.00  0.00    +0.000 A 
ATOM      4  C   UNL     1      45.020   3.866   9.675  0.00  0.00    +0.000 A 
ATOM      5  N   UNL     1      44.293   4.418  10.699  0.00  0.00    +0.000 N 
ATOM      6  N   UNL     1      45.028   2.519   9.622  0.00  0.00    +0.000 NA
ATOM      7  C   UNL     1      45.763   1.925   8.644  0.00  0.00    +0.000 A 
ATOM      8  H   UNL     1      43.773   3.751  11.252  0.00  0.00    +0.000 HD
ENDROOT
BRANCH   1  10
ATOM      9  N   UNL     1      48.367   2.534   6.148  0.00  0.00    +0.000 N 
ATOM     10  C   UNL     1      47.304   1.878   6.706  0.00  0.00    +0.000 C 
ATOM     11  O   UNL     1      47.049   0.717   6.415  0.00  0.00    +0.000 OA
ATOM     12  H   UNL     1      48.968   1.986   5.546  0.00  0.00    +0.000 HD
ATOM     13  H   UNL     1      48.747   3.387   6.537  0.00  0.00    +0.000 HD
ENDBRANCH   1  10
BRANCH   5  14
ATOM     14  C   UNL     1      44.188   5.844  10.919  0.00  0.00    +0.000 C 
BRANCH  14  15
ATOM     15  C   UNL     1      44.555   6.241  12.351  0.00  0.00    +0.000 C 
BRANCH  15  16
ATOM     16  C   UNL     1      45.938   6.852  12.370  0.00  0.00    +0.000 A 
ATOM     17  C   UNL     1      46.900   6.467  11.431  0.00  0.00    +0.000 A 
ATOM     18  C   UNL     1      48.136   7.119  11.382  0.00  0.00    +0.000 A 
ATOM     19  C   UNL     1      48.425   8.158  12.272  0.00  0.00    +0.000 A 
ATOM     20  C   UNL     1      47.481   8.539  13.221  0.00  0.00    +0.000 A 
ATOM     21  C   UNL     1      46.241   7.892  13.262  0.00  0.00    +0.000 A 
BRANCH  20  22
ATOM     22  O   UNL     1      47.630   9.568  14.118  0.00  0.00    +0.000 OA
BRANCH  22  23
ATOM     23  C   UNL     1      48.636   9.472  15.151  0.00  0.00    +0.000 C 
ATOM     24  C   UNL     1      48.142   9.180  16.587  0.00  0.00    +0.000 C 
ATOM     25  C   UNL     1      49.006  10.337  17.105  0.00  0.00    +0.000 C 
ATOM     26  C   UNL     1      49.142  10.843  15.664  0.00  0.00    +0.000 C 
ENDBRANCH  22  23
ENDBRANCH  20  22
ENDBRANCH  15  16
ENDBRANCH  14  15
ENDBRANCH   5  14
TORSDOF 6
ENDMDL
