MODEL 1
REMARK VINA RESULT:    -7.480      0.000      0.000
REMARK INTER + INTRA:         -10.573
REMARK INTER:                  -9.666
REMARK INTRA:                  -0.907
REMARK UNBOUND:                -0.907
REMARK  Name = 
REMARK  6 active torsions:
REMARK  status: ('A' for Active; 'I' for Inactive)
REMARK    1  A    between atoms: C_1  and  C_2
REMARK    2  A    between atoms: N_5  and  C_6
REMARK    3  A    between atoms: C_6  and  C_7
REMARK    4  A    between atoms: C_11  and  C_12
REMARK    5  A    between atoms: C_16  and  C_17
REMARK    6  A    between atoms: C_19  and  C_20
REMARK                            x       y       z     vdW  Elec       q    Type
REMARK                         _______ _______ _______ _____ _____    ______ ____
ROOT
ATOM      1  C   UNL     1      47.753   5.379  14.266  0.00  0.00    +0.000 C 
ATOM      2  C   UNL     1      46.630   5.709  13.331  0.00  0.00    +0.000 A 
ATOM      3  N   UNL     1      45.921   4.606  12.930  0.00  0.00    +0.000 NA
ATOM      4  C   UNL     1      44.918   4.710  12.046  0.00  0.00    +0.000 A 
ATOM      5  N   UNL     1      44.320   3.529  11.610  0.00  0.00    +0.000 N 
ATOM      6  C   UNL     1      44.486   5.950  11.647  0.00  0.00    +0.000 A 
ATOM      7  C   UNL     1      45.206   7.086  12.033  0.00  0.00    +0.000 A 
ATOM      8  C   UNL     1      46.349   6.996  12.863  0.00  0.00    +0.000 A 
ATOM      9  H   UNL     1      43.657   3.225  12.319  0.00  0.00    +0.000 HD
ENDROOT
BRANCH   8  10
ATOM     10  C   UNL     1      47.229   8.243  13.046  0.00  0.00    +0.000 C 
ATOM     11  C   UNL     1      48.425   8.240  12.071  0.00  0.00    +0.000 C 
ATOM     12  C   UNL     1      49.780   8.054  12.732  0.00  0.00    +0.000 C 
ATOM     13  N   UNL     1      49.956   8.983  13.840  0.00  0.00    +0.000 NA
ATOM     14  C   UNL     1      49.001   8.690  14.904  0.00  0.00    +0.000 C 
ATOM     15  C   UNL     1      47.547   8.791  14.451  0.00  0.00    +0.000 C 
ATOM     16  H   UNL     1      49.829   9.941  13.510  0.00  0.00    +0.000 HD
ENDBRANCH   8  10
BRANCH   7  17
ATOM     17  C   UNL     1      44.730   8.328  11.490  0.00  0.00    +0.000 C 
ATOM     18  N   UNL     1      44.321   9.320  11.051  0.00  0.00    +0.000 NA
ENDBRANCH   7  17
BRANCH   5  19
ATOM     19  C   UNL     1      43.705   3.539  10.283  0.00  0.00    +0.000 C 
BRANCH  19  20
ATOM     20  C   UNL     1      44.741   3.259   9.221  0.00  0.00    +0.000 A 
ATOM     21  C   UNL     1      45.319   4.296   8.475  0.00  0.00    +0.000 A 
ATOM     22  C   UNL     1      46.300   4.021   7.518  0.00  0.00    +0.000 A 
ATOM     23  C   UNL     1      46.715   2.707   7.299  0.00  0.00    +0.000 A 
ATOM     24  C   UNL     1      46.159   1.664   8.044  0.00  0.00    +0.000 A 
ATOM     25  C   UNL     1      45.183   1.942   9.007  0.00  0.00    +0.000 A 
BRANCH  24  26
ATOM     26  C   UNL     1      46.588   0.317   7.825  0.00  0.00    +0.000 C 
ATOM     27  N   UNL     1      46.941  -0.776   7.643  0.00  0.00    +0.000 NA
ENDBRANCH  24  26
ENDBRANCH  19  20
ENDBRANCH   5  19
TORSDOF 5
ENDMDL
MODEL 2
REMARK VINA RESULT:    -6.378      2.948      4.800
REMARK INTER + INTRA:          -9.149
REMARK INTER:                  -8.337
REMARK INTRA:                  -0.812
REMARK UNBOUND:                -0.907
REMARK  Name = 
REMARK  6 active torsions:
REMARK  status: ('A' for Active; 'I' for Inactive)
REMARK    1  A    between atoms: C_1  and  C_2
REMARK    2  A    between atoms: N_5  and  C_6
REMARK    3  A    between atoms: C_6  and  C_7
REMARK    4  A    between atoms: C_11  and  C_12
REMARK    5  A    between atoms: C_16  and  C_17
REMARK    6  A    between atoms: C_19  and  C_20
REMARK                            x       y       z     vdW  Elec       q    Type
REMARK                         _______ _______ _______ _____ _____    ______ ____
ROOT
ATOM      1  C   UNL     1      50.286   7.509  15.254  0.00  0.00    +0.000 C 
ATOM      2  C   UNL     1      49.122   6.573  15.133  0.00  0.00    +0.000 A 
ATOM      3  N   UNL     1      48.454   6.696  13.941  0.00  0.00    +0.000 NA
ATOM      4  C   UNL     1      47.351   5.976  13.688  0.00  0.00    +0.000 A 
ATOM      5  N   UNL     1      46.671   6.239  12.499  0.00  0.00    +0.000 N 
ATOM      6  C   UNL     1      46.964   4.990  14.561  0.00  0.00    +0.000 A 
ATOM      7  C   UNL     1      47.623   4.860  15.787  0.00  0.00    +0.000 A 
ATOM      8  C   UNL     1      48.713   5.693  16.139  0.00  0.00    +0.000 A 
ATOM      9  H   UNL     1      47.153   5.759  11.743  0.00  0.00    +0.000 HD
ENDROOT
BRANCH   8  10
ATOM     10  C   UNL     1      49.229   5.663  17.586  0.00  0.00    +0.000 C 
ATOM     11  C   UNL     1      48.659   6.833  18.415  0.00  0.00    +0.000 C 
ATOM     12  C   UNL     1      49.683   7.880  18.819  0.00  0.00    +0.000 C 
ATOM     13  N   UNL     1      50.849   7.263  19.438  0.00  0.00    +0.000 NA
ATOM     14  C   UNL     1      51.557   6.432  18.470  0.00  0.00    +0.000 C 
ATOM     15  C   UNL     1      50.696   5.308  17.899  0.00  0.00    +0.000 C 
ATOM     16  H   UNL     1      50.556   6.698  20.237  0.00  0.00    +0.000 HD
ENDBRANCH   8  10
BRANCH   7  17
ATOM     17  C   UNL     1      47.087   3.861  16.670  0.00  0.00    +0.000 C 
ATOM     18  N   UNL     1      46.651   3.073  17.400  0.00  0.00    +0.000 NA
ENDBRANCH   7  17
BRANCH   5  19
ATOM     19  C   UNL     1      45.236   5.959  12.473  0.00  0.00    +0.000 C 
BRANCH  19  20
ATOM     20  C   UNL     1      44.939   4.829  11.516  0.00  0.00    +0.000 A 
ATOM     21  C   UNL     1      44.090   3.772  11.877  0.00  0.00    +0.000 A 
ATOM     22  C   UNL     1      43.801   2.751  10.967  0.00  0.00    +0.000 A 
ATOM     23  C   UNL     1      44.353   2.778   9.686  0.00  0.00    +0.000 A 
ATOM     24  C   UNL     1      45.188   3.832   9.306  0.00  0.00    +0.000 A 
ATOM     25  C   UNL     1      45.470   4.856  10.215  0.00  0.00    +0.000 A 
BRANCH  24  26
ATOM     26  C   UNL     1      45.750   3.864   7.991  0.00  0.00    +0.000 C 
ATOM     27  N   UNL     1      46.203   3.893   6.920  0.00  0.00    +0.000 NA
ENDBRANCH  24  26
ENDBRANCH  19  20
ENDBRANCH   5  19
TORSDOF 5
ENDMDL
MODEL 3
REMARK VINA RESULT:    -6.188      3.173      8.331
REMARK INTER + INTRA:          -8.903
REMARK INTER:                  -8.055
REMARK INTRA:                  -0.848
REMARK UNBOUND:                -0.907
REMARK  Name = 
REMARK  6 active torsions:
REMARK  status: ('A' for Active; 'I' for Inactive)
REMARK    1  A    between atoms: C_1  and  C_2
REMARK    2  A    between atoms: N_5  and  C_6
REMARK    3  A    between atoms: C_6  and  C_7
REMARK    4  A    between atoms: C_11  and  C_12
REMARK    5  A    between atoms: C_16  and  C_17
REMARK    6  A    between atoms: C_19  and  C_20
REMARK                            x       y       z     vdW  Elec       q    Type
REMARK                         _______ _______ _______ _____ _____    ______ ____
ROOT
ATOM      1  C   UNL     1      46.705   3.682  13.279  0.00  0.00    +0.000 C 
ATOM      2  C   UNL     1      46.893   5.166  13.366  0.00  0.00    +0.000 A 
ATOM      3  N   UNL     1      47.907   5.531  14.215  0.00  0.00    +0.000 NA
ATOM      4  C   UNL     1      48.176   6.822  14.458  0.00  0.00    +0.000 A 
ATOM      5  N   UNL     1      49.150   7.107  15.415  0.00  0.00    +0.000 N 
ATOM      6  C   UNL     1      47.536   7.800  13.739  0.00  0.00    +0.000 A 
ATOM      7  C   UNL     1      46.489   7.448  12.881  0.00  0.00    +0.000 A 
ATOM      8  C   UNL     1      46.096   6.100  12.699  0.00  0.00    +0.000 A 
ATOM      9  H   UNL     1      50.064   7.003  14.980  0.00  0.00    +0.000 HD
ENDROOT
BRANCH   8  10
ATOM     10  C   UNL     1      44.792   5.807  11.941  0.00  0.00    +0.000 C 
ATOM     11  C   UNL     1      43.654   5.408  12.904  0.00  0.00    +0.000 C 
ATOM     12  C   UNL     1      43.213   3.958  12.796  0.00  0.00    +0.000 C 
ATOM     13  N   UNL     1      42.938   3.594  11.413  0.00  0.00    +0.000 NA
ATOM     14  C   UNL     1      44.162   3.650  10.620  0.00  0.00    +0.000 C 
ATOM     15  C   UNL     1      44.806   5.034  10.607  0.00  0.00    +0.000 C 
ATOM     16  H   UNL     1      42.238   4.227  11.023  0.00  0.00    +0.000 HD
ENDBRANCH   8  10
BRANCH   7  17
ATOM     17  C   UNL     1      45.822   8.549  12.242  0.00  0.00    +0.000 C 
ATOM     18  N   UNL     1      45.265   9.437  11.746  0.00  0.00    +0.000 NA
ENDBRANCH   7  17
BRANCH   5  19
ATOM     19  C   UNL     1      49.043   8.383  16.120  0.00  0.00    +0.000 C 
BRANCH  19  20
ATOM     20  C   UNL     1      48.536   8.165  17.527  0.00  0.00    +0.000 A 
ATOM     21  C   UNL     1      47.807   9.156  18.201  0.00  0.00    +0.000 A 
ATOM     22  C   UNL     1      47.319   8.924  19.490  0.00  0.00    +0.000 A 
ATOM     23  C   UNL     1      47.551   7.700  20.117  0.00  0.00    +0.000 A 
ATOM     24  C   UNL     1      48.263   6.697  19.453  0.00  0.00    +0.000 A 
ATOM     25  C   UNL     1      48.744   6.927  18.160  0.00  0.00    +0.000 A 
BRANCH  24  26
ATOM     26  C   UNL     1      48.497   5.439  20.092  0.00  0.00    +0.000 C 
ATOM     27  N   UNL     1      48.682   4.414  20.609  0.00  0.00    +0.000 NA
ENDBRANCH  24  26
ENDBRANCH  19  20
ENDBRANCH   5  19
TORSDOF 5
ENDMDL
MODEL 4
REMARK VINA RESULT:    -5.867      2.978      6.931
REMARK INTER + INTRA:          -8.488
REMARK INTER:                  -7.970
REMARK INTRA:                  -0.518
REMARK UNBOUND:                -0.907
REMARK  Name = 
REMARK  6 active torsions:
REMARK  status: ('A' for Active; 'I' for Inactive)
REMARK    1  A    between atoms: C_1  and  C_2
REMARK    2  A    between atoms: N_5  and  C_6
REMARK    3  A    between atoms: C_6  and  C_7
REMARK    4  A    between atoms: C_11  and  C_12
REMARK    5  A    between atoms: C_16  and  C_17
REMARK    6  A    between atoms: C_19  and  C_20
REMARK                            x       y       z     vdW  Elec       q    Type
REMARK                         _______ _______ _______ _____ _____    ______ ____
ROOT
ATOM      1  C   UNL     1      44.695   7.714  11.408  0.00  0.00    +0.000 C 
ATOM      2  C   UNL     1      45.880   7.221  12.180  0.00  0.00    +0.000 A 
ATOM      3  N   UNL     1      46.975   8.040  12.066  0.00  0.00    +0.000 NA
ATOM      4  C   UNL     1      48.142   7.721  12.645  0.00  0.00    +0.000 A 
ATOM      5  N   UNL     1      49.233   8.552  12.392  0.00  0.00    +0.000 N 
ATOM      6  C   UNL     1      48.213   6.642  13.491  0.00  0.00    +0.000 A 
ATOM      7  C   UNL     1      47.112   5.787  13.607  0.00  0.00    +0.000 A 
ATOM      8  C   UNL     1      45.905   6.027  12.907  0.00  0.00    +0.000 A 
ATOM      9  H   UNL     1      49.161   9.367  12.996  0.00  0.00    +0.000 HD
ENDROOT
BRANCH   8  10
ATOM     10  C   UNL     1      44.832   4.928  12.886  0.00  0.00    +0.000 C 
ATOM     11  C   UNL     1      45.100   3.896  11.771  0.00  0.00    +0.000 C 
ATOM     12  C   UNL     1      44.092   3.917  10.634  0.00  0.00    +0.000 C 
ATOM     13  N   UNL     1      42.727   3.861  11.140  0.00  0.00    +0.000 NA
ATOM     14  C   UNL     1      42.421   5.066  11.905  0.00  0.00    +0.000 C 
ATOM     15  C   UNL     1      43.344   5.266  13.105  0.00  0.00    +0.000 C 
ATOM     16  H   UNL     1      42.611   3.034  11.727  0.00  0.00    +0.000 HD
ENDBRANCH   8  10
BRANCH   7  17
ATOM     17  C   UNL     1      47.314   4.637  14.444  0.00  0.00    +0.000 C 
ATOM     18  N   UNL     1      47.453   3.702  15.115  0.00  0.00    +0.000 NA
ENDBRANCH   7  17
BRANCH   5  19
ATOM     19  C   UNL     1      50.564   7.951  12.471  0.00  0.00    +0.000 C 
BRANCH  19  20
ATOM     20  C   UNL     1      51.371   8.298  11.242  0.00  0.00    +0.000 A 
ATOM     21  C   UNL     1      51.756   9.619  10.972  0.00  0.00    +0.000 A 
ATOM     22  C   UNL     1      52.530   9.916   9.847  0.00  0.00    +0.000 A 
ATOM     23  C   UNL     1      52.931   8.897   8.983  0.00  0.00    +0.000 A 
ATOM     24  C   UNL     1      52.568   7.573   9.246  0.00  0.00    +0.000 A 
ATOM     25  C   UNL     1      51.800   7.277  10.377  0.00  0.00    +0.000 A 
BRANCH  24  26
ATOM     26  C   UNL     1      52.982   6.526   8.365  0.00  0.00    +0.000 C 
ATOM     27  N   UNL     1      53.314   5.674   7.646  0.00  0.00    +0.000 NA
ENDBRANCH  24  26
ENDBRANCH  19  20
ENDBRANCH   5  19
TORSDOF 5
ENDMDL
MODEL 5
REMARK VINA RESULT:    -5.780      1.889      2.746
REMARK INTER + INTRA:          -8.376
REMARK INTER:                  -7.560
REMARK INTRA:                  -0.816
REMARK UNBOUND:                -0.907
REMARK  Name = 
REMARK  6 active torsions:
REMARK  status: ('A' for Active; 'I' for Inactive)
REMARK    1  A    between atoms: C_1  and  C_2
REMARK    2  A    between atoms: N_5  and  C_6
REMARK    3  A    between atoms: C_6  and  C_7
REMARK    4  A    between atoms: C_11  and  C_12
REMARK    5  A    between atoms: C_16  and  C_17
REMARK    6  A    between atoms: C_19  and  C_20
REMARK                            x       y       z     vdW  Elec       q    Type
REMARK                         _______ _______ _______ _____ _____    ______ ____
ROOT
ATOM      1  C   UNL     1      49.226   7.286  14.085  0.00  0.00    +0.000 C 
ATOM      2  C   UNL     1      47.908   7.669  13.484  0.00  0.00    +0.000 A 
ATOM      3  N   UNL     1      46.994   6.647  13.493  0.00  0.00    +0.000 NA
ATOM      4  C   UNL     1      45.781   6.797  12.942  0.00  0.00    +0.000 A 
ATOM      5  N   UNL     1      44.952   5.677  12.898  0.00  0.00    +0.000 N 
ATOM      6  C   UNL     1      45.382   8.032  12.495  0.00  0.00    +0.000 A 
ATOM      7  C   UNL     1      46.305   9.082  12.463  0.00  0.00    +0.000 A 
ATOM      8  C   UNL     1      47.635   8.919  12.921  0.00  0.00    +0.000 A 
ATOM      9  H   UNL     1      44.518   5.565  13.811  0.00  0.00    +0.000 HD
ENDROOT
BRANCH   8  10
ATOM     10  C   UNL     1      48.657  10.030  12.632  0.00  0.00    +0.000 C 
ATOM     11  C   UNL     1      49.573   9.663  11.446  0.00  0.00    +0.000 C 
ATOM     12  C   UNL     1      51.021   9.402  11.822  0.00  0.00    +0.000 C 
ATOM     13  N   UNL     1      51.556  10.485  12.636  0.00  0.00    +0.000 NA
ATOM     14  C   UNL     1      50.864  10.545  13.919  0.00  0.00    +0.000 C 
ATOM     15  C   UNL     1      49.361  10.779  13.781  0.00  0.00    +0.000 C 
ATOM     16  H   UNL     1      51.453  11.372  12.140  0.00  0.00    +0.000 HD
ENDBRANCH   8  10
BRANCH   7  17
ATOM     17  C   UNL     1      45.819  10.309  11.894  0.00  0.00    +0.000 C 
ATOM     18  N   UNL     1      45.412  11.302  11.456  0.00  0.00    +0.000 NA
ENDBRANCH   7  17
BRANCH   5  19
ATOM     19  C   UNL     1      43.955   5.623  11.829  0.00  0.00    +0.000 C 
BRANCH  19  20
ATOM     20  C   UNL     1      44.237   4.462  10.905  0.00  0.00    +0.000 A 
ATOM     21  C   UNL     1      43.732   3.180  11.170  0.00  0.00    +0.000 A 
ATOM     22  C   UNL     1      43.976   2.125  10.286  0.00  0.00    +0.000 A 
ATOM     23  C   UNL     1      44.724   2.340   9.128  0.00  0.00    +0.000 A 
ATOM     24  C   UNL     1      45.221   3.615   8.843  0.00  0.00    +0.000 A 
ATOM     25  C   UNL     1      44.969   4.671   9.724  0.00  0.00    +0.000 A 
BRANCH  24  26
ATOM     26  C   UNL     1      45.982   3.838   7.653  0.00  0.00    +0.000 C 
ATOM     27  N   UNL     1      46.606   4.018   6.688  0.00  0.00    +0.000 NA
ENDBRANCH  24  26
ENDBRANCH  19  20
ENDBRANCH   5  19
TORSDOF 5
ENDMDL
MODEL 6
REMARK VINA RESULT:    -5.423      4.022      5.886
REMARK INTER + INTRA:          -7.915
REMARK INTER:                  -7.297
REMARK INTRA:                  -0.618
REMARK UNBOUND:                -0.907
REMARK  Name = 
REMARK  6 active torsions:
REMARK  status: ('A' for Active; 'I' for Inactive)
REMARK    1  A    between atoms: C_1  and  C_2
REMARK    2  A    between atoms: N_5  and  C_6
REMARK    3  A    between atoms: C_6  and  C_7
REMARK    4  A    between atoms: C_11  and  C_12
REMARK    5  A    between atoms: C_16  and  C_17
REMARK    6  A    between atoms: C_19  and  C_20
REMARK                            x       y       z     vdW  Elec       q    Type
REMARK                         _______ _______ _______ _____ _____    ______ ____
ROOT
ATOM      1  C   UNL     1      50.280   2.403  17.475  0.00  0.00    +0.000 C 
ATOM      2  C   UNL     1      49.519   3.640  17.106  0.00  0.00    +0.000 A 
ATOM      3  N   UNL     1      48.486   3.398  16.237  0.00  0.00    +0.000 NA
ATOM      4  C   UNL     1      47.736   4.400  15.755  0.00  0.00    +0.000 A 
ATOM      5  N   UNL     1      46.777   4.081  14.795  0.00  0.00    +0.000 N 
ATOM      6  C   UNL     1      47.896   5.671  16.249  0.00  0.00    +0.000 A 
ATOM      7  C   UNL     1      48.953   5.940  17.125  0.00  0.00    +0.000 A 
ATOM      8  C   UNL     1      49.843   4.925  17.552  0.00  0.00    +0.000 A 
ATOM      9  H   UNL     1      45.961   3.705  15.271  0.00  0.00    +0.000 HD
ENDROOT
BRANCH   8  10
ATOM     10  C   UNL     1      51.117   5.330  18.310  0.00  0.00    +0.000 C 
ATOM     11  C   UNL     1      52.318   5.490  17.354  0.00  0.00    +0.000 C 
ATOM     12  C   UNL     1      53.403   4.440  17.520  0.00  0.00    +0.000 C 
ATOM     13  N   UNL     1      53.803   4.313  18.915  0.00  0.00    +0.000 NA
ATOM     14  C   UNL     1      52.694   3.804  19.716  0.00  0.00    +0.000 C 
ATOM     15  C   UNL     1      51.461   4.705  19.676  0.00  0.00    +0.000 C 
ATOM     16  H   UNL     1      54.104   5.221  19.270  0.00  0.00    +0.000 HD
ENDBRANCH   8  10
BRANCH   7  17
ATOM     17  C   UNL     1      49.092   7.316  17.514  0.00  0.00    +0.000 C 
ATOM     18  N   UNL     1      49.179   8.428  17.829  0.00  0.00    +0.000 NA
ENDBRANCH   7  17
BRANCH   5  19
ATOM     19  C   UNL     1      46.400   5.132  13.851  0.00  0.00    +0.000 C 
BRANCH  19  20
ATOM     20  C   UNL     1      45.249   4.674  12.986  0.00  0.00    +0.000 A 
ATOM     21  C   UNL     1      43.935   5.092  13.239  0.00  0.00    +0.000 A 
ATOM     22  C   UNL     1      42.887   4.684  12.409  0.00  0.00    +0.000 A 
ATOM     23  C   UNL     1      43.142   3.856  11.316  0.00  0.00    +0.000 A 
ATOM     24  C   UNL     1      44.448   3.442  11.041  0.00  0.00    +0.000 A 
ATOM     25  C   UNL     1      45.497   3.858  11.868  0.00  0.00    +0.000 A 
BRANCH  24  26
ATOM     26  C   UNL     1      44.713   2.598   9.917  0.00  0.00    +0.000 C 
ATOM     27  N   UNL     1      44.927   1.907   9.006  0.00  0.00    +0.000 NA
ENDBRANCH  24  26
ENDBRANCH  19  20
ENDBRANCH   5  19
TORSDOF 5
ENDMDL
MODEL 7
REMARK VINA RESULT:    -5.392      2.322      4.447
REMARK INTER + INTRA:          -7.874
REMARK INTER:                  -7.048
REMARK INTRA:                  -0.827
REMARK UNBOUND:                -0.907
REMARK  Name = 
REMARK  6 active torsions:
REMARK  status: ('A' for Active; 'I' for Inactive)
REMARK    1  A    between atoms: C_1  and  C_2
REMARK    2  A    between atoms: N_5  and  C_6
REMARK    3  A    between atoms: C_6  and  C_7
REMARK    4  A    between atoms: C_11  and  C_12
REMARK    5  A    between atoms: C_16  and  C_17
REMARK    6  A    between atoms: C_19  and  C_20
REMARK                            x       y       z     vdW  Elec       q    Type
REMARK                         _______ _______ _______ _____ _____    ______ ____
ROOT
ATOM      1  C   UNL     1      50.378   8.549  14.449  0.00  0.00    +0.000 C 
ATOM      2  C   UNL     1      49.261   7.571  14.251  0.00  0.00    +0.000 A 
ATOM      3  N   UNL     1      48.573   7.769  13.082  0.00  0.00    +0.000 NA
ATOM      4  C   UNL     1      47.504   7.020  12.771  0.00  0.00    +0.000 A 
ATOM      5  N   UNL     1      46.797   7.356  11.618  0.00  0.00    +0.000 N 
ATOM      6  C   UNL     1      47.177   5.940  13.553  0.00  0.00    +0.000 A 
ATOM      7  C   UNL     1      47.857   5.731  14.757  0.00  0.00    +0.000 A 
ATOM      8  C   UNL     1      48.909   6.582  15.175  0.00  0.00    +0.000 A 
ATOM      9  H   UNL     1      47.292   6.972  10.817  0.00  0.00    +0.000 HD
ENDROOT
BRANCH   8  10
ATOM     10  C   UNL     1      49.443   6.446  16.610  0.00  0.00    +0.000 C 
ATOM     11  C   UNL     1      48.844   7.519  17.542  0.00  0.00    +0.000 C 
ATOM     12  C   UNL     1      49.837   8.563  18.026  0.00  0.00    +0.000 C 
ATOM     13  N   UNL     1      51.031   7.936  18.577  0.00  0.00    +0.000 NA
ATOM     14  C   UNL     1      51.755   7.218  17.534  0.00  0.00    +0.000 C 
ATOM     15  C   UNL     1      50.925   6.117  16.876  0.00  0.00    +0.000 C 
ATOM     16  H   UNL     1      50.768   7.295  19.327  0.00  0.00    +0.000 HD
ENDBRANCH   8  10
BRANCH   7  17
ATOM     17  C   UNL     1      47.382   4.630  15.547  0.00  0.00    +0.000 C 
ATOM     18  N   UNL     1      46.978   3.739  16.169  0.00  0.00    +0.000 NA
ENDBRANCH   7  17
BRANCH   5  19
ATOM     19  C   UNL     1      45.377   7.008  11.577  0.00  0.00    +0.000 C 
BRANCH  19  20
ATOM     20  C   UNL     1      45.171   5.735  10.790  0.00  0.00    +0.000 A 
ATOM     21  C   UNL     1      45.729   5.568   9.514  0.00  0.00    +0.000 A 
ATOM     22  C   UNL     1      45.554   4.370   8.814  0.00  0.00    +0.000 A 
ATOM     23  C   UNL     1      44.823   3.327   9.383  0.00  0.00    +0.000 A 
ATOM     24  C   UNL     1      44.273   3.473  10.660  0.00  0.00    +0.000 A 
ATOM     25  C   UNL     1      44.456   4.668  11.362  0.00  0.00    +0.000 A 
BRANCH  24  26
ATOM     26  C   UNL     1      43.528   2.402  11.247  0.00  0.00    +0.000 C 
ATOM     27  N   UNL     1      42.927   1.531  11.728  0.00  0.00    +0.000 NA
ENDBRANCH  24  26
ENDBRANCH  19  20
ENDBRANCH   5  19
TORSDOF 5
ENDMDL
MODEL 8
REMARK VINA RESULT:    -5.349      2.278      7.776
REMARK INTER + INTRA:          -7.818
REMARK INTER:                  -8.000
REMARK INTRA:                   0.181
REMARK UNBOUND:                -0.907
REMARK  Name = 
REMARK  6 active torsions:
REMARK  status: ('A' for Active; 'I' for Inactive)
REMARK    1  A    between atoms: C_1  and  C_2
REMARK    2  A    between atoms: N_5  and  C_6
REMARK    3  A    between atoms: C_6  and  C_7
REMARK    4  A    between atoms: C_11  and  C_12
REMARK    5  A    between atoms: C_16  and  C_17
REMARK    6  A    between atoms: C_19  and  C_20
REMARK                            x       y       z     vdW  Elec       q    Type
REMARK                         _______ _______ _______ _____ _____    ______ ____
ROOT
ATOM      1  C   UNL     1      43.910   8.607  11.025  0.00  0.00    +0.000 C 
ATOM      2  C   UNL     1      44.900   7.847  11.855  0.00  0.00    +0.000 A 
ATOM      3  N   UNL     1      45.762   8.660  12.544  0.00  0.00    +0.000 NA
ATOM      4  C   UNL     1      46.751   8.147  13.291  0.00  0.00    +0.000 A 
ATOM      5  N   UNL     1      47.649   9.042  13.871  0.00  0.00    +0.000 N 
ATOM      6  C   UNL     1      46.817   6.792  13.499  0.00  0.00    +0.000 A 
ATOM      7  C   UNL     1      45.955   5.946  12.793  0.00  0.00    +0.000 A 
ATOM      8  C   UNL     1      44.983   6.452  11.897  0.00  0.00    +0.000 A 
ATOM      9  H   UNL     1      47.220   9.425  14.710  0.00  0.00    +0.000 HD
ENDROOT
BRANCH   8  10
ATOM     10  C   UNL     1      44.243   5.468  10.977  0.00  0.00    +0.000 C 
ATOM     11  C   UNL     1      43.087   4.761  11.716  0.00  0.00    +0.000 C 
ATOM     12  C   UNL     1      43.303   3.277  11.954  0.00  0.00    +0.000 C 
ATOM     13  N   UNL     1      43.688   2.597  10.724  0.00  0.00    +0.000 NA
ATOM     14  C   UNL     1      44.989   3.074  10.267  0.00  0.00    +0.000 C 
ATOM     15  C   UNL     1      45.015   4.575   9.986  0.00  0.00    +0.000 C 
ATOM     16  H   UNL     1      42.982   2.762  10.005  0.00  0.00    +0.000 HD
ENDBRANCH   8  10
BRANCH   7  17
ATOM     17  C   UNL     1      46.162   4.540  13.010  0.00  0.00    +0.000 C 
ATOM     18  N   UNL     1      46.309   3.407  13.202  0.00  0.00    +0.000 NA
ENDBRANCH   7  17
BRANCH   5  19
ATOM     19  C   UNL     1      49.000   8.552  14.145  0.00  0.00    +0.000 C 
BRANCH  19  20
ATOM     20  C   UNL     1      49.085   8.001  15.549  0.00  0.00    +0.000 A 
ATOM     21  C   UNL     1      48.544   8.697  16.640  0.00  0.00    +0.000 A 
ATOM     22  C   UNL     1      48.603   8.155  17.927  0.00  0.00    +0.000 A 
ATOM     23  C   UNL     1      49.200   6.912  18.137  0.00  0.00    +0.000 A 
ATOM     24  C   UNL     1      49.731   6.199  17.058  0.00  0.00    +0.000 A 
ATOM     25  C   UNL     1      49.663   6.739  15.770  0.00  0.00    +0.000 A 
BRANCH  24  26
ATOM     26  C   UNL     1      50.338   4.922  17.271  0.00  0.00    +0.000 C 
ATOM     27  N   UNL     1      50.837   3.886  17.444  0.00  0.00    +0.000 NA
ENDBRANCH  24  26
ENDBRANCH  19  20
ENDBRANCH   5  19
TORSDOF 5
ENDMDL
MODEL 9
REMARK VINA RESULT:    -5.226      2.674      7.783
REMARK INTER + INTRA:          -7.661
REMARK INTER:                  -7.069
REMARK INTRA:                  -0.592
REMARK UNBOUND:                -0.907
REMARK  Name = 
REMARK  6 active torsions:
REMARK  status: ('A' for Active; 'I' for Inactive)
REMARK    1  A    between atoms: C_1  and  C_2
REMARK    2  A    between atoms: N_5  and  C_6
REMARK    3  A    between atoms: C_6  and  C_7
REMARK    4  A    between atoms: C_11  and  C_12
REMARK    5  A    between atoms: C_16  and  C_17
REMARK    6  A    between atoms: C_19  and  C_20
REMARK                            x       y       z     vdW  Elec       q    Type
REMARK                         _______ _______ _______ _____ _____    ______ ____
ROOT
ATOM      1  C   UNL     1      44.736   7.399  11.418  0.00  0.00    +0.000 C 
ATOM      2  C   UNL     1      45.863   6.971  12.307  0.00  0.00    +0.000 A 
ATOM      3  N   UNL     1      46.925   7.838  12.285  0.00  0.00    +0.000 NA
ATOM      4  C   UNL     1      48.045   7.580  12.977  0.00  0.00    +0.000 A 
ATOM      5  N   UNL     1      49.117   8.457  12.816  0.00  0.00    +0.000 N 
ATOM      6  C   UNL     1      48.083   6.515  13.843  0.00  0.00    +0.000 A 
ATOM      7  C   UNL     1      47.015   5.611  13.867  0.00  0.00    +0.000 A 
ATOM      8  C   UNL     1      45.871   5.788  13.052  0.00  0.00    +0.000 A 
ATOM      9  H   UNL     1      48.951   9.274  13.398  0.00  0.00    +0.000 HD
ENDROOT
BRANCH   8  10
ATOM     10  C   UNL     1      44.855   4.639  12.946  0.00  0.00    +0.000 C 
ATOM     11  C   UNL     1      45.207   3.676  11.793  0.00  0.00    +0.000 C 
ATOM     12  C   UNL     1      44.232   3.703  10.628  0.00  0.00    +0.000 C 
ATOM     13  N   UNL     1      42.858   3.557  11.088  0.00  0.00    +0.000 NA
ATOM     14  C   UNL     1      42.470   4.707  11.898  0.00  0.00    +0.000 C 
ATOM     15  C   UNL     1      43.347   4.895  13.134  0.00  0.00    +0.000 C 
ATOM     16  H   UNL     1      42.766   2.698  11.632  0.00  0.00    +0.000 HD
ENDBRANCH   8  10
BRANCH   7  17
ATOM     17  C   UNL     1      47.188   4.481  14.738  0.00  0.00    +0.000 C 
ATOM     18  N   UNL     1      47.353   3.576  15.442  0.00  0.00    +0.000 NA
ENDBRANCH   7  17
BRANCH   5  19
ATOM     19  C   UNL     1      50.460   7.919  13.031  0.00  0.00    +0.000 C 
BRANCH  19  20
ATOM     20  C   UNL     1      51.477   8.721  12.253  0.00  0.00    +0.000 A 
ATOM     21  C   UNL     1      52.850   8.611  12.521  0.00  0.00    +0.000 A 
ATOM     22  C   UNL     1      53.779   9.336  11.770  0.00  0.00    +0.000 A 
ATOM     23  C   UNL     1      53.347  10.175  10.742  0.00  0.00    +0.000 A 
ATOM     24  C   UNL     1      51.984  10.284  10.453  0.00  0.00    +0.000 A 
ATOM     25  C   UNL     1      51.056   9.551  11.201  0.00  0.00    +0.000 A 
BRANCH  24  26
ATOM     26  C   UNL     1      51.540  11.139   9.397  0.00  0.00    +0.000 C 
ATOM     27  N   UNL     1      51.185  11.834   8.535  0.00  0.00    +0.000 NA
ENDBRANCH  24  26
ENDBRANCH  19  20
ENDBRANCH   5  19
TORSDOF 5
ENDMDL
