MODEL 1
REMARK VINA RESULT:    -7.397      0.000      0.000
REMARK INTER + INTRA:         -10.147
REMARK INTER:                  -9.560
REMARK INTRA:                  -0.588
REMARK UNBOUND:                -0.588
REMARK  Name = 
REMARK  5 active torsions:
REMARK  status: ('A' for Active; 'I' for Inactive)
REMARK    1  A    between atoms: C_2  and  C_4
REMARK    2  A    between atoms: C_8  and  C_9
REMARK    3  A    between atoms: C_9  and  N_10
REMARK    4  A    between atoms: N_10  and  C_11
REMARK    5  A    between atoms: C_15  and  N_16
REMARK                            x       y       z     vdW  Elec       q    Type
REMARK                         _______ _______ _______ _____ _____    ______ ____
ROOT
ATOM      1  N   UNL     1      45.889   6.500  13.130  0.00  0.00    +0.000 N 
ATOM      2  H   UNL     1      45.568   7.386  12.739  0.00  0.00    +0.000 HD
ENDROOT
BRANCH   1   3
ATOM      3  C   UNL     1      45.162   5.421  12.598  0.00  0.00    +0.000 A 
ATOM      4  C   UNL     1      44.331   4.658  13.419  0.00  0.00    +0.000 A 
ATOM      5  N   UNL     1      43.621   3.581  13.020  0.00  0.00    +0.000 NA
ATOM      6  C   UNL     1      43.786   3.206  11.729  0.00  0.00    +0.000 A 
ATOM      7  C   UNL     1      44.626   3.828  10.800  0.00  0.00    +0.000 A 
ATOM      8  C   UNL     1      45.321   4.948  11.287  0.00  0.00    +0.000 A 
BRANCH   7   9
ATOM      9  N   UNL     1      44.767   3.379   9.505  0.00  0.00    +0.000 N 
ATOM     10  C   UNL     1      44.719   1.961   9.121  0.00  0.00    +0.000 C 
ATOM     11  C   UNL     1      46.009   1.581   8.380  0.00  0.00    +0.000 C 
ATOM     12  O   UNL     1      46.238   2.441   7.250  0.00  0.00    +0.000 OA
ATOM     13  C   UNL     1      46.344   3.811   7.675  0.00  0.00    +0.000 C 
ATOM     14  C   UNL     1      45.065   4.290   8.389  0.00  0.00    +0.000 C 
ENDBRANCH   7   9
ENDBRANCH   1   3
BRANCH   1  15
ATOM     15  C   UNL     1      47.352   6.426  13.095  0.00  0.00    +0.000 C 
BRANCH  15  20
ATOM     16  C   UNL     1      48.067   4.696  16.299  0.00  0.00    +0.000 A 
ATOM     17  C   UNL     1      48.864   5.586  17.006  0.00  0.00    +0.000 A 
ATOM     18  C   UNL     1      49.194   6.792  16.401  0.00  0.00    +0.000 A 
ATOM     19  C   UNL     1      48.712   7.069  15.123  0.00  0.00    +0.000 A 
ATOM     20  C   UNL     1      47.910   6.124  14.476  0.00  0.00    +0.000 A 
ATOM     21  N   UNL     1      47.587   4.933  15.043  0.00  0.00    +0.000 NA
BRANCH  16  23
ATOM     22  N   UNL     1      48.710   2.492  17.079  0.00  0.00    +0.000 N 
ATOM     23  C   UNL     1      47.688   3.391  16.927  0.00  0.00    +0.000 C 
ATOM     24  O   UNL     1      46.546   3.134  17.287  0.00  0.00    +0.000 OA
ATOM     25  H   UNL     1      48.526   1.600  17.514  0.00  0.00    +0.000 HD
ATOM     26  H   UNL     1      49.647   2.746  16.793  0.00  0.00    +0.000 HD
ENDBRANCH  16  23
ENDBRANCH  15  20
ENDBRANCH   1  15
TORSDOF 5
ENDMDL
MODEL 2
REMARK VINA RESULT:    -7.325      2.696      7.078
REMARK INTER + INTRA:         -10.054
REMARK INTER:                  -9.800
REMARK INTRA:                  -0.254
REMARK UNBOUND:                -0.588
REMARK  Name = 
REMARK  5 active torsions:
REMARK  status: ('A' for Active; 'I' for Inactive)
REMARK    1  A    between atoms: C_2  and  C_4
REMARK    2  A    between atoms: C_8  and  C_9
REMARK    3  A    between atoms: C_9  and  N_10
REMARK    4  A    between atoms: N_10  and  C_11
REMARK    5  A    between atoms: C_15  and  N_16
REMARK                            x       y       z     vdW  Elec       q    Type
REMARK                         _______ _______ _______ _____ _____    ______ ____
ROOT
ATOM      1  N   UNL     1      44.897   2.623  12.192  0.00  0.00    +0.000 N 
ATOM      2  H   UNL     1      45.421   1.771  11.994  0.00  0.00    +0.000 HD
ENDROOT
BRANCH   1   3
ATOM      3  C   UNL     1      45.752   3.656  12.613  0.00  0.00    +0.000 A 
ATOM      4  C   UNL     1      46.636   3.450  13.674  0.00  0.00    +0.000 A 
ATOM      5  N   UNL     1      47.470   4.383  14.181  0.00  0.00    +0.000 NA
ATOM      6  C   UNL     1      47.385   5.618  13.632  0.00  0.00    +0.000 A 
ATOM      7  C   UNL     1      46.511   5.997  12.609  0.00  0.00    +0.000 A 
ATOM      8  C   UNL     1      45.685   4.969  12.125  0.00  0.00    +0.000 A 
BRANCH   7   9
ATOM      9  N   UNL     1      46.458   7.281  12.111  0.00  0.00    +0.000 N 
ATOM     10  C   UNL     1      47.633   8.155  11.979  0.00  0.00    +0.000 C 
ATOM     11  C   UNL     1      47.393   9.464  12.744  0.00  0.00    +0.000 C 
ATOM     12  O   UNL     1      46.184  10.112  12.311  0.00  0.00    +0.000 OA
ATOM     13  C   UNL     1      45.051   9.249  12.517  0.00  0.00    +0.000 C 
ATOM     14  C   UNL     1      45.189   7.926  11.741  0.00  0.00    +0.000 C 
ENDBRANCH   7   9
ENDBRANCH   1   3
BRANCH   1  15
ATOM     15  C   UNL     1      43.959   2.911  11.103  0.00  0.00    +0.000 C 
BRANCH  15  20
ATOM     16  C   UNL     1      46.082   2.153   8.155  0.00  0.00    +0.000 A 
ATOM     17  C   UNL     1      46.086   3.328   7.416  0.00  0.00    +0.000 A 
ATOM     18  C   UNL     1      45.350   4.404   7.895  0.00  0.00    +0.000 A 
ATOM     19  C   UNL     1      44.648   4.272   9.091  0.00  0.00    +0.000 A 
ATOM     20  C   UNL     1      44.695   3.058   9.781  0.00  0.00    +0.000 A 
ATOM     21  N   UNL     1      45.397   1.988   9.324  0.00  0.00    +0.000 NA
BRANCH  16  23
ATOM     22  N   UNL     1      47.975   1.279   6.917  0.00  0.00    +0.000 N 
ATOM     23  C   UNL     1      46.872   0.977   7.670  0.00  0.00    +0.000 C 
ATOM     24  O   UNL     1      46.565  -0.181   7.926  0.00  0.00    +0.000 OA
ATOM     25  H   UNL     1      48.563   0.534   6.575  0.00  0.00    +0.000 HD
ATOM     26  H   UNL     1      48.214   2.249   6.745  0.00  0.00    +0.000 HD
ENDBRANCH  16  23
ENDBRANCH  15  20
ENDBRANCH   1  15
TORSDOF 5
ENDMDL
MODEL 3
REMARK VINA RESULT:    -7.073      2.328      3.698
REMARK INTER + INTRA:          -9.728
REMARK INTER:                  -9.034
REMARK INTRA:                  -0.694
REMARK UNBOUND:                -0.588
REMARK  Name = 
REMARK  5 active torsions:
REMARK  status: ('A' for Active; 'I' for Inactive)
REMARK    1  A    between atoms: C_2  and  C_4
REMARK    2  A    between atoms: C_8  and  C_9
REMARK    3  A    between atoms: C_9  and  N_10
REMARK    4  A    between atoms: N_10  and  C_11
REMARK    5  A    between atoms: C_15  and  N_16
REMARK                            x       y       z     vdW  Elec       q    Type
REMARK                         _______ _______ _______ _____ _____    ______ ____
ROOT
ATOM      1  N   UNL     1      49.037   6.616  14.682  0.00  0.00    +0.000 N 
ATOM      2  H   UNL     1      49.402   5.669  14.577  0.00  0.00    +0.000 HD
ENDROOT
BRANCH   1   3
ATOM      3  C   UNL     1      47.826   6.770  13.985  0.00  0.00    +0.000 A 
ATOM      4  C   UNL     1      47.377   8.042  13.625  0.00  0.00    +0.000 A 
ATOM      5  N   UNL     1      46.214   8.304  12.991  0.00  0.00    +0.000 NA
ATOM      6  C   UNL     1      45.420   7.235  12.741  0.00  0.00    +0.000 A 
ATOM      7  C   UNL     1      45.700   5.911  13.091  0.00  0.00    +0.000 A 
ATOM      8  C   UNL     1      46.933   5.718  13.737  0.00  0.00    +0.000 A 
BRANCH   7   9
ATOM      9  N   UNL     1      44.834   4.872  12.828  0.00  0.00    +0.000 N 
ATOM     10  C   UNL     1      45.267   3.548  12.360  0.00  0.00    +0.000 C 
ATOM     11  C   UNL     1      44.559   3.208  11.041  0.00  0.00    +0.000 C 
ATOM     12  O   UNL     1      43.130   3.296  11.173  0.00  0.00    +0.000 OA
ATOM     13  C   UNL     1      42.743   4.624  11.569  0.00  0.00    +0.000 C 
ATOM     14  C   UNL     1      43.374   5.027  12.915  0.00  0.00    +0.000 C 
ENDBRANCH   7   9
ENDBRANCH   1   3
BRANCH   1  15
ATOM     15  C   UNL     1      49.076   7.025  16.089  0.00  0.00    +0.000 C 
BRANCH  15  20
ATOM     16  C   UNL     1      49.311   3.577  17.442  0.00  0.00    +0.000 A 
ATOM     17  C   UNL     1      48.587   3.617  18.626  0.00  0.00    +0.000 A 
ATOM     18  C   UNL     1      48.016   4.825  19.003  0.00  0.00    +0.000 A 
ATOM     19  C   UNL     1      48.178   5.941  18.186  0.00  0.00    +0.000 A 
ATOM     20  C   UNL     1      48.917   5.822  17.005  0.00  0.00    +0.000 A 
ATOM     21  N   UNL     1      49.496   4.654  16.624  0.00  0.00    +0.000 NA
BRANCH  16  23
ATOM     22  N   UNL     1      50.946   1.823  17.799  0.00  0.00    +0.000 N 
ATOM     23  C   UNL     1      49.933   2.288  17.003  0.00  0.00    +0.000 C 
ATOM     24  O   UNL     1      49.567   1.679  16.005  0.00  0.00    +0.000 OA
ATOM     25  H   UNL     1      51.395   0.948  17.571  0.00  0.00    +0.000 HD
ATOM     26  H   UNL     1      51.207   2.338  18.631  0.00  0.00    +0.000 HD
ENDBRANCH  16  23
ENDBRANCH  15  20
ENDBRANCH   1  15
TORSDOF 5
ENDMDL
MODEL 4
REMARK VINA RESULT:    -6.870      1.912      2.969
REMARK INTER + INTRA:          -9.467
REMARK INTER:                  -8.749
REMARK INTRA:                  -0.717
REMARK UNBOUND:                -0.588
REMARK  Name = 
REMARK  5 active torsions:
REMARK  status: ('A' for Active; 'I' for Inactive)
REMARK    1  A    between atoms: C_2  and  C_4
REMARK    2  A    between atoms: C_8  and  C_9
REMARK    3  A    between atoms: C_9  and  N_10
REMARK    4  A    between atoms: N_10  and  C_11
REMARK    5  A    between atoms: C_15  and  N_16
REMARK                            x       y       z     vdW  Elec       q    Type
REMARK                         _______ _______ _______ _____ _____    ______ ____
ROOT
ATOM      1  N   UNL     1      48.723   6.781  13.167  0.00  0.00    +0.000 N 
ATOM      2  H   UNL     1      48.838   5.781  13.333  0.00  0.00    +0.000 HD
ENDROOT
BRANCH   1   3
ATOM      3  C   UNL     1      47.462   7.058  12.613  0.00  0.00    +0.000 A 
ATOM      4  C   UNL     1      46.895   8.327  12.750  0.00  0.00    +0.000 A 
ATOM      5  N   UNL     1      45.677   8.687  12.291  0.00  0.00    +0.000 NA
ATOM      6  C   UNL     1      44.951   7.707  11.700  0.00  0.00    +0.000 A 
ATOM      7  C   UNL     1      45.353   6.378  11.541  0.00  0.00    +0.000 A 
ATOM      8  C   UNL     1      46.636   6.084  12.032  0.00  0.00    +0.000 A 
BRANCH   7   9
ATOM      9  N   UNL     1      44.554   5.423  10.950  0.00  0.00    +0.000 N 
ATOM     10  C   UNL     1      43.222   5.051  11.448  0.00  0.00    +0.000 C 
ATOM     11  C   UNL     1      43.176   3.542  11.727  0.00  0.00    +0.000 C 
ATOM     12  O   UNL     1      43.553   2.781  10.566  0.00  0.00    +0.000 OA
ATOM     13  C   UNL     1      44.886   3.128  10.150  0.00  0.00    +0.000 C 
ATOM     14  C   UNL     1      45.007   4.623   9.802  0.00  0.00    +0.000 C 
ENDBRANCH   7   9
ENDBRANCH   1   3
BRANCH   1  15
ATOM     15  C   UNL     1      49.138   7.547  14.345  0.00  0.00    +0.000 C 
BRANCH  15  20
ATOM     16  C   UNL     1      48.164   4.825  16.672  0.00  0.00    +0.000 A 
ATOM     17  C   UNL     1      48.142   5.426  17.923  0.00  0.00    +0.000 A 
ATOM     18  C   UNL     1      48.476   6.772  18.008  0.00  0.00    +0.000 A 
ATOM     19  C   UNL     1      48.810   7.466  16.848  0.00  0.00    +0.000 A 
ATOM     20  C   UNL     1      48.806   6.793  15.623  0.00  0.00    +0.000 A 
ATOM     21  N   UNL     1      48.496   5.475  15.518  0.00  0.00    +0.000 NA
BRANCH  16  23
ATOM     22  N   UNL     1      46.998   2.884  17.539  0.00  0.00    +0.000 N 
ATOM     23  C   UNL     1      47.801   3.378  16.546  0.00  0.00    +0.000 C 
ATOM     24  O   UNL     1      48.187   2.674  15.620  0.00  0.00    +0.000 OA
ATOM     25  H   UNL     1      46.699   1.920  17.503  0.00  0.00    +0.000 HD
ATOM     26  H   UNL     1      46.677   3.499  18.276  0.00  0.00    +0.000 HD
ENDBRANCH  16  23
ENDBRANCH  15  20
ENDBRANCH   1  15
TORSDOF 5
ENDMDL
MODEL 5
REMARK VINA RESULT:    -6.856      2.617      7.547
REMARK INTER + INTRA:          -9.448
REMARK INTER:                  -8.883
REMARK INTRA:                  -0.566
REMARK UNBOUND:                -0.588
REMARK  Name = 
REMARK  5 active torsions:
REMARK  status: ('A' for Active; 'I' for Inactive)
REMARK    1  A    between atoms: C_2  and  C_4
REMARK    2  A    between atoms: C_8  and  C_9
REMARK    3  A    between atoms: C_9  and  N_10
REMARK    4  A    between atoms: N_10  and  C_11
REMARK    5  A    between atoms: C_15  and  N_16
REMARK                            x       y       z     vdW  Elec       q    Type
REMARK                         _______ _______ _______ _____ _____    ______ ____
ROOT
ATOM      1  N   UNL     1      44.035   4.475  10.781  0.00  0.00    +0.000 N 
ATOM      2  H   UNL     1      43.534   3.596  10.910  0.00  0.00    +0.000 HD
ENDROOT
BRANCH   1   3
ATOM      3  C   UNL     1      45.080   4.602  11.713  0.00  0.00    +0.000 A 
ATOM      4  C   UNL     1      45.353   3.570  12.612  0.00  0.00    +0.000 A 
ATOM      5  N   UNL     1      46.305   3.605  13.569  0.00  0.00    +0.000 NA
ATOM      6  C   UNL     1      46.999   4.762  13.674  0.00  0.00    +0.000 A 
ATOM      7  C   UNL     1      46.804   5.904  12.892  0.00  0.00    +0.000 A 
ATOM      8  C   UNL     1      45.806   5.786  11.910  0.00  0.00    +0.000 A 
BRANCH   7   9
ATOM      9  N   UNL     1      47.531   7.062  13.067  0.00  0.00    +0.000 N 
ATOM     10  C   UNL     1      47.642   8.119  12.053  0.00  0.00    +0.000 C 
ATOM     11  C   UNL     1      49.120   8.373  11.728  0.00  0.00    +0.000 C 
ATOM     12  O   UNL     1      49.874   8.679  12.914  0.00  0.00    +0.000 OA
ATOM     13  C   UNL     1      49.793   7.593  13.855  0.00  0.00    +0.000 C 
ATOM     14  C   UNL     1      48.339   7.304  14.273  0.00  0.00    +0.000 C 
ENDBRANCH   7   9
ENDBRANCH   1   3
BRANCH   1  15
ATOM     15  C   UNL     1      44.350   4.681   9.365  0.00  0.00    +0.000 C 
BRANCH  15  20
ATOM     16  C   UNL     1      46.520   2.549   7.240  0.00  0.00    +0.000 A 
ATOM     17  C   UNL     1      46.276   1.255   7.680  0.00  0.00    +0.000 A 
ATOM     18  C   UNL     1      45.379   1.077   8.725  0.00  0.00    +0.000 A 
ATOM     19  C   UNL     1      44.754   2.190   9.284  0.00  0.00    +0.000 A 
ATOM     20  C   UNL     1      45.048   3.462   8.784  0.00  0.00    +0.000 A 
ATOM     21  N   UNL     1      45.932   3.660   7.773  0.00  0.00    +0.000 NA
BRANCH  16  23
ATOM     22  N   UNL     1      48.799   2.591   6.413  0.00  0.00    +0.000 N 
ATOM     23  C   UNL     1      47.476   2.773   6.110  0.00  0.00    +0.000 C 
ATOM     24  O   UNL     1      47.112   3.094   4.985  0.00  0.00    +0.000 OA
ATOM     25  H   UNL     1      49.495   2.706   5.691  0.00  0.00    +0.000 HD
ATOM     26  H   UNL     1      49.064   2.302   7.347  0.00  0.00    +0.000 HD
ENDBRANCH  16  23
ENDBRANCH  15  20
ENDBRANCH   1  15
TORSDOF 5
ENDMDL
MODEL 6
REMARK VINA RESULT:    -6.635      2.643      3.921
REMARK INTER + INTRA:          -9.162
REMARK INTER:                  -8.408
REMARK INTRA:                  -0.754
REMARK UNBOUND:                -0.588
REMARK  Name = 
REMARK  5 active torsions:
REMARK  status: ('A' for Active; 'I' for Inactive)
REMARK    1  A    between atoms: C_2  and  C_4
REMARK    2  A    between atoms: C_8  and  C_9
REMARK    3  A    between atoms: C_9  and  N_10
REMARK    4  A    between atoms: N_10  and  C_11
REMARK    5  A    between atoms: C_15  and  N_16
REMARK                            x       y       z     vdW  Elec       q    Type
REMARK                         _______ _______ _______ _____ _____    ______ ____
ROOT
ATOM      1  N   UNL     1      46.429   3.905  13.719  0.00  0.00    +0.000 N 
ATOM      2  H   UNL     1      46.292   3.121  14.357  0.00  0.00    +0.000 HD
ENDROOT
BRANCH   1   3
ATOM      3  C   UNL     1      45.441   3.920  12.719  0.00  0.00    +0.000 A 
ATOM      4  C   UNL     1      44.127   4.273  13.031  0.00  0.00    +0.000 A 
ATOM      5  N   UNL     1      43.097   4.283  12.157  0.00  0.00    +0.000 NA
ATOM      6  C   UNL     1      43.381   3.867  10.900  0.00  0.00    +0.000 A 
ATOM      7  C   UNL     1      44.628   3.426  10.449  0.00  0.00    +0.000 A 
ATOM      8  C   UNL     1      45.651   3.456  11.412  0.00  0.00    +0.000 A 
BRANCH   7   9
ATOM      9  N   UNL     1      44.843   2.991   9.159  0.00  0.00    +0.000 N 
ATOM     10  C   UNL     1      45.032   1.580   8.793  0.00  0.00    +0.000 C 
ATOM     11  C   UNL     1      46.368   1.411   8.056  0.00  0.00    +0.000 C 
ATOM     12  O   UNL     1      46.453   2.283   6.915  0.00  0.00    +0.000 OA
ATOM     13  C   UNL     1      46.329   3.657   7.323  0.00  0.00    +0.000 C 
ATOM     14  C   UNL     1      44.988   3.925   8.031  0.00  0.00    +0.000 C 
ENDBRANCH   7   9
ENDBRANCH   1   3
BRANCH   1  15
ATOM     15  C   UNL     1      46.665   5.141  14.469  0.00  0.00    +0.000 C 
BRANCH  15  20
ATOM     16  C   UNL     1      46.602   8.197  12.365  0.00  0.00    +0.000 A 
ATOM     17  C   UNL     1      47.872   8.264  11.808  0.00  0.00    +0.000 A 
ATOM     18  C   UNL     1      48.789   7.278  12.150  0.00  0.00    +0.000 A 
ATOM     19  C   UNL     1      48.405   6.263  13.023  0.00  0.00    +0.000 A 
ATOM     20  C   UNL     1      47.106   6.260  13.540  0.00  0.00    +0.000 A 
ATOM     21  N   UNL     1      46.198   7.222  13.230  0.00  0.00    +0.000 NA
BRANCH  16  23
ATOM     22  N   UNL     1      44.359   8.765  11.641  0.00  0.00    +0.000 N 
ATOM     23  C   UNL     1      45.588   9.241  12.011  0.00  0.00    +0.000 C 
ATOM     24  O   UNL     1      45.829  10.441  12.048  0.00  0.00    +0.000 OA
ATOM     25  H   UNL     1      43.623   9.416  11.409  0.00  0.00    +0.000 HD
ATOM     26  H   UNL     1      44.186   7.766  11.645  0.00  0.00    +0.000 HD
ENDBRANCH  16  23
ENDBRANCH  15  20
ENDBRANCH   1  15
TORSDOF 5
ENDMDL
MODEL 7
REMARK VINA RESULT:    -6.601      2.063      2.937
REMARK INTER + INTRA:          -9.118
REMARK INTER:                  -8.625
REMARK INTRA:                  -0.493
REMARK UNBOUND:                -0.588
REMARK  Name = 
REMARK  5 active torsions:
REMARK  status: ('A' for Active; 'I' for Inactive)
REMARK    1  A    between atoms: C_2  and  C_4
REMARK    2  A    between atoms: C_8  and  C_9
REMARK    3  A    between atoms: C_9  and  N_10
REMARK    4  A    between atoms: N_10  and  C_11
REMARK    5  A    between atoms: C_15  and  N_16
REMARK                            x       y       z     vdW  Elec       q    Type
REMARK                         _______ _______ _______ _____ _____    ______ ____
ROOT
ATOM      1  N   UNL     1      47.057   3.549  14.890  0.00  0.00    +0.000 N 
ATOM      2  H   UNL     1      46.482   2.706  14.869  0.00  0.00    +0.000 HD
ENDROOT
BRANCH   1   3
ATOM      3  C   UNL     1      46.752   4.395  13.810  0.00  0.00    +0.000 A 
ATOM      4  C   UNL     1      47.036   5.760  13.882  0.00  0.00    +0.000 A 
ATOM      5  N   UNL     1      46.751   6.664  12.920  0.00  0.00    +0.000 NA
ATOM      6  C   UNL     1      46.094   6.190  11.835  0.00  0.00    +0.000 A 
ATOM      7  C   UNL     1      45.686   4.866  11.642  0.00  0.00    +0.000 A 
ATOM      8  C   UNL     1      46.031   3.984  12.680  0.00  0.00    +0.000 A 
BRANCH   7   9
ATOM      9  N   UNL     1      44.997   4.454  10.522  0.00  0.00    +0.000 N 
ATOM     10  C   UNL     1      44.027   3.350  10.521  0.00  0.00    +0.000 C 
ATOM     11  C   UNL     1      44.441   2.298   9.482  0.00  0.00    +0.000 C 
ATOM     12  O   UNL     1      44.600   2.882   8.177  0.00  0.00    +0.000 OA
ATOM     13  C   UNL     1      45.603   3.913   8.207  0.00  0.00    +0.000 C 
ATOM     14  C   UNL     1      45.240   5.038   9.194  0.00  0.00    +0.000 C 
ENDBRANCH   7   9
ENDBRANCH   1   3
BRANCH   1  15
ATOM     15  C   UNL     1      47.063   4.129  16.236  0.00  0.00    +0.000 C 
BRANCH  15  20
ATOM     16  C   UNL     1      50.494   3.278  17.366  0.00  0.00    +0.000 A 
ATOM     17  C   UNL     1      51.044   4.492  17.756  0.00  0.00    +0.000 A 
ATOM     18  C   UNL     1      50.266   5.635  17.626  0.00  0.00    +0.000 A 
ATOM     19  C   UNL     1      48.972   5.525  17.123  0.00  0.00    +0.000 A 
ATOM     20  C   UNL     1      48.485   4.267  16.756  0.00  0.00    +0.000 A 
ATOM     21  N   UNL     1      49.233   3.139  16.862  0.00  0.00    +0.000 NA
BRANCH  16  23
ATOM     22  N   UNL     1      52.324   2.081  18.415  0.00  0.00    +0.000 N 
ATOM     23  C   UNL     1      51.305   2.027  17.501  0.00  0.00    +0.000 C 
ATOM     24  O   UNL     1      51.080   1.016  16.848  0.00  0.00    +0.000 OA
ATOM     25  H   UNL     1      52.896   1.265  18.569  0.00  0.00    +0.000 HD
ATOM     26  H   UNL     1      52.467   2.926  18.956  0.00  0.00    +0.000 HD
ENDBRANCH  16  23
ENDBRANCH  15  20
ENDBRANCH   1  15
TORSDOF 5
ENDMDL
MODEL 8
REMARK VINA RESULT:    -6.449      1.974      7.177
REMARK INTER + INTRA:          -8.923
REMARK INTER:                  -8.215
REMARK INTRA:                  -0.707
REMARK UNBOUND:                -0.588
REMARK  Name = 
REMARK  5 active torsions:
REMARK  status: ('A' for Active; 'I' for Inactive)
REMARK    1  A    between atoms: C_2  and  C_4
REMARK    2  A    between atoms: C_8  and  C_9
REMARK    3  A    between atoms: C_9  and  N_10
REMARK    4  A    between atoms: N_10  and  C_11
REMARK    5  A    between atoms: C_15  and  N_16
REMARK                            x       y       z     vdW  Elec       q    Type
REMARK                         _______ _______ _______ _____ _____    ______ ____
ROOT
ATOM      1  N   UNL     1      47.531   7.100  11.677  0.00  0.00    +0.000 N 
ATOM      2  H   UNL     1      47.878   7.867  11.101  0.00  0.00    +0.000 HD
ENDROOT
BRANCH   1   3
ATOM      3  C   UNL     1      48.213   7.040  12.904  0.00  0.00    +0.000 A 
ATOM      4  C   UNL     1      49.434   7.697  13.065  0.00  0.00    +0.000 A 
ATOM      5  N   UNL     1      50.187   7.672  14.186  0.00  0.00    +0.000 NA
ATOM      6  C   UNL     1      49.720   6.903  15.198  0.00  0.00    +0.000 A 
ATOM      7  C   UNL     1      48.550   6.139  15.170  0.00  0.00    +0.000 A 
ATOM      8  C   UNL     1      47.815   6.227  13.975  0.00  0.00    +0.000 A 
BRANCH   7   9
ATOM      9  N   UNL     1      48.144   5.357  16.229  0.00  0.00    +0.000 N 
ATOM     10  C   UNL     1      48.428   5.675  17.635  0.00  0.00    +0.000 C 
ATOM     11  C   UNL     1      49.170   4.503  18.292  0.00  0.00    +0.000 C 
ATOM     12  O   UNL     1      48.438   3.272  18.152  0.00  0.00    +0.000 OA
ATOM     13  C   UNL     1      48.238   2.963  16.761  0.00  0.00    +0.000 C 
ATOM     14  C   UNL     1      47.454   4.072  16.035  0.00  0.00    +0.000 C 
ENDBRANCH   7   9
ENDBRANCH   1   3
BRANCH   1  15
ATOM     15  C   UNL     1      46.066   7.105  11.705  0.00  0.00    +0.000 C 
BRANCH  15  20
ATOM     16  C   UNL     1      44.299   3.887  11.164  0.00  0.00    +0.000 A 
ATOM     17  C   UNL     1      44.542   3.575   9.833  0.00  0.00    +0.000 A 
ATOM     18  C   UNL     1      45.300   4.462   9.081  0.00  0.00    +0.000 A 
ATOM     19  C   UNL     1      45.792   5.619   9.682  0.00  0.00    +0.000 A 
ATOM     20  C   UNL     1      45.509   5.863  11.029  0.00  0.00    +0.000 A 
ATOM     21  N   UNL     1      44.758   5.015  11.779  0.00  0.00    +0.000 NA
BRANCH  16  23
ATOM     22  N   UNL     1      43.448   3.241  13.340  0.00  0.00    +0.000 N 
ATOM     23  C   UNL     1      43.492   2.947  12.004  0.00  0.00    +0.000 C 
ATOM     24  O   UNL     1      42.903   1.978  11.538  0.00  0.00    +0.000 OA
ATOM     25  H   UNL     1      42.904   2.658  13.960  0.00  0.00    +0.000 HD
ATOM     26  H   UNL     1      43.926   4.064  13.688  0.00  0.00    +0.000 HD
ENDBRANCH  16  23
ENDBRANCH  15  20
ENDBRANCH   1  15
TORSDOF 5
ENDMDL
MODEL 9
REMARK VINA RESULT:    -6.371      1.700      7.424
REMARK INTER + INTRA:          -8.821
REMARK INTER:                  -8.159
REMARK INTRA:                  -0.662
REMARK UNBOUND:                -0.588
REMARK  Name = 
REMARK  5 active torsions:
REMARK  status: ('A' for Active; 'I' for Inactive)
REMARK    1  A    between atoms: C_2  and  C_4
REMARK    2  A    between atoms: C_8  and  C_9
REMARK    3  A    between atoms: C_9  and  N_10
REMARK    4  A    between atoms: N_10  and  C_11
REMARK    5  A    between atoms: C_15  and  N_16
REMARK                            x       y       z     vdW  Elec       q    Type
REMARK                         _______ _______ _______ _____ _____    ______ ____
ROOT
ATOM      1  N   UNL     1      47.299   6.768  11.874  0.00  0.00    +0.000 N 
ATOM      2  H   UNL     1      47.769   7.301  11.142  0.00  0.00    +0.000 HD
ENDROOT
BRANCH   1   3
ATOM      3  C   UNL     1      48.024   6.813  13.077  0.00  0.00    +0.000 A 
ATOM      4  C   UNL     1      49.213   7.539  13.156  0.00  0.00    +0.000 A 
ATOM      5  N   UNL     1      50.004   7.617  14.248  0.00  0.00    +0.000 NA
ATOM      6  C   UNL     1      49.613   6.885  15.318  0.00  0.00    +0.000 A 
ATOM      7  C   UNL     1      48.484   6.062  15.375  0.00  0.00    +0.000 A 
ATOM      8  C   UNL     1      47.706   6.043  14.205  0.00  0.00    +0.000 A 
BRANCH   7   9
ATOM      9  N   UNL     1      48.156   5.322  16.490  0.00  0.00    +0.000 N 
ATOM     10  C   UNL     1      48.623   5.639  17.847  0.00  0.00    +0.000 C 
ATOM     11  C   UNL     1      49.360   4.429  18.438  0.00  0.00    +0.000 C 
ATOM     12  O   UNL     1      48.539   3.248  18.409  0.00  0.00    +0.000 OA
ATOM     13  C   UNL     1      48.157   2.935  17.057  0.00  0.00    +0.000 C 
ATOM     14  C   UNL     1      47.366   4.084  16.404  0.00  0.00    +0.000 C 
ENDBRANCH   7   9
ENDBRANCH   1   3
BRANCH   1  15
ATOM     15  C   UNL     1      45.874   7.107  11.917  0.00  0.00    +0.000 C 
BRANCH  15  20
ATOM     16  C   UNL     1      44.303   3.979  10.682  0.00  0.00    +0.000 A 
ATOM     17  C   UNL     1      43.430   3.604  11.694  0.00  0.00    +0.000 A 
ATOM     18  C   UNL     1      43.367   4.398  12.832  0.00  0.00    +0.000 A 
ATOM     19  C   UNL     1      44.167   5.535  12.915  0.00  0.00    +0.000 A 
ATOM     20  C   UNL     1      45.019   5.851  11.853  0.00  0.00    +0.000 A 
ATOM     21  N   UNL     1      45.106   5.082  10.737  0.00  0.00    +0.000 NA
BRANCH  16  23
ATOM     22  N   UNL     1      44.334   3.845   8.262  0.00  0.00    +0.000 N 
ATOM     23  C   UNL     1      44.389   3.149   9.439  0.00  0.00    +0.000 C 
ATOM     24  O   UNL     1      44.504   1.930   9.461  0.00  0.00    +0.000 OA
ATOM     25  H   UNL     1      44.407   3.348   7.387  0.00  0.00    +0.000 HD
ATOM     26  H   UNL     1      44.263   4.855   8.279  0.00  0.00    +0.000 HD
ENDBRANCH  16  23
ENDBRANCH  15  20
ENDBRANCH   1  15
TORSDOF 5
ENDMDL
