MODEL 1
REMARK VINA RESULT:    -8.709      0.000      0.000
REMARK INTER + INTRA:         -12.931
REMARK INTER:                 -12.272
REMARK INTRA:                  -0.658
REMARK UNBOUND:                -0.658
REMARK  Name = 
REMARK  8 active torsions:
REMARK  status: ('A' for Active; 'I' for Inactive)
REMARK    1  A    between atoms: C_1  and  C_2
REMARK    2  A    between atoms: C_2  and  N_3
REMARK    3  A    between atoms: C_2  and  C_25
REMARK    4  A    between atoms: N_3  and  C_4
REMARK    5  A    between atoms: C_4  and  C_5
REMARK    6  A    between atoms: C_8  and  C_9
REMARK    7  A    between atoms: C_9  and  N_10
REMARK    8  A    between atoms: C_11  and  C_13
REMARK                            x       y       z     vdW  Elec       q    Type
REMARK                         _______ _______ _______ _____ _____    ______ ____
ROOT
ATOM      1  C   UNL     1      45.083   4.310  12.559  0.00  0.00    +0.000 A 
ATOM      2  C   UNL     1      45.109   5.689  12.344  0.00  0.00    +0.000 A 
ATOM      3  C   UNL     1      46.162   6.442  12.866  0.00  0.00    +0.000 A 
ATOM      4  C   UNL     1      47.164   5.812  13.604  0.00  0.00    +0.000 A 
ATOM      5  C   UNL     1      47.003   4.454  13.854  0.00  0.00    +0.000 A 
ATOM      6  N   UNL     1      46.007   3.693  13.339  0.00  0.00    +0.000 NA
ENDROOT
BRANCH   1   7
ATOM      7  C   UNL     1      44.138   3.444  11.732  0.00  0.00    +0.000 C 
BRANCH   7   8
ATOM      8  N   UNL     1      44.779   2.484  10.821  0.00  0.00    +0.000 NA
ATOM      9  H   UNL     1      44.420   1.553  11.033  0.00  0.00    +0.000 HD
BRANCH   8  11
ATOM     10  C   UNL     1      44.095   4.271   9.304  0.00  0.00    +0.000 C 
ATOM     11  C   UNL     1      44.440   2.783   9.406  0.00  0.00    +0.000 C 
BRANCH  11  12
ATOM     12  C   UNL     1      45.543   2.450   8.396  0.00  0.00    +0.000 A 
ATOM     13  C   UNL     1      45.989   3.424   7.498  0.00  0.00    +0.000 A 
ATOM     14  C   UNL     1      46.952   3.089   6.553  0.00  0.00    +0.000 A 
ATOM     15  C   UNL     1      47.464   1.796   6.531  0.00  0.00    +0.000 A 
ATOM     16  C   UNL     1      46.997   0.896   7.473  0.00  0.00    +0.000 A 
ATOM     17  N   UNL     1      46.056   1.188   8.400  0.00  0.00    +0.000 NA
ENDBRANCH  11  12
ENDBRANCH   8  11
ENDBRANCH   7   8
ENDBRANCH   1   7
BRANCH   4  18
ATOM     18  C   UNL     1      48.336   6.571  14.157  0.00  0.00    +0.000 C 
BRANCH  18  19
ATOM     19  N   UNL     1      48.148   6.820  15.559  0.00  0.00    +0.000 N 
ATOM     20  C   UNL     1      49.027   6.398  16.519  0.00  0.00    +0.000 C 
ATOM     21  O   UNL     1      50.069   5.815  16.245  0.00  0.00    +0.000 OA
ATOM     22  H   UNL     1      47.206   7.074  15.838  0.00  0.00    +0.000 HD
BRANCH  20  23
ATOM     23  C   UNL     1      48.676   6.766  17.899  0.00  0.00    +0.000 A 
ATOM     24  C   UNL     1      48.351   8.078  18.209  0.00  0.00    +0.000 A 
ATOM     25  S   UNL     1      47.863   8.294  19.830  0.00  0.00    +0.000 S 
ATOM     26  C   UNL     1      48.126   6.651  20.189  0.00  0.00    +0.000 A 
ATOM     27  N   UNL     1      47.894   6.157  21.435  0.00  0.00    +0.000 NA
ATOM     28  C   UNL     1      48.154   4.899  21.571  0.00  0.00    +0.000 A 
ATOM     29  N   UNL     1      48.633   4.089  20.570  0.00  0.00    +0.000 N 
ATOM     30  C   UNL     1      48.875   4.543  19.298  0.00  0.00    +0.000 A 
ATOM     31  O   UNL     1      49.296   3.791  18.423  0.00  0.00    +0.000 OA
ATOM     32  C   UNL     1      48.581   5.947  19.090  0.00  0.00    +0.000 A 
ATOM     33  H   UNL     1      48.821   3.112  20.738  0.00  0.00    +0.000 HD
ENDBRANCH  20  23
ENDBRANCH  18  19
ENDBRANCH   4  18
TORSDOF 7
ENDMDL
MODEL 2
REMARK VINA RESULT:    -8.346      2.255      2.694
REMARK INTER + INTRA:         -12.419
REMARK INTER:                 -11.445
REMARK INTRA:                  -0.974
REMARK UNBOUND:                -0.658
REMARK  Name = 
REMARK  8 active torsions:
REMARK  status: ('A' for Active; 'I' for Inactive)
REMARK    1  A    between atoms: C_1  and  C_2
REMARK    2  A    between atoms: C_2  and  N_3
REMARK    3  A    between atoms: C_2  and  C_25
REMARK    4  A    between atoms: N_3  and  C_4
REMARK    5  A    between atoms: C_4  and  C_5
REMARK    6  A    between atoms: C_8  and  C_9
REMARK    7  A    between atoms: C_9  and  N_10
REMARK    8  A    between atoms: C_11  and  C_13
REMARK                            x       y       z     vdW  Elec       q    Type
REMARK                         _______ _______ _______ _____ _____    ______ ____
ROOT
ATOM      1  C   UNL     1      44.541   5.750  10.856  0.00  0.00    +0.000 A 
ATOM      2  C   UNL     1      45.909   5.498  10.970  0.00  0.00    +0.000 A 
ATOM      3  C   UNL     1      46.693   6.330  11.771  0.00  0.00    +0.000 A 
ATOM      4  C   UNL     1      46.105   7.406  12.434  0.00  0.00    +0.000 A 
ATOM      5  C   UNL     1      44.758   7.641  12.183  0.00  0.00    +0.000 A 
ATOM      6  N   UNL     1      43.966   6.837  11.432  0.00  0.00    +0.000 NA
ENDROOT
BRANCH   1   7
ATOM      7  C   UNL     1      43.631   4.678  10.266  0.00  0.00    +0.000 C 
BRANCH   7   8
ATOM      8  N   UNL     1      44.067   4.101   8.985  0.00  0.00    +0.000 NA
ATOM      9  H   UNL     1      44.589   4.813   8.475  0.00  0.00    +0.000 HD
BRANCH   8  11
ATOM     10  C   UNL     1      44.120   1.704   9.452  0.00  0.00    +0.000 C 
ATOM     11  C   UNL     1      44.978   2.947   9.202  0.00  0.00    +0.000 C 
BRANCH  11  12
ATOM     12  C   UNL     1      45.948   2.669   8.049  0.00  0.00    +0.000 A 
ATOM     13  C   UNL     1      46.165   3.638   7.066  0.00  0.00    +0.000 A 
ATOM     14  C   UNL     1      47.008   3.348   5.998  0.00  0.00    +0.000 A 
ATOM     15  C   UNL     1      47.628   2.105   5.938  0.00  0.00    +0.000 A 
ATOM     16  C   UNL     1      47.389   1.209   6.965  0.00  0.00    +0.000 A 
ATOM     17  N   UNL     1      46.571   1.458   8.014  0.00  0.00    +0.000 NA
ENDBRANCH  11  12
ENDBRANCH   8  11
ENDBRANCH   7   8
ENDBRANCH   1   7
BRANCH   4  18
ATOM     18  C   UNL     1      46.896   8.309  13.335  0.00  0.00    +0.000 C 
BRANCH  18  19
ATOM     19  N   UNL     1      47.389   7.573  14.466  0.00  0.00    +0.000 N 
ATOM     20  C   UNL     1      48.663   7.079  14.541  0.00  0.00    +0.000 C 
ATOM     21  O   UNL     1      49.495   7.271  13.662  0.00  0.00    +0.000 OA
ATOM     22  H   UNL     1      46.681   7.193  15.085  0.00  0.00    +0.000 HD
BRANCH  20  23
ATOM     23  C   UNL     1      48.991   6.370  15.786  0.00  0.00    +0.000 A 
ATOM     24  C   UNL     1      50.026   6.822  16.593  0.00  0.00    +0.000 A 
ATOM     25  S   UNL     1      50.187   5.945  18.049  0.00  0.00    +0.000 S 
ATOM     26  C   UNL     1      48.917   4.895  17.624  0.00  0.00    +0.000 A 
ATOM     27  N   UNL     1      48.530   3.887  18.452  0.00  0.00    +0.000 NA
ATOM     28  C   UNL     1      47.568   3.156  17.996  0.00  0.00    +0.000 A 
ATOM     29  N   UNL     1      46.960   3.339  16.778  0.00  0.00    +0.000 N 
ATOM     30  C   UNL     1      47.313   4.344  15.914  0.00  0.00    +0.000 A 
ATOM     31  O   UNL     1      46.744   4.486  14.835  0.00  0.00    +0.000 OA
ATOM     32  C   UNL     1      48.378   5.205  16.390  0.00  0.00    +0.000 A 
ATOM     33  H   UNL     1      46.214   2.731  16.473  0.00  0.00    +0.000 HD
ENDBRANCH  20  23
ENDBRANCH  18  19
ENDBRANCH   4  18
TORSDOF 7
ENDMDL
MODEL 3
REMARK VINA RESULT:    -8.275      1.426      2.159
REMARK INTER + INTRA:         -12.320
REMARK INTER:                 -11.338
REMARK INTRA:                  -0.982
REMARK UNBOUND:                -0.658
REMARK  Name = 
REMARK  8 active torsions:
REMARK  status: ('A' for Active; 'I' for Inactive)
REMARK    1  A    between atoms: C_1  and  C_2
REMARK    2  A    between atoms: C_2  and  N_3
REMARK    3  A    between atoms: C_2  and  C_25
REMARK    4  A    between atoms: N_3  and  C_4
REMARK    5  A    between atoms: C_4  and  C_5
REMARK    6  A    between atoms: C_8  and  C_9
REMARK    7  A    between atoms: C_9  and  N_10
REMARK    8  A    between atoms: C_11  and  C_13
REMARK                            x       y       z     vdW  Elec       q    Type
REMARK                         _______ _______ _______ _____ _____    ______ ____
ROOT
ATOM      1  C   UNL     1      45.274   4.456  12.503  0.00  0.00    +0.000 A 
ATOM      2  C   UNL     1      45.658   5.718  12.049  0.00  0.00    +0.000 A 
ATOM      3  C   UNL     1      46.669   6.407  12.720  0.00  0.00    +0.000 A 
ATOM      4  C   UNL     1      47.272   5.834  13.839  0.00  0.00    +0.000 A 
ATOM      5  C   UNL     1      46.757   4.620  14.280  0.00  0.00    +0.000 A 
ATOM      6  N   UNL     1      45.795   3.916  13.634  0.00  0.00    +0.000 NA
ENDROOT
BRANCH   1   7
ATOM      7  C   UNL     1      44.421   3.567  11.603  0.00  0.00    +0.000 C 
BRANCH   7   8
ATOM      8  N   UNL     1      45.159   2.705  10.668  0.00  0.00    +0.000 NA
ATOM      9  H   UNL     1      45.013   1.734  10.945  0.00  0.00    +0.000 HD
BRANCH   8  11
ATOM     10  C   UNL     1      44.049   4.260   9.147  0.00  0.00    +0.000 C 
ATOM     11  C   UNL     1      44.644   2.856   9.283  0.00  0.00    +0.000 C 
BRANCH  11  12
ATOM     12  C   UNL     1      45.687   2.641   8.182  0.00  0.00    +0.000 A 
ATOM     13  C   UNL     1      46.342   1.412   8.067  0.00  0.00    +0.000 A 
ATOM     14  C   UNL     1      47.325   1.252   7.096  0.00  0.00    +0.000 A 
ATOM     15  C   UNL     1      47.625   2.313   6.249  0.00  0.00    +0.000 A 
ATOM     16  C   UNL     1      46.911   3.489   6.402  0.00  0.00    +0.000 A 
ATOM     17  N   UNL     1      45.954   3.679   7.340  0.00  0.00    +0.000 NA
ENDBRANCH  11  12
ENDBRANCH   8  11
ENDBRANCH   7   8
ENDBRANCH   1   7
BRANCH   4  18
ATOM     18  C   UNL     1      48.388   6.518  14.575  0.00  0.00    +0.000 C 
BRANCH  18  19
ATOM     19  N   UNL     1      48.180   6.418  15.993  0.00  0.00    +0.000 N 
ATOM     20  C   UNL     1      49.125   5.932  16.856  0.00  0.00    +0.000 C 
ATOM     21  O   UNL     1      50.241   5.590  16.483  0.00  0.00    +0.000 OA
ATOM     22  H   UNL     1      47.214   6.458  16.300  0.00  0.00    +0.000 HD
BRANCH  20  23
ATOM     23  C   UNL     1      48.739   5.926  18.274  0.00  0.00    +0.000 A 
ATOM     24  C   UNL     1      48.876   4.771  19.030  0.00  0.00    +0.000 A 
ATOM     25  S   UNL     1      48.486   4.983  20.678  0.00  0.00    +0.000 S 
ATOM     26  C   UNL     1      48.062   6.612  20.427  0.00  0.00    +0.000 A 
ATOM     27  N   UNL     1      47.631   7.394  21.454  0.00  0.00    +0.000 NA
ATOM     28  C   UNL     1      47.326   8.603  21.118  0.00  0.00    +0.000 A 
ATOM     29  N   UNL     1      47.407   9.101  19.840  0.00  0.00    +0.000 N 
ATOM     30  C   UNL     1      47.841   8.352  18.776  0.00  0.00    +0.000 A 
ATOM     31  O   UNL     1      47.910   8.829  17.646  0.00  0.00    +0.000 OA
ATOM     32  C   UNL     1      48.214   6.990  19.106  0.00  0.00    +0.000 A 
ATOM     33  H   UNL     1      47.150  10.055  19.637  0.00  0.00    +0.000 HD
ENDBRANCH  20  23
ENDBRANCH  18  19
ENDBRANCH   4  18
TORSDOF 7
ENDMDL
MODEL 4
REMARK VINA RESULT:    -8.136      2.817      3.592
REMARK INTER + INTRA:         -12.124
REMARK INTER:                 -11.376
REMARK INTRA:                  -0.748
REMARK UNBOUND:                -0.658
REMARK  Name = 
REMARK  8 active torsions:
REMARK  status: ('A' for Active; 'I' for Inactive)
REMARK    1  A    between atoms: C_1  and  C_2
REMARK    2  A    between atoms: C_2  and  N_3
REMARK    3  A    between atoms: C_2  and  C_25
REMARK    4  A    between atoms: N_3  and  C_4
REMARK    5  A    between atoms: C_4  and  C_5
REMARK    6  A    between atoms: C_8  and  C_9
REMARK    7  A    between atoms: C_9  and  N_10
REMARK    8  A    between atoms: C_11  and  C_13
REMARK                            x       y       z     vdW  Elec       q    Type
REMARK                         _______ _______ _______ _____ _____    ______ ____
ROOT
ATOM      1  C   UNL     1      46.253   4.217  13.386  0.00  0.00    +0.000 A 
ATOM      2  C   UNL     1      46.610   5.466  12.875  0.00  0.00    +0.000 A 
ATOM      3  C   UNL     1      47.416   6.312  13.640  0.00  0.00    +0.000 A 
ATOM      4  C   UNL     1      47.843   5.905  14.903  0.00  0.00    +0.000 A 
ATOM      5  C   UNL     1      47.357   4.690  15.372  0.00  0.00    +0.000 A 
ATOM      6  N   UNL     1      46.595   3.837  14.643  0.00  0.00    +0.000 NA
ENDROOT
BRANCH   1   7
ATOM      7  C   UNL     1      45.663   3.169  12.448  0.00  0.00    +0.000 C 
BRANCH   7   8
ATOM      8  N   UNL     1      44.210   2.967  12.545  0.00  0.00    +0.000 NA
ATOM      9  H   UNL     1      43.856   3.547  13.306  0.00  0.00    +0.000 HD
BRANCH   8  11
ATOM     10  C   UNL     1      43.010   4.826  11.510  0.00  0.00    +0.000 C 
ATOM     11  C   UNL     1      43.526   3.400  11.299  0.00  0.00    +0.000 C 
BRANCH  11  12
ATOM     12  C   UNL     1      44.397   3.359  10.040  0.00  0.00    +0.000 A 
ATOM     13  C   UNL     1      44.713   2.134   9.446  0.00  0.00    +0.000 A 
ATOM     14  C   UNL     1      45.549   2.112   8.335  0.00  0.00    +0.000 A 
ATOM     15  C   UNL     1      46.042   3.310   7.829  0.00  0.00    +0.000 A 
ATOM     16  C   UNL     1      45.659   4.485   8.451  0.00  0.00    +0.000 A 
ATOM     17  N   UNL     1      44.853   4.541   9.537  0.00  0.00    +0.000 NA
ENDBRANCH  11  12
ENDBRANCH   8  11
ENDBRANCH   7   8
ENDBRANCH   1   7
BRANCH   4  18
ATOM     18  C   UNL     1      48.739   6.761  15.750  0.00  0.00    +0.000 C 
BRANCH  18  19
ATOM     19  N   UNL     1      49.838   5.984  16.252  0.00  0.00    +0.000 N 
ATOM     20  C   UNL     1      49.886   5.492  17.528  0.00  0.00    +0.000 C 
ATOM     21  O   UNL     1      48.967   5.641  18.325  0.00  0.00    +0.000 OA
ATOM     22  H   UNL     1      50.699   6.046  15.720  0.00  0.00    +0.000 HD
BRANCH  20  23
ATOM     23  C   UNL     1      51.082   4.701  17.853  0.00  0.00    +0.000 A 
ATOM     24  C   UNL     1      52.190   5.314  18.419  0.00  0.00    +0.000 A 
ATOM     25  S   UNL     1      53.436   4.222  18.831  0.00  0.00    +0.000 S 
ATOM     26  C   UNL     1      52.561   2.900  18.213  0.00  0.00    +0.000 A 
ATOM     27  N   UNL     1      53.069   1.638  18.254  0.00  0.00    +0.000 NA
ATOM     28  C   UNL     1      52.307   0.735  17.733  0.00  0.00    +0.000 A 
ATOM     29  N   UNL     1      51.080   0.982  17.167  0.00  0.00    +0.000 N 
ATOM     30  C   UNL     1      50.526   2.236  17.109  0.00  0.00    +0.000 A 
ATOM     31  O   UNL     1      49.423   2.422  16.603  0.00  0.00    +0.000 OA
ATOM     32  C   UNL     1      51.337   3.284  17.698  0.00  0.00    +0.000 A 
ATOM     33  H   UNL     1      50.530   0.234  16.771  0.00  0.00    +0.000 HD
ENDBRANCH  20  23
ENDBRANCH  18  19
ENDBRANCH   4  18
TORSDOF 7
ENDMDL
MODEL 5
REMARK VINA RESULT:    -7.825      1.883      2.386
REMARK INTER + INTRA:         -11.685
REMARK INTER:                 -11.122
REMARK INTRA:                  -0.563
REMARK UNBOUND:                -0.658
REMARK  Name = 
REMARK  8 active torsions:
REMARK  status: ('A' for Active; 'I' for Inactive)
REMARK    1  A    between atoms: C_1  and  C_2
REMARK    2  A    between atoms: C_2  and  N_3
REMARK    3  A    between atoms: C_2  and  C_25
REMARK    4  A    between atoms: N_3  and  C_4
REMARK    5  A    between atoms: C_4  and  C_5
REMARK    6  A    between atoms: C_8  and  C_9
REMARK    7  A    between atoms: C_9  and  N_10
REMARK    8  A    between atoms: C_11  and  C_13
REMARK                            x       y       z     vdW  Elec       q    Type
REMARK                         _______ _______ _______ _____ _____    ______ ____
ROOT
ATOM      1  C   UNL     1      44.614   4.229  12.351  0.00  0.00    +0.000 A 
ATOM      2  C   UNL     1      44.391   5.607  12.374  0.00  0.00    +0.000 A 
ATOM      3  C   UNL     1      45.372   6.450  12.897  0.00  0.00    +0.000 A 
ATOM      4  C   UNL     1      46.554   5.907  13.400  0.00  0.00    +0.000 A 
ATOM      5  C   UNL     1      46.648   4.520  13.429  0.00  0.00    +0.000 A 
ATOM      6  N   UNL     1      45.724   3.678  12.906  0.00  0.00    +0.000 NA
ENDROOT
BRANCH   1   7
ATOM      7  C   UNL     1      43.714   3.341  11.498  0.00  0.00    +0.000 C 
BRANCH   7   8
ATOM      8  N   UNL     1      44.403   2.370  10.634  0.00  0.00    +0.000 NA
ATOM      9  H   UNL     1      43.921   1.475  10.713  0.00  0.00    +0.000 HD
BRANCH   8  11
ATOM     10  C   UNL     1      44.187   4.309   9.164  0.00  0.00    +0.000 C 
ATOM     11  C   UNL     1      44.342   2.787   9.209  0.00  0.00    +0.000 C 
BRANCH  11  12
ATOM     12  C   UNL     1      45.555   2.378   8.368  0.00  0.00    +0.000 A 
ATOM     13  C   UNL     1      46.215   3.326   7.582  0.00  0.00    +0.000 A 
ATOM     14  C   UNL     1      47.281   2.926   6.783  0.00  0.00    +0.000 A 
ATOM     15  C   UNL     1      47.678   1.593   6.794  0.00  0.00    +0.000 A 
ATOM     16  C   UNL     1      46.997   0.719   7.623  0.00  0.00    +0.000 A 
ATOM     17  N   UNL     1      45.953   1.075   8.407  0.00  0.00    +0.000 NA
ENDBRANCH  11  12
ENDBRANCH   8  11
ENDBRANCH   7   8
ENDBRANCH   1   7
BRANCH   4  18
ATOM     18  C   UNL     1      47.655   6.772  13.941  0.00  0.00    +0.000 C 
BRANCH  18  19
ATOM     19  N   UNL     1      48.196   6.195  15.140  0.00  0.00    +0.000 N 
ATOM     20  C   UNL     1      48.838   6.927  16.101  0.00  0.00    +0.000 C 
ATOM     21  O   UNL     1      48.958   8.144  16.028  0.00  0.00    +0.000 OA
ATOM     22  H   UNL     1      48.331   5.189  15.121  0.00  0.00    +0.000 HD
BRANCH  20  23
ATOM     23  C   UNL     1      49.304   6.164  17.268  0.00  0.00    +0.000 A 
ATOM     24  C   UNL     1      48.398   5.734  18.226  0.00  0.00    +0.000 A 
ATOM     25  S   UNL     1      49.102   4.768  19.445  0.00  0.00    +0.000 S 
ATOM     26  C   UNL     1      50.653   4.942  18.766  0.00  0.00    +0.000 A 
ATOM     27  N   UNL     1      51.740   4.350  19.333  0.00  0.00    +0.000 NA
ATOM     28  C   UNL     1      52.855   4.581  18.725  0.00  0.00    +0.000 A 
ATOM     29  N   UNL     1      52.984   5.359  17.600  0.00  0.00    +0.000 N 
ATOM     30  C   UNL     1      51.917   5.970  16.993  0.00  0.00    +0.000 A 
ATOM     31  O   UNL     1      52.064   6.653  15.983  0.00  0.00    +0.000 OA
ATOM     32  C   UNL     1      50.637   5.725  17.628  0.00  0.00    +0.000 A 
ATOM     33  H   UNL     1      53.885   5.507  17.171  0.00  0.00    +0.000 HD
ENDBRANCH  20  23
ENDBRANCH  18  19
ENDBRANCH   4  18
TORSDOF 7
ENDMDL
MODEL 6
REMARK VINA RESULT:    -7.776      1.195      1.574
REMARK INTER + INTRA:         -11.616
REMARK INTER:                 -10.672
REMARK INTRA:                  -0.943
REMARK UNBOUND:                -0.658
REMARK  Name = 
REMARK  8 active torsions:
REMARK  status: ('A' for Active; 'I' for Inactive)
REMARK    1  A    between atoms: C_1  and  C_2
REMARK    2  A    between atoms: C_2  and  N_3
REMARK    3  A    between atoms: C_2  and  C_25
REMARK    4  A    between atoms: N_3  and  C_4
REMARK    5  A    between atoms: C_4  and  C_5
REMARK    6  A    between atoms: C_8  and  C_9
REMARK    7  A    between atoms: C_9  and  N_10
REMARK    8  A    between atoms: C_11  and  C_13
REMARK                            x       y       z     vdW  Elec       q    Type
REMARK                         _______ _______ _______ _____ _____    ______ ____
ROOT
ATOM      1  C   UNL     1      45.860   4.593  12.536  0.00  0.00    +0.000 A 
ATOM      2  C   UNL     1      46.390   4.146  13.748  0.00  0.00    +0.000 A 
ATOM      3  C   UNL     1      47.296   4.954  14.437  0.00  0.00    +0.000 A 
ATOM      4  C   UNL     1      47.669   6.187  13.903  0.00  0.00    +0.000 A 
ATOM      5  C   UNL     1      47.170   6.505  12.645  0.00  0.00    +0.000 A 
ATOM      6  N   UNL     1      46.270   5.754  11.964  0.00  0.00    +0.000 NA
ENDROOT
BRANCH   1   7
ATOM      7  C   UNL     1      44.642   3.887  11.949  0.00  0.00    +0.000 C 
BRANCH   7   8
ATOM      8  N   UNL     1      44.926   2.738  11.076  0.00  0.00    +0.000 NA
ATOM      9  H   UNL     1      44.457   1.920  11.463  0.00  0.00    +0.000 HD
BRANCH   8  11
ATOM     10  C   UNL     1      43.822   4.381   9.645  0.00  0.00    +0.000 C 
ATOM     11  C   UNL     1      44.385   2.959   9.710  0.00  0.00    +0.000 C 
BRANCH  11  12
ATOM     12  C   UNL     1      45.398   2.764   8.578  0.00  0.00    +0.000 A 
ATOM     13  C   UNL     1      45.998   1.517   8.381  0.00  0.00    +0.000 A 
ATOM     14  C   UNL     1      46.955   1.373   7.383  0.00  0.00    +0.000 A 
ATOM     15  C   UNL     1      47.285   2.467   6.591  0.00  0.00    +0.000 A 
ATOM     16  C   UNL     1      46.625   3.661   6.824  0.00  0.00    +0.000 A 
ATOM     17  N   UNL     1      45.695   3.837   7.791  0.00  0.00    +0.000 NA
ENDBRANCH  11  12
ENDBRANCH   8  11
ENDBRANCH   7   8
ENDBRANCH   1   7
BRANCH   4  18
ATOM     18  C   UNL     1      48.612   7.108  14.621  0.00  0.00    +0.000 C 
BRANCH  18  19
ATOM     19  N   UNL     1      48.427   6.998  16.041  0.00  0.00    +0.000 N 
ATOM     20  C   UNL     1      48.815   7.969  16.924  0.00  0.00    +0.000 C 
ATOM     21  O   UNL     1      49.309   9.029  16.560  0.00  0.00    +0.000 OA
ATOM     22  H   UNL     1      48.253   6.062  16.390  0.00  0.00    +0.000 HD
BRANCH  20  23
ATOM     23  C   UNL     1      48.523   7.687  18.337  0.00  0.00    +0.000 A 
ATOM     24  C   UNL     1      47.958   8.666  19.141  0.00  0.00    +0.000 A 
ATOM     25  S   UNL     1      47.586   8.125  20.716  0.00  0.00    +0.000 S 
ATOM     26  C   UNL     1      48.221   6.579  20.397  0.00  0.00    +0.000 A 
ATOM     27  N   UNL     1      48.215   5.604  21.347  0.00  0.00    +0.000 NA
ATOM     28  C   UNL     1      48.745   4.487  20.975  0.00  0.00    +0.000 A 
ATOM     29  N   UNL     1      49.290   4.258  19.734  0.00  0.00    +0.000 N 
ATOM     30  C   UNL     1      49.314   5.207  18.745  0.00  0.00    +0.000 A 
ATOM     31  O   UNL     1      49.801   4.968  17.644  0.00  0.00    +0.000 OA
ATOM     32  C   UNL     1      48.712   6.476  19.109  0.00  0.00    +0.000 A 
ATOM     33  H   UNL     1      49.695   3.363  19.503  0.00  0.00    +0.000 HD
ENDBRANCH  20  23
ENDBRANCH  18  19
ENDBRANCH   4  18
TORSDOF 7
ENDMDL
MODEL 7
REMARK VINA RESULT:    -7.618      3.350      9.124
REMARK INTER + INTRA:         -11.394
REMARK INTER:                  -9.957
REMARK INTRA:                  -1.436
REMARK UNBOUND:                -0.658
REMARK  Name = 
REMARK  8 active torsions:
REMARK  status: ('A' for Active; 'I' for Inactive)
REMARK    1  A    between atoms: C_1  and  C_2
REMARK    2  A    between atoms: C_2  and  N_3
REMARK    3  A    between atoms: C_2  and  C_25
REMARK    4  A    between atoms: N_3  and  C_4
REMARK    5  A    between atoms: C_4  and  C_5
REMARK    6  A    between atoms: C_8  and  C_9
REMARK    7  A    between atoms: C_9  and  N_10
REMARK    8  A    between atoms: C_11  and  C_13
REMARK                            x       y       z     vdW  Elec       q    Type
REMARK                         _______ _______ _______ _____ _____    ______ ____
ROOT
ATOM      1  C   UNL     1      48.882   8.109  16.018  0.00  0.00    +0.000 A 
ATOM      2  C   UNL     1      48.458   9.263  15.356  0.00  0.00    +0.000 A 
ATOM      3  C   UNL     1      48.076   9.180  14.016  0.00  0.00    +0.000 A 
ATOM      4  C   UNL     1      48.133   7.954  13.355  0.00  0.00    +0.000 A 
ATOM      5  C   UNL     1      48.663   6.881  14.062  0.00  0.00    +0.000 A 
ATOM      6  N   UNL     1      49.018   6.924  15.369  0.00  0.00    +0.000 NA
ENDROOT
BRANCH   1   7
ATOM      7  C   UNL     1      48.984   8.117  17.540  0.00  0.00    +0.000 C 
BRANCH   7   8
ATOM      8  N   UNL     1      47.857   7.510  18.262  0.00  0.00    +0.000 NA
ATOM      9  H   UNL     1      47.188   7.161  17.575  0.00  0.00    +0.000 HD
BRANCH   8  11
ATOM     10  C   UNL     1      47.348   6.203  20.262  0.00  0.00    +0.000 C 
ATOM     11  C   UNL     1      48.306   6.351  19.077  0.00  0.00    +0.000 C 
BRANCH  11  12
ATOM     12  C   UNL     1      48.380   5.022  18.318  0.00  0.00    +0.000 A 
ATOM     13  C   UNL     1      49.598   4.345  18.209  0.00  0.00    +0.000 A 
ATOM     14  C   UNL     1      49.659   3.167  17.472  0.00  0.00    +0.000 A 
ATOM     15  C   UNL     1      48.503   2.680  16.870  0.00  0.00    +0.000 A 
ATOM     16  C   UNL     1      47.328   3.389  17.050  0.00  0.00    +0.000 A 
ATOM     17  N   UNL     1      47.237   4.540  17.755  0.00  0.00    +0.000 NA
ENDBRANCH  11  12
ENDBRANCH   8  11
ENDBRANCH   7   8
ENDBRANCH   1   7
BRANCH   4  18
ATOM     18  C   UNL     1      47.700   7.805  11.925  0.00  0.00    +0.000 C 
BRANCH  18  19
ATOM     19  N   UNL     1      46.962   6.583  11.756  0.00  0.00    +0.000 N 
ATOM     20  C   UNL     1      45.599   6.512  11.850  0.00  0.00    +0.000 C 
ATOM     21  O   UNL     1      44.901   7.500  12.041  0.00  0.00    +0.000 OA
ATOM     22  H   UNL     1      47.503   5.729  11.840  0.00  0.00    +0.000 HD
BRANCH  20  23
ATOM     23  C   UNL     1      45.022   5.178  11.626  0.00  0.00    +0.000 A 
ATOM     24  C   UNL     1      44.366   4.520  12.656  0.00  0.00    +0.000 A 
ATOM     25  S   UNL     1      43.665   3.039  12.181  0.00  0.00    +0.000 S 
ATOM     26  C   UNL     1      44.264   3.197  10.596  0.00  0.00    +0.000 A 
ATOM     27  N   UNL     1      44.019   2.248   9.652  0.00  0.00    +0.000 NA
ATOM     28  C   UNL     1      44.549   2.487   8.499  0.00  0.00    +0.000 A 
ATOM     29  N   UNL     1      45.312   3.591   8.206  0.00  0.00    +0.000 N 
ATOM     30  C   UNL     1      45.581   4.575   9.123  0.00  0.00    +0.000 A 
ATOM     31  O   UNL     1      46.260   5.554   8.827  0.00  0.00    +0.000 OA
ATOM     32  C   UNL     1      44.990   4.362  10.430  0.00  0.00    +0.000 A 
ATOM     33  H   UNL     1      45.704   3.722   7.285  0.00  0.00    +0.000 HD
ENDBRANCH  20  23
ENDBRANCH  18  19
ENDBRANCH   4  18
TORSDOF 7
ENDMDL
MODEL 8
REMARK VINA RESULT:    -7.334      1.891      2.382
REMARK INTER + INTRA:         -10.993
REMARK INTER:                 -10.400
REMARK INTRA:                  -0.593
REMARK UNBOUND:                -0.658
REMARK  Name = 
REMARK  8 active torsions:
REMARK  status: ('A' for Active; 'I' for Inactive)
REMARK    1  A    between atoms: C_1  and  C_2
REMARK    2  A    between atoms: C_2  and  N_3
REMARK    3  A    between atoms: C_2  and  C_25
REMARK    4  A    between atoms: N_3  and  C_4
REMARK    5  A    between atoms: C_4  and  C_5
REMARK    6  A    between atoms: C_8  and  C_9
REMARK    7  A    between atoms: C_9  and  N_10
REMARK    8  A    between atoms: C_11  and  C_13
REMARK                            x       y       z     vdW  Elec       q    Type
REMARK                         _______ _______ _______ _____ _____    ______ ____
ROOT
ATOM      1  C   UNL     1      44.664   6.716  11.537  0.00  0.00    +0.000 A 
ATOM      2  C   UNL     1      45.844   6.058  11.888  0.00  0.00    +0.000 A 
ATOM      3  C   UNL     1      46.832   6.754  12.587  0.00  0.00    +0.000 A 
ATOM      4  C   UNL     1      46.635   8.095  12.913  0.00  0.00    +0.000 A 
ATOM      5  C   UNL     1      45.476   8.696  12.435  0.00  0.00    +0.000 A 
ATOM      6  N   UNL     1      44.488   8.041  11.778  0.00  0.00    +0.000 NA
ENDROOT
BRANCH   1   7
ATOM      7  C   UNL     1      43.462   5.898  11.077  0.00  0.00    +0.000 C 
BRANCH   7   8
ATOM      8  N   UNL     1      43.688   5.022   9.917  0.00  0.00    +0.000 NA
ATOM      9  H   UNL     1      44.174   5.561   9.200  0.00  0.00    +0.000 HD
BRANCH   8  11
ATOM     10  C   UNL     1      43.673   2.782  10.889  0.00  0.00    +0.000 C 
ATOM     11  C   UNL     1      44.557   3.872  10.278  0.00  0.00    +0.000 C 
BRANCH  11  12
ATOM     12  C   UNL     1      45.357   3.281   9.114  0.00  0.00    +0.000 A 
ATOM     13  C   UNL     1      45.825   4.111   8.092  0.00  0.00    +0.000 A 
ATOM     14  C   UNL     1      46.504   3.549   7.015  0.00  0.00    +0.000 A 
ATOM     15  C   UNL     1      46.715   2.175   6.985  0.00  0.00    +0.000 A 
ATOM     16  C   UNL     1      46.250   1.423   8.049  0.00  0.00    +0.000 A 
ATOM     17  N   UNL     1      45.581   1.937   9.107  0.00  0.00    +0.000 NA
ENDBRANCH  11  12
ENDBRANCH   8  11
ENDBRANCH   7   8
ENDBRANCH   1   7
BRANCH   4  18
ATOM     18  C   UNL     1      47.651   8.878  13.693  0.00  0.00    +0.000 C 
BRANCH  18  19
ATOM     19  N   UNL     1      47.727   8.385  15.041  0.00  0.00    +0.000 N 
ATOM     20  C   UNL     1      48.485   8.978  16.014  0.00  0.00    +0.000 C 
ATOM     21  O   UNL     1      49.121  10.006  15.815  0.00  0.00    +0.000 OA
ATOM     22  H   UNL     1      47.422   7.427  15.176  0.00  0.00    +0.000 HD
BRANCH  20  23
ATOM     23  C   UNL     1      48.420   8.343  17.338  0.00  0.00    +0.000 A 
ATOM     24  C   UNL     1      48.194   9.112  18.469  0.00  0.00    +0.000 A 
ATOM     25  S   UNL     1      48.037   8.192  19.899  0.00  0.00    +0.000 S 
ATOM     26  C   UNL     1      48.325   6.738  19.063  0.00  0.00    +0.000 A 
ATOM     27  N   UNL     1      48.329   5.542  19.712  0.00  0.00    +0.000 NA
ATOM     28  C   UNL     1      48.579   4.523  18.959  0.00  0.00    +0.000 A 
ATOM     29  N   UNL     1      48.833   4.594  17.610  0.00  0.00    +0.000 N 
ATOM     30  C   UNL     1      48.834   5.776  16.915  0.00  0.00    +0.000 A 
ATOM     31  O   UNL     1      49.057   5.804  15.707  0.00  0.00    +0.000 OA
ATOM     32  C   UNL     1      48.539   6.949  17.714  0.00  0.00    +0.000 A 
ATOM     33  H   UNL     1      49.027   3.761  17.074  0.00  0.00    +0.000 HD
ENDBRANCH  20  23
ENDBRANCH  18  19
ENDBRANCH   4  18
TORSDOF 7
ENDMDL
MODEL 9
REMARK VINA RESULT:    -7.265      3.908      9.947
REMARK INTER + INTRA:         -10.896
REMARK INTER:                  -9.582
REMARK INTRA:                  -1.314
REMARK UNBOUND:                -0.658
REMARK  Name = 
REMARK  8 active torsions:
REMARK  status: ('A' for Active; 'I' for Inactive)
REMARK    1  A    between atoms: C_1  and  C_2
REMARK    2  A    between atoms: C_2  and  N_3
REMARK    3  A    between atoms: C_2  and  C_25
REMARK    4  A    between atoms: N_3  and  C_4
REMARK    5  A    between atoms: C_4  and  C_5
REMARK    6  A    between atoms: C_8  and  C_9
REMARK    7  A    between atoms: C_9  and  N_10
REMARK    8  A    between atoms: C_11  and  C_13
REMARK                            x       y       z     vdW  Elec       q    Type
REMARK                         _______ _______ _______ _____ _____    ______ ____
ROOT
ATOM      1  C   UNL     1      51.372   4.320  17.782  0.00  0.00    +0.000 A 
ATOM      2  C   UNL     1      50.570   5.394  17.391  0.00  0.00    +0.000 A 
ATOM      3  C   UNL     1      49.240   5.160  17.038  0.00  0.00    +0.000 A 
ATOM      4  C   UNL     1      48.734   3.861  17.068  0.00  0.00    +0.000 A 
ATOM      5  C   UNL     1      49.631   2.843  17.371  0.00  0.00    +0.000 A 
ATOM      6  N   UNL     1      50.919   3.041  17.742  0.00  0.00    +0.000 NA
ENDROOT
BRANCH   1   7
ATOM      7  C   UNL     1      52.703   4.596  18.475  0.00  0.00    +0.000 C 
BRANCH   7   8
ATOM      8  N   UNL     1      52.628   5.372  19.721  0.00  0.00    +0.000 NA
ATOM      9  H   UNL     1      52.272   6.301  19.498  0.00  0.00    +0.000 HD
BRANCH   8  11
ATOM     10  C   UNL     1      52.374   4.666  22.046  0.00  0.00    +0.000 C 
ATOM     11  C   UNL     1      51.682   4.749  20.683  0.00  0.00    +0.000 C 
BRANCH  11  12
ATOM     12  C   UNL     1      50.347   5.484  20.838  0.00  0.00    +0.000 A 
ATOM     13  C   UNL     1      49.168   4.761  21.040  0.00  0.00    +0.000 A 
ATOM     14  C   UNL     1      47.958   5.442  21.125  0.00  0.00    +0.000 A 
ATOM     15  C   UNL     1      47.948   6.829  21.023  0.00  0.00    +0.000 A 
ATOM     16  C   UNL     1      49.158   7.477  20.857  0.00  0.00    +0.000 A 
ATOM     17  N   UNL     1      50.351   6.845  20.763  0.00  0.00    +0.000 NA
ENDBRANCH  11  12
ENDBRANCH   8  11
ENDBRANCH   7   8
ENDBRANCH   1   7
BRANCH   4  18
ATOM     18  C   UNL     1      47.302   3.561  16.732  0.00  0.00    +0.000 C 
BRANCH  18  19
ATOM     19  N   UNL     1      46.816   4.497  15.755  0.00  0.00    +0.000 N 
ATOM     20  C   UNL     1      46.833   4.251  14.409  0.00  0.00    +0.000 C 
ATOM     21  O   UNL     1      47.223   3.189  13.940  0.00  0.00    +0.000 OA
ATOM     22  H   UNL     1      46.718   5.454  16.076  0.00  0.00    +0.000 HD
BRANCH  20  23
ATOM     23  C   UNL     1      46.273   5.319  13.568  0.00  0.00    +0.000 A 
ATOM     24  C   UNL     1      47.010   6.468  13.318  0.00  0.00    +0.000 A 
ATOM     25  S   UNL     1      46.249   7.543  12.233  0.00  0.00    +0.000 S 
ATOM     26  C   UNL     1      44.882   6.538  12.105  0.00  0.00    +0.000 A 
ATOM     27  N   UNL     1      43.829   6.878  11.313  0.00  0.00    +0.000 NA
ATOM     28  C   UNL     1      42.852   6.034  11.326  0.00  0.00    +0.000 A 
ATOM     29  N   UNL     1      42.831   4.878  12.067  0.00  0.00    +0.000 N 
ATOM     30  C   UNL     1      43.871   4.492  12.874  0.00  0.00    +0.000 A 
ATOM     31  O   UNL     1      43.824   3.447  13.518  0.00  0.00    +0.000 OA
ATOM     32  C   UNL     1      45.002   5.399  12.879  0.00  0.00    +0.000 A 
ATOM     33  H   UNL     1      42.035   4.258  12.039  0.00  0.00    +0.000 HD
ENDBRANCH  20  23
ENDBRANCH  18  19
ENDBRANCH   4  18
TORSDOF 7
ENDMDL
