MODEL 1
REMARK VINA RESULT:    -8.898      0.000      0.000
REMARK INTER + INTRA:         -13.319
REMARK INTER:                 -12.539
REMARK INTRA:                  -0.780
REMARK UNBOUND:                -0.780
REMARK  Name = 
REMARK  7 active torsions:
REMARK  status: ('A' for Active; 'I' for Inactive)
REMARK    1  A    between atoms: C_2  and  C_4
REMARK    2  A    between atoms: C_8  and  N_9
REMARK    3  A    between atoms: N_9  and  C_10
REMARK    4  A    between atoms: C_10  and  C_11
REMARK    5  A    between atoms: C_14  and  C_15
REMARK    6  A    between atoms: C_15  and  N_16
REMARK    7  A    between atoms: C_17  and  C_19
REMARK                            x       y       z     vdW  Elec       q    Type
REMARK                         _______ _______ _______ _____ _____    ______ ____
ROOT
ATOM      1  C   UNL     1      44.737   4.097  12.340  0.00  0.00    +0.000 A 
ATOM      2  C   UNL     1      45.824   3.414  12.907  0.00  0.00    +0.000 A 
ATOM      3  C   UNL     1      46.912   4.115  13.442  0.00  0.00    +0.000 A 
ATOM      4  C   UNL     1      46.929   5.516  13.442  0.00  0.00    +0.000 A 
ATOM      5  C   UNL     1      45.846   6.199  12.873  0.00  0.00    +0.000 A 
ATOM      6  C   UNL     1      44.758   5.499  12.337  0.00  0.00    +0.000 A 
ENDROOT
BRANCH   1   7
ATOM      7  C   UNL     1      43.566   3.338  11.748  0.00  0.00    +0.000 C 
BRANCH   7   8
ATOM      8  N   UNL     1      44.041   2.322  10.826  0.00  0.00    +0.000 N 
ATOM      9  H   UNL     1      43.366   1.595  10.609  0.00  0.00    +0.000 HD
BRANCH   8  14
ATOM     10  C   UNL     1      46.228   2.087   8.024  0.00  0.00    +0.000 A 
ATOM     11  C   UNL     1      46.211   3.342   7.435  0.00  0.00    +0.000 A 
ATOM     12  C   UNL     1      45.379   4.298   7.993  0.00  0.00    +0.000 A 
ATOM     13  C   UNL     1      44.620   3.969   9.117  0.00  0.00    +0.000 A 
ATOM     14  C   UNL     1      44.693   2.686   9.660  0.00  0.00    +0.000 A 
ATOM     15  N   UNL     1      45.483   1.738   9.116  0.00  0.00    +0.000 NA
BRANCH  10  17
ATOM     16  N   UNL     1      46.708  -0.261   7.649  0.00  0.00    +0.000 N 
ATOM     17  C   UNL     1      47.115   1.028   7.444  0.00  0.00    +0.000 C 
ATOM     18  O   UNL     1      48.139   1.288   6.819  0.00  0.00    +0.000 OA
ATOM     19  H   UNL     1      47.266  -1.022   7.288  0.00  0.00    +0.000 HD
ATOM     20  H   UNL     1      45.861  -0.442   8.172  0.00  0.00    +0.000 HD
ENDBRANCH  10  17
ENDBRANCH   8  14
ENDBRANCH   7   8
ENDBRANCH   1   7
BRANCH   4  21
ATOM     21  C   UNL     1      48.102   6.276  14.009  0.00  0.00    +0.000 C 
BRANCH  21  22
ATOM     22  N   UNL     1      47.922   6.550  15.413  0.00  0.00    +0.000 N 
ATOM     23  C   UNL     1      48.961   6.434  16.303  0.00  0.00    +0.000 C 
ATOM     24  O   UNL     1      50.097   6.139  15.940  0.00  0.00    +0.000 OA
ATOM     25  H   UNL     1      46.968   6.568  15.759  0.00  0.00    +0.000 HD
BRANCH  23  26
ATOM     26  C   UNL     1      48.662   6.741  17.708  0.00  0.00    +0.000 A 
ATOM     27  C   UNL     1      48.407   8.053  18.087  0.00  0.00    +0.000 A 
ATOM     28  S   UNL     1      48.023   8.228  19.740  0.00  0.00    +0.000 S 
ATOM     29  C   UNL     1      48.234   6.564  20.019  0.00  0.00    +0.000 A 
ATOM     30  N   UNL     1      48.073   6.039  21.264  0.00  0.00    +0.000 NA
ATOM     31  C   UNL     1      48.294   4.770  21.341  0.00  0.00    +0.000 A 
ATOM     32  N   UNL     1      48.658   3.975  20.284  0.00  0.00    +0.000 N 
ATOM     33  C   UNL     1      48.807   4.456  19.005  0.00  0.00    +0.000 A 
ATOM     34  O   UNL     1      49.099   3.712  18.076  0.00  0.00    +0.000 OA
ATOM     35  C   UNL     1      48.578   5.882  18.865  0.00  0.00    +0.000 A 
ATOM     36  H   UNL     1      48.811   2.987  20.410  0.00  0.00    +0.000 HD
ENDBRANCH  23  26
ENDBRANCH  21  22
ENDBRANCH   4  21
TORSDOF 7
ENDMDL
MODEL 2
REMARK VINA RESULT:    -8.649      1.268      2.104
REMARK INTER + INTRA:         -12.969
REMARK INTER:                 -11.938
REMARK INTRA:                  -1.031
REMARK UNBOUND:                -0.780
REMARK  Name = 
REMARK  7 active torsions:
REMARK  status: ('A' for Active; 'I' for Inactive)
REMARK    1  A    between atoms: C_2  and  C_4
REMARK    2  A    between atoms: C_8  and  N_9
REMARK    3  A    between atoms: N_9  and  C_10
REMARK    4  A    between atoms: C_10  and  C_11
REMARK    5  A    between atoms: C_14  and  C_15
REMARK    6  A    between atoms: C_15  and  N_16
REMARK    7  A    between atoms: C_17  and  C_19
REMARK                            x       y       z     vdW  Elec       q    Type
REMARK                         _______ _______ _______ _____ _____    ______ ____
ROOT
ATOM      1  C   UNL     1      44.752   4.111  12.447  0.00  0.00    +0.000 A 
ATOM      2  C   UNL     1      44.763   5.506  12.591  0.00  0.00    +0.000 A 
ATOM      3  C   UNL     1      45.826   6.154  13.231  0.00  0.00    +0.000 A 
ATOM      4  C   UNL     1      46.915   5.423  13.723  0.00  0.00    +0.000 A 
ATOM      5  C   UNL     1      46.904   4.030  13.584  0.00  0.00    +0.000 A 
ATOM      6  C   UNL     1      45.841   3.381  12.944  0.00  0.00    +0.000 A 
ENDROOT
BRANCH   1   7
ATOM      7  C   UNL     1      43.594   3.409  11.766  0.00  0.00    +0.000 C 
BRANCH   7   8
ATOM      8  N   UNL     1      44.088   2.376  10.874  0.00  0.00    +0.000 N 
ATOM      9  H   UNL     1      43.439   1.613  10.704  0.00  0.00    +0.000 HD
BRANCH   8  14
ATOM     10  C   UNL     1      46.195   2.103   8.014  0.00  0.00    +0.000 A 
ATOM     11  C   UNL     1      46.130   3.338   7.388  0.00  0.00    +0.000 A 
ATOM     12  C   UNL     1      45.293   4.292   7.941  0.00  0.00    +0.000 A 
ATOM     13  C   UNL     1      44.576   3.981   9.098  0.00  0.00    +0.000 A 
ATOM     14  C   UNL     1      44.696   2.717   9.677  0.00  0.00    +0.000 A 
ATOM     15  N   UNL     1      45.491   1.772   9.139  0.00  0.00    +0.000 NA
BRANCH  10  17
ATOM     16  N   UNL     1      46.675  -0.243   7.625  0.00  0.00    +0.000 N 
ATOM     17  C   UNL     1      47.089   1.047   7.440  0.00  0.00    +0.000 C 
ATOM     18  O   UNL     1      48.124   1.309   6.835  0.00  0.00    +0.000 OA
ATOM     19  H   UNL     1      47.237  -1.002   7.268  0.00  0.00    +0.000 HD
ATOM     20  H   UNL     1      45.818  -0.427   8.133  0.00  0.00    +0.000 HD
ENDBRANCH  10  17
ENDBRANCH   8  14
ENDBRANCH   7   8
ENDBRANCH   1   7
BRANCH   4  21
ATOM     21  C   UNL     1      48.060   6.115  14.422  0.00  0.00    +0.000 C 
BRANCH  21  22
ATOM     22  N   UNL     1      47.903   6.073  15.855  0.00  0.00    +0.000 N 
ATOM     23  C   UNL     1      48.982   5.909  16.687  0.00  0.00    +0.000 C 
ATOM     24  O   UNL     1      50.131   5.837  16.256  0.00  0.00    +0.000 OA
ATOM     25  H   UNL     1      46.968   5.902  16.211  0.00  0.00    +0.000 HD
BRANCH  23  26
ATOM     26  C   UNL     1      48.705   5.884  18.130  0.00  0.00    +0.000 A 
ATOM     27  C   UNL     1      48.927   4.720  18.854  0.00  0.00    +0.000 A 
ATOM     28  S   UNL     1      48.609   4.878  20.522  0.00  0.00    +0.000 S 
ATOM     29  C   UNL     1      48.116   6.494  20.329  0.00  0.00    +0.000 A 
ATOM     30  N   UNL     1      47.687   7.225  21.393  0.00  0.00    +0.000 NA
ATOM     31  C   UNL     1      47.313   8.425  21.100  0.00  0.00    +0.000 A 
ATOM     32  N   UNL     1      47.332   8.963  19.839  0.00  0.00    +0.000 N 
ATOM     33  C   UNL     1      47.780   8.271  18.739  0.00  0.00    +0.000 A 
ATOM     34  O   UNL     1      47.818   8.794  17.631  0.00  0.00    +0.000 OA
ATOM     35  C   UNL     1      48.206   6.912  19.013  0.00  0.00    +0.000 A 
ATOM     36  H   UNL     1      47.030   9.911  19.677  0.00  0.00    +0.000 HD
ENDBRANCH  23  26
ENDBRANCH  21  22
ENDBRANCH   4  21
TORSDOF 7
ENDMDL
MODEL 3
REMARK VINA RESULT:    -8.560      1.106      1.531
REMARK INTER + INTRA:         -12.843
REMARK INTER:                 -12.131
REMARK INTRA:                  -0.712
REMARK UNBOUND:                -0.780
REMARK  Name = 
REMARK  7 active torsions:
REMARK  status: ('A' for Active; 'I' for Inactive)
REMARK    1  A    between atoms: C_2  and  C_4
REMARK    2  A    between atoms: C_8  and  N_9
REMARK    3  A    between atoms: N_9  and  C_10
REMARK    4  A    between atoms: C_10  and  C_11
REMARK    5  A    between atoms: C_14  and  C_15
REMARK    6  A    between atoms: C_15  and  N_16
REMARK    7  A    between atoms: C_17  and  C_19
REMARK                            x       y       z     vdW  Elec       q    Type
REMARK                         _______ _______ _______ _____ _____    ______ ____
ROOT
ATOM      1  C   UNL     1      44.465   4.587  11.983  0.00  0.00    +0.000 A 
ATOM      2  C   UNL     1      44.233   5.952  11.759  0.00  0.00    +0.000 A 
ATOM      3  C   UNL     1      45.153   6.916  12.189  0.00  0.00    +0.000 A 
ATOM      4  C   UNL     1      46.337   6.537  12.834  0.00  0.00    +0.000 A 
ATOM      5  C   UNL     1      46.568   5.174  13.063  0.00  0.00    +0.000 A 
ATOM      6  C   UNL     1      45.648   4.209  12.634  0.00  0.00    +0.000 A 
ENDROOT
BRANCH   1   7
ATOM      7  C   UNL     1      43.463   3.544  11.531  0.00  0.00    +0.000 C 
BRANCH   7   8
ATOM      8  N   UNL     1      44.133   2.491  10.790  0.00  0.00    +0.000 N 
ATOM      9  H   UNL     1      43.594   1.637  10.680  0.00  0.00    +0.000 HD
BRANCH   8  14
ATOM     10  C   UNL     1      46.257   2.054   7.962  0.00  0.00    +0.000 A 
ATOM     11  C   UNL     1      46.247   3.273   7.301  0.00  0.00    +0.000 A 
ATOM     12  C   UNL     1      45.443   4.274   7.818  0.00  0.00    +0.000 A 
ATOM     13  C   UNL     1      44.702   4.025   8.975  0.00  0.00    +0.000 A 
ATOM     14  C   UNL     1      44.767   2.774   9.591  0.00  0.00    +0.000 A 
ATOM     15  N   UNL     1      45.529   1.783   9.088  0.00  0.00    +0.000 NA
BRANCH  10  17
ATOM     16  N   UNL     1      46.691  -0.320   7.718  0.00  0.00    +0.000 N 
ATOM     17  C   UNL     1      47.114   0.947   7.428  0.00  0.00    +0.000 C 
ATOM     18  O   UNL     1      48.127   1.153   6.767  0.00  0.00    +0.000 OA
ATOM     19  H   UNL     1      47.229  -1.110   7.392  0.00  0.00    +0.000 HD
ATOM     20  H   UNL     1      45.852  -0.455   8.269  0.00  0.00    +0.000 HD
ENDBRANCH  10  17
ENDBRANCH   8  14
ENDBRANCH   7   8
ENDBRANCH   1   7
BRANCH   4  21
ATOM     21  C   UNL     1      47.327   7.572  13.308  0.00  0.00    +0.000 C 
BRANCH  21  22
ATOM     22  N   UNL     1      47.647   7.394  14.702  0.00  0.00    +0.000 N 
ATOM     23  C   UNL     1      48.920   7.081  15.109  0.00  0.00    +0.000 C 
ATOM     24  O   UNL     1      49.851   6.985  14.313  0.00  0.00    +0.000 OA
ATOM     25  H   UNL     1      46.869   7.244  15.337  0.00  0.00    +0.000 HD
BRANCH  23  26
ATOM     26  C   UNL     1      49.131   6.927  16.555  0.00  0.00    +0.000 A 
ATOM     27  C   UNL     1      49.616   7.997  17.298  0.00  0.00    +0.000 A 
ATOM     28  S   UNL     1      49.749   7.669  18.966  0.00  0.00    +0.000 S 
ATOM     29  C   UNL     1      49.210   6.071  18.750  0.00  0.00    +0.000 A 
ATOM     30  N   UNL     1      49.110   5.218  19.805  0.00  0.00    +0.000 NA
ATOM     31  C   UNL     1      48.719   4.028  19.495  0.00  0.00    +0.000 A 
ATOM     32  N   UNL     1      48.415   3.613  18.224  0.00  0.00    +0.000 N 
ATOM     33  C   UNL     1      48.477   4.445  17.131  0.00  0.00    +0.000 A 
ATOM     34  O   UNL     1      48.163   4.052  16.014  0.00  0.00    +0.000 OA
ATOM     35  C   UNL     1      48.919   5.795  17.425  0.00  0.00    +0.000 A 
ATOM     36  H   UNL     1      48.110   2.668  18.048  0.00  0.00    +0.000 HD
ENDBRANCH  23  26
ENDBRANCH  21  22
ENDBRANCH   4  21
TORSDOF 7
ENDMDL
MODEL 4
REMARK VINA RESULT:    -8.413      1.500      1.870
REMARK INTER + INTRA:         -12.636
REMARK INTER:                 -11.457
REMARK INTRA:                  -1.178
REMARK UNBOUND:                -0.780
REMARK  Name = 
REMARK  7 active torsions:
REMARK  status: ('A' for Active; 'I' for Inactive)
REMARK    1  A    between atoms: C_2  and  C_4
REMARK    2  A    between atoms: C_8  and  N_9
REMARK    3  A    between atoms: N_9  and  C_10
REMARK    4  A    between atoms: C_10  and  C_11
REMARK    5  A    between atoms: C_14  and  C_15
REMARK    6  A    between atoms: C_15  and  N_16
REMARK    7  A    between atoms: C_17  and  C_19
REMARK                            x       y       z     vdW  Elec       q    Type
REMARK                         _______ _______ _______ _____ _____    ______ ____
ROOT
ATOM      1  C   UNL     1      44.985   5.425  11.425  0.00  0.00    +0.000 A 
ATOM      2  C   UNL     1      45.748   6.532  11.029  0.00  0.00    +0.000 A 
ATOM      3  C   UNL     1      46.886   6.916  11.751  0.00  0.00    +0.000 A 
ATOM      4  C   UNL     1      47.298   6.187  12.874  0.00  0.00    +0.000 A 
ATOM      5  C   UNL     1      46.534   5.083  13.273  0.00  0.00    +0.000 A 
ATOM      6  C   UNL     1      45.396   4.699  12.552  0.00  0.00    +0.000 A 
ENDROOT
BRANCH   1   7
ATOM      7  C   UNL     1      43.746   5.019  10.652  0.00  0.00    +0.000 C 
BRANCH   7   8
ATOM      8  N   UNL     1      44.075   4.801   9.255  0.00  0.00    +0.000 N 
ATOM      9  H   UNL     1      44.465   5.608   8.778  0.00  0.00    +0.000 HD
BRANCH   8  14
ATOM     10  C   UNL     1      46.292   2.742   7.374  0.00  0.00    +0.000 A 
ATOM     11  C   UNL     1      46.116   1.460   7.869  0.00  0.00    +0.000 A 
ATOM     12  C   UNL     1      45.234   1.298   8.925  0.00  0.00    +0.000 A 
ATOM     13  C   UNL     1      44.557   2.412   9.424  0.00  0.00    +0.000 A 
ATOM     14  C   UNL     1      44.781   3.673   8.871  0.00  0.00    +0.000 A 
ATOM     15  N   UNL     1      45.651   3.850   7.857  0.00  0.00    +0.000 NA
BRANCH  10  17
ATOM     16  N   UNL     1      48.564   2.767   6.523  0.00  0.00    +0.000 N 
ATOM     17  C   UNL     1      47.241   2.954   6.234  0.00  0.00    +0.000 C 
ATOM     18  O   UNL     1      46.867   3.268   5.108  0.00  0.00    +0.000 OA
ATOM     19  H   UNL     1      49.255   2.900   5.799  0.00  0.00    +0.000 HD
ATOM     20  H   UNL     1      48.840   2.511   7.464  0.00  0.00    +0.000 HD
ENDBRANCH  10  17
ENDBRANCH   8  14
ENDBRANCH   7   8
ENDBRANCH   1   7
BRANCH   4  21
ATOM     21  C   UNL     1      48.517   6.600  13.661  0.00  0.00    +0.000 C 
BRANCH  21  22
ATOM     22  N   UNL     1      48.266   6.555  15.080  0.00  0.00    +0.000 N 
ATOM     23  C   UNL     1      49.014   7.296  15.961  0.00  0.00    +0.000 C 
ATOM     24  O   UNL     1      49.896   8.062  15.581  0.00  0.00    +0.000 OA
ATOM     25  H   UNL     1      47.714   5.777  15.425  0.00  0.00    +0.000 HD
BRANCH  23  26
ATOM     26  C   UNL     1      48.668   7.175  17.384  0.00  0.00    +0.000 A 
ATOM     27  C   UNL     1      48.164   8.275  18.066  0.00  0.00    +0.000 A 
ATOM     28  S   UNL     1      47.761   7.950  19.691  0.00  0.00    +0.000 S 
ATOM     29  C   UNL     1      48.291   6.340  19.556  0.00  0.00    +0.000 A 
ATOM     30  N   UNL     1      48.240   5.496  20.622  0.00  0.00    +0.000 NA
ATOM     31  C   UNL     1      48.702   4.314  20.389  0.00  0.00    +0.000 A 
ATOM     32  N   UNL     1      49.209   3.897  19.185  0.00  0.00    +0.000 N 
ATOM     33  C   UNL     1      49.257   4.705  18.075  0.00  0.00    +0.000 A 
ATOM     34  O   UNL     1      49.683   4.289  17.004  0.00  0.00    +0.000 OA
ATOM     35  C   UNL     1      48.756   6.050  18.285  0.00  0.00    +0.000 A 
ATOM     36  H   UNL     1      49.551   2.955  19.067  0.00  0.00    +0.000 HD
ENDBRANCH  23  26
ENDBRANCH  21  22
ENDBRANCH   4  21
TORSDOF 7
ENDMDL
MODEL 5
REMARK VINA RESULT:    -8.007      3.173      9.100
REMARK INTER + INTRA:         -12.063
REMARK INTER:                 -10.668
REMARK INTRA:                  -1.396
REMARK UNBOUND:                -0.780
REMARK  Name = 
REMARK  7 active torsions:
REMARK  status: ('A' for Active; 'I' for Inactive)
REMARK    1  A    between atoms: C_2  and  C_4
REMARK    2  A    between atoms: C_8  and  N_9
REMARK    3  A    between atoms: N_9  and  C_10
REMARK    4  A    between atoms: C_10  and  C_11
REMARK    5  A    between atoms: C_14  and  C_15
REMARK    6  A    between atoms: C_15  and  N_16
REMARK    7  A    between atoms: C_17  and  C_19
REMARK                            x       y       z     vdW  Elec       q    Type
REMARK                         _______ _______ _______ _____ _____    ______ ____
ROOT
ATOM      1  C   UNL     1      49.603   7.983  15.822  0.00  0.00    +0.000 A 
ATOM      2  C   UNL     1      48.362   8.601  15.605  0.00  0.00    +0.000 A 
ATOM      3  C   UNL     1      47.759   8.575  14.341  0.00  0.00    +0.000 A 
ATOM      4  C   UNL     1      48.372   7.913  13.271  0.00  0.00    +0.000 A 
ATOM      5  C   UNL     1      49.613   7.299  13.485  0.00  0.00    +0.000 A 
ATOM      6  C   UNL     1      50.217   7.325  14.748  0.00  0.00    +0.000 A 
ENDROOT
BRANCH   1   7
ATOM      7  C   UNL     1      50.262   8.024  17.186  0.00  0.00    +0.000 C 
BRANCH   7   8
ATOM      8  N   UNL     1      50.871   6.741  17.488  0.00  0.00    +0.000 N 
ATOM      9  H   UNL     1      51.664   6.783  18.121  0.00  0.00    +0.000 HD
BRANCH   8  14
ATOM     10  C   UNL     1      49.629   3.401  17.523  0.00  0.00    +0.000 A 
ATOM     11  C   UNL     1      48.474   3.444  18.289  0.00  0.00    +0.000 A 
ATOM     12  C   UNL     1      48.129   4.659  18.857  0.00  0.00    +0.000 A 
ATOM     13  C   UNL     1      48.935   5.775  18.623  0.00  0.00    +0.000 A 
ATOM     14  C   UNL     1      50.081   5.657  17.836  0.00  0.00    +0.000 A 
ATOM     15  N   UNL     1      50.441   4.477  17.292  0.00  0.00    +0.000 NA
BRANCH  10  17
ATOM     16  N   UNL     1      50.988   1.392  17.568  0.00  0.00    +0.000 N 
ATOM     17  C   UNL     1      50.033   2.102  16.895  0.00  0.00    +0.000 C 
ATOM     18  O   UNL     1      49.541   1.689  15.850  0.00  0.00    +0.000 OA
ATOM     19  H   UNL     1      51.308   0.511  17.194  0.00  0.00    +0.000 HD
ATOM     20  H   UNL     1      51.377   1.763  18.427  0.00  0.00    +0.000 HD
ENDBRANCH  10  17
ENDBRANCH   8  14
ENDBRANCH   7   8
ENDBRANCH   1   7
BRANCH   4  21
ATOM     21  C   UNL     1      47.731   7.889  11.905  0.00  0.00    +0.000 C 
BRANCH  21  22
ATOM     22  N   UNL     1      47.020   6.655  11.680  0.00  0.00    +0.000 N 
ATOM     23  C   UNL     1      45.672   6.553  11.921  0.00  0.00    +0.000 C 
ATOM     24  O   UNL     1      45.004   7.515  12.293  0.00  0.00    +0.000 OA
ATOM     25  H   UNL     1      47.577   5.811  11.598  0.00  0.00    +0.000 HD
BRANCH  23  26
ATOM     26  C   UNL     1      45.051   5.249  11.653  0.00  0.00    +0.000 A 
ATOM     27  C   UNL     1      44.374   4.587  12.669  0.00  0.00    +0.000 A 
ATOM     28  S   UNL     1      43.665   3.116  12.177  0.00  0.00    +0.000 S 
ATOM     29  C   UNL     1      44.280   3.286  10.600  0.00  0.00    +0.000 A 
ATOM     30  N   UNL     1      44.051   2.335   9.655  0.00  0.00    +0.000 NA
ATOM     31  C   UNL     1      44.602   2.574   8.512  0.00  0.00    +0.000 A 
ATOM     32  N   UNL     1      45.359   3.682   8.227  0.00  0.00    +0.000 N 
ATOM     33  C   UNL     1      45.596   4.680   9.142  0.00  0.00    +0.000 A 
ATOM     34  O   UNL     1      46.247   5.675   8.844  0.00  0.00    +0.000 OA
ATOM     35  C   UNL     1      45.004   4.456  10.447  0.00  0.00    +0.000 A 
ATOM     36  H   UNL     1      45.758   3.813   7.311  0.00  0.00    +0.000 HD
ENDBRANCH  23  26
ENDBRANCH  21  22
ENDBRANCH   4  21
TORSDOF 7
ENDMDL
MODEL 6
REMARK VINA RESULT:    -7.830      2.839      3.512
REMARK INTER + INTRA:         -11.815
REMARK INTER:                 -11.125
REMARK INTRA:                  -0.690
REMARK UNBOUND:                -0.780
REMARK  Name = 
REMARK  7 active torsions:
REMARK  status: ('A' for Active; 'I' for Inactive)
REMARK    1  A    between atoms: C_2  and  C_4
REMARK    2  A    between atoms: C_8  and  N_9
REMARK    3  A    between atoms: N_9  and  C_10
REMARK    4  A    between atoms: C_10  and  C_11
REMARK    5  A    between atoms: C_14  and  C_15
REMARK    6  A    between atoms: C_15  and  N_16
REMARK    7  A    between atoms: C_17  and  C_19
REMARK                            x       y       z     vdW  Elec       q    Type
REMARK                         _______ _______ _______ _____ _____    ______ ____
ROOT
ATOM      1  C   UNL     1      46.233   5.762  11.608  0.00  0.00    +0.000 A 
ATOM      2  C   UNL     1      47.343   6.235  12.323  0.00  0.00    +0.000 A 
ATOM      3  C   UNL     1      47.534   5.886  13.666  0.00  0.00    +0.000 A 
ATOM      4  C   UNL     1      46.630   5.038  14.318  0.00  0.00    +0.000 A 
ATOM      5  C   UNL     1      45.519   4.569  13.607  0.00  0.00    +0.000 A 
ATOM      6  C   UNL     1      45.327   4.918  12.264  0.00  0.00    +0.000 A 
ENDROOT
BRANCH   1   7
ATOM      7  C   UNL     1      46.019   6.152  10.159  0.00  0.00    +0.000 C 
BRANCH   7   8
ATOM      8  N   UNL     1      45.016   5.296   9.552  0.00  0.00    +0.000 N 
ATOM      9  H   UNL     1      44.416   5.757   8.874  0.00  0.00    +0.000 HD
BRANCH   8  14
ATOM     10  C   UNL     1      46.452   2.850   7.396  0.00  0.00    +0.000 A 
ATOM     11  C   UNL     1      45.980   1.630   7.855  0.00  0.00    +0.000 A 
ATOM     12  C   UNL     1      45.172   1.639   8.980  0.00  0.00    +0.000 A 
ATOM     13  C   UNL     1      44.857   2.859   9.583  0.00  0.00    +0.000 A 
ATOM     14  C   UNL     1      45.365   4.049   9.060  0.00  0.00    +0.000 A 
ATOM     15  N   UNL     1      46.168   4.054   7.978  0.00  0.00    +0.000 NA
BRANCH  10  17
ATOM     16  N   UNL     1      48.637   2.532   6.391  0.00  0.00    +0.000 N 
ATOM     17  C   UNL     1      47.331   2.876   6.182  0.00  0.00    +0.000 C 
ATOM     18  O   UNL     1      46.915   3.178   5.068  0.00  0.00    +0.000 OA
ATOM     19  H   UNL     1      49.282   2.536   5.615  0.00  0.00    +0.000 HD
ATOM     20  H   UNL     1      48.949   2.292   7.324  0.00  0.00    +0.000 HD
ENDBRANCH  10  17
ENDBRANCH   8  14
ENDBRANCH   7   8
ENDBRANCH   1   7
BRANCH   4  21
ATOM     21  C   UNL     1      46.825   4.666  15.767  0.00  0.00    +0.000 C 
BRANCH  21  22
ATOM     22  N   UNL     1      48.224   4.545  16.095  0.00  0.00    +0.000 N 
ATOM     23  C   UNL     1      48.645   4.411  17.395  0.00  0.00    +0.000 C 
ATOM     24  O   UNL     1      47.851   4.340  18.330  0.00  0.00    +0.000 OA
ATOM     25  H   UNL     1      48.889   4.826  15.382  0.00  0.00    +0.000 HD
BRANCH  23  26
ATOM     26  C   UNL     1      50.093   4.292  17.610  0.00  0.00    +0.000 A 
ATOM     27  C   UNL     1      50.833   5.418  17.949  0.00  0.00    +0.000 A 
ATOM     28  S   UNL     1      52.486   5.098  18.218  0.00  0.00    +0.000 S 
ATOM     29  C   UNL     1      52.283   3.452  17.843  0.00  0.00    +0.000 A 
ATOM     30  N   UNL     1      53.340   2.595  17.862  0.00  0.00    +0.000 NA
ATOM     31  C   UNL     1      53.050   1.383  17.527  0.00  0.00    +0.000 A 
ATOM     32  N   UNL     1      51.798   0.947  17.178  0.00  0.00    +0.000 N 
ATOM     33  C   UNL     1      50.697   1.769  17.168  0.00  0.00    +0.000 A 
ATOM     34  O   UNL     1      49.584   1.340  16.886  0.00  0.00    +0.000 OA
ATOM     35  C   UNL     1      50.969   3.147  17.531  0.00  0.00    +0.000 A 
ATOM     36  H   UNL     1      51.637  -0.017  16.930  0.00  0.00    +0.000 HD
ENDBRANCH  23  26
ENDBRANCH  21  22
ENDBRANCH   4  21
TORSDOF 7
ENDMDL
MODEL 7
REMARK VINA RESULT:    -7.764      3.773      5.894
REMARK INTER + INTRA:         -11.722
REMARK INTER:                 -10.888
REMARK INTRA:                  -0.834
REMARK UNBOUND:                -0.780
REMARK  Name = 
REMARK  7 active torsions:
REMARK  status: ('A' for Active; 'I' for Inactive)
REMARK    1  A    between atoms: C_2  and  C_4
REMARK    2  A    between atoms: C_8  and  N_9
REMARK    3  A    between atoms: N_9  and  C_10
REMARK    4  A    between atoms: C_10  and  C_11
REMARK    5  A    between atoms: C_14  and  C_15
REMARK    6  A    between atoms: C_15  and  N_16
REMARK    7  A    between atoms: C_17  and  C_19
REMARK                            x       y       z     vdW  Elec       q    Type
REMARK                         _______ _______ _______ _____ _____    ______ ____
ROOT
ATOM      1  C   UNL     1      44.680   4.099  12.282  0.00  0.00    +0.000 A 
ATOM      2  C   UNL     1      44.675   5.500  12.354  0.00  0.00    +0.000 A 
ATOM      3  C   UNL     1      45.717   6.190  12.986  0.00  0.00    +0.000 A 
ATOM      4  C   UNL     1      46.799   5.497  13.542  0.00  0.00    +0.000 A 
ATOM      5  C   UNL     1      46.804   4.098  13.474  0.00  0.00    +0.000 A 
ATOM      6  C   UNL     1      45.762   3.406  12.843  0.00  0.00    +0.000 A 
ENDROOT
BRANCH   1   7
ATOM      7  C   UNL     1      43.546   3.351  11.611  0.00  0.00    +0.000 C 
BRANCH   7   8
ATOM      8  N   UNL     1      44.073   2.336  10.717  0.00  0.00    +0.000 N 
ATOM      9  H   UNL     1      43.423   1.590  10.488  0.00  0.00    +0.000 HD
BRANCH   8  14
ATOM     10  C   UNL     1      46.291   2.089   7.940  0.00  0.00    +0.000 A 
ATOM     11  C   UNL     1      46.319   3.355   7.375  0.00  0.00    +0.000 A 
ATOM     12  C   UNL     1      45.508   4.325   7.940  0.00  0.00    +0.000 A 
ATOM     13  C   UNL     1      44.724   3.997   9.048  0.00  0.00    +0.000 A 
ATOM     14  C   UNL     1      44.752   2.702   9.566  0.00  0.00    +0.000 A 
ATOM     15  N   UNL     1      45.521   1.742   9.015  0.00  0.00    +0.000 NA
BRANCH  10  17
ATOM     16  N   UNL     1      46.736  -0.267   7.572  0.00  0.00    +0.000 N 
ATOM     17  C   UNL     1      47.155   1.015   7.352  0.00  0.00    +0.000 C 
ATOM     18  O   UNL     1      48.170   1.258   6.706  0.00  0.00    +0.000 OA
ATOM     19  H   UNL     1      47.277  -1.037   7.207  0.00  0.00    +0.000 HD
ATOM     20  H   UNL     1      45.895  -0.434   8.112  0.00  0.00    +0.000 HD
ENDBRANCH  10  17
ENDBRANCH   8  14
ENDBRANCH   7   8
ENDBRANCH   1   7
BRANCH   4  21
ATOM     21  C   UNL     1      47.920   6.235  14.231  0.00  0.00    +0.000 C 
BRANCH  21  22
ATOM     22  N   UNL     1      48.732   6.960  13.285  0.00  0.00    +0.000 N 
ATOM     23  C   UNL     1      49.227   8.206  13.577  0.00  0.00    +0.000 C 
ATOM     24  O   UNL     1      49.042   8.740  14.668  0.00  0.00    +0.000 OA
ATOM     25  H   UNL     1      48.703   6.648  12.320  0.00  0.00    +0.000 HD
BRANCH  23  26
ATOM     26  C   UNL     1      50.045   8.850  12.540  0.00  0.00    +0.000 A 
ATOM     27  C   UNL     1      51.291   8.326  12.222  0.00  0.00    +0.000 A 
ATOM     28  S   UNL     1      52.084   9.156  10.961  0.00  0.00    +0.000 S 
ATOM     29  C   UNL     1      50.811  10.277  10.827  0.00  0.00    +0.000 A 
ATOM     30  N   UNL     1      50.867  11.294   9.925  0.00  0.00    +0.000 NA
ATOM     31  C   UNL     1      49.850  12.088   9.952  0.00  0.00    +0.000 A 
ATOM     32  N   UNL     1      48.779  11.956  10.797  0.00  0.00    +0.000 N 
ATOM     33  C   UNL     1      48.667  10.931  11.707  0.00  0.00    +0.000 A 
ATOM     34  O   UNL     1      47.678  10.822  12.423  0.00  0.00    +0.000 OA
ATOM     35  C   UNL     1      49.790  10.013  11.723  0.00  0.00    +0.000 A 
ATOM     36  H   UNL     1      48.011  12.609  10.764  0.00  0.00    +0.000 HD
ENDBRANCH  23  26
ENDBRANCH  21  22
ENDBRANCH   4  21
TORSDOF 7
ENDMDL
MODEL 8
REMARK VINA RESULT:    -7.680      2.099      3.175
REMARK INTER + INTRA:         -11.603
REMARK INTER:                 -10.791
REMARK INTRA:                  -0.812
REMARK UNBOUND:                -0.780
REMARK  Name = 
REMARK  7 active torsions:
REMARK  status: ('A' for Active; 'I' for Inactive)
REMARK    1  A    between atoms: C_2  and  C_4
REMARK    2  A    between atoms: C_8  and  N_9
REMARK    3  A    between atoms: N_9  and  C_10
REMARK    4  A    between atoms: C_10  and  C_11
REMARK    5  A    between atoms: C_14  and  C_15
REMARK    6  A    between atoms: C_15  and  N_16
REMARK    7  A    between atoms: C_17  and  C_19
REMARK                            x       y       z     vdW  Elec       q    Type
REMARK                         _______ _______ _______ _____ _____    ______ ____
ROOT
ATOM      1  C   UNL     1      45.400   5.585  11.870  0.00  0.00    +0.000 A 
ATOM      2  C   UNL     1      44.920   4.587  12.731  0.00  0.00    +0.000 A 
ATOM      3  C   UNL     1      45.643   4.213  13.871  0.00  0.00    +0.000 A 
ATOM      4  C   UNL     1      46.853   4.843  14.187  0.00  0.00    +0.000 A 
ATOM      5  C   UNL     1      47.336   5.836  13.326  0.00  0.00    +0.000 A 
ATOM      6  C   UNL     1      46.614   6.211  12.186  0.00  0.00    +0.000 A 
ENDROOT
BRANCH   1   7
ATOM      7  C   UNL     1      44.625   5.980  10.630  0.00  0.00    +0.000 C 
BRANCH   7   8
ATOM      8  N   UNL     1      45.393   5.668   9.437  0.00  0.00    +0.000 N 
ATOM      9  H   UNL     1      46.292   6.137   9.375  0.00  0.00    +0.000 HD
BRANCH   8  14
ATOM     10  C   UNL     1      46.436   2.901   7.450  0.00  0.00    +0.000 A 
ATOM     11  C   UNL     1      45.785   1.799   7.982  0.00  0.00    +0.000 A 
ATOM     12  C   UNL     1      44.990   2.001   9.097  0.00  0.00    +0.000 A 
ATOM     13  C   UNL     1      44.865   3.290   9.620  0.00  0.00    +0.000 A 
ATOM     14  C   UNL     1      45.547   4.354   9.028  0.00  0.00    +0.000 A 
ATOM     15  N   UNL     1      46.340   4.169   7.954  0.00  0.00    +0.000 NA
BRANCH  10  17
ATOM     16  N   UNL     1      48.520   2.132   6.475  0.00  0.00    +0.000 N 
ATOM     17  C   UNL     1      47.306   2.717   6.245  0.00  0.00    +0.000 C 
ATOM     18  O   UNL     1      46.960   3.058   5.118  0.00  0.00    +0.000 OA
ATOM     19  H   UNL     1      49.156   1.985   5.705  0.00  0.00    +0.000 HD
ATOM     20  H   UNL     1      48.777   1.865   7.418  0.00  0.00    +0.000 HD
ENDBRANCH  10  17
ENDBRANCH   8  14
ENDBRANCH   7   8
ENDBRANCH   1   7
BRANCH   4  21
ATOM     21  C   UNL     1      47.641   4.437  15.409  0.00  0.00    +0.000 C 
BRANCH  21  22
ATOM     22  N   UNL     1      47.597   5.459  16.425  0.00  0.00    +0.000 N 
ATOM     23  C   UNL     1      48.735   6.112  16.832  0.00  0.00    +0.000 C 
ATOM     24  O   UNL     1      49.829   5.889  16.320  0.00  0.00    +0.000 OA
ATOM     25  H   UNL     1      46.767   5.494  17.008  0.00  0.00    +0.000 HD
BRANCH  23  26
ATOM     26  C   UNL     1      48.571   7.137  17.871  0.00  0.00    +0.000 A 
ATOM     27  C   UNL     1      48.644   6.777  19.211  0.00  0.00    +0.000 A 
ATOM     28  S   UNL     1      48.490   8.093  20.285  0.00  0.00    +0.000 S 
ATOM     29  C   UNL     1      48.269   9.185  18.999  0.00  0.00    +0.000 A 
ATOM     30  N   UNL     1      48.058  10.508  19.234  0.00  0.00    +0.000 NA
ATOM     31  C   UNL     1      47.876  11.217  18.172  0.00  0.00    +0.000 A 
ATOM     32  N   UNL     1      47.889  10.723  16.892  0.00  0.00    +0.000 N 
ATOM     33  C   UNL     1      48.123   9.400  16.605  0.00  0.00    +0.000 A 
ATOM     34  O   UNL     1      48.164   8.998  15.448  0.00  0.00    +0.000 OA
ATOM     35  C   UNL     1      48.327   8.556  17.767  0.00  0.00    +0.000 A 
ATOM     36  H   UNL     1      47.743  11.333  16.102  0.00  0.00    +0.000 HD
ENDBRANCH  23  26
ENDBRANCH  21  22
ENDBRANCH   4  21
TORSDOF 7
ENDMDL
MODEL 9
REMARK VINA RESULT:    -7.353      5.178      6.620
REMARK INTER + INTRA:         -11.142
REMARK INTER:                 -10.353
REMARK INTRA:                  -0.790
REMARK UNBOUND:                -0.780
REMARK  Name = 
REMARK  7 active torsions:
REMARK  status: ('A' for Active; 'I' for Inactive)
REMARK    1  A    between atoms: C_2  and  C_4
REMARK    2  A    between atoms: C_8  and  N_9
REMARK    3  A    between atoms: N_9  and  C_10
REMARK    4  A    between atoms: C_10  and  C_11
REMARK    5  A    between atoms: C_14  and  C_15
REMARK    6  A    between atoms: C_15  and  N_16
REMARK    7  A    between atoms: C_17  and  C_19
REMARK                            x       y       z     vdW  Elec       q    Type
REMARK                         _______ _______ _______ _____ _____    ______ ____
ROOT
ATOM      1  C   UNL     1      45.075   7.583  11.903  0.00  0.00    +0.000 A 
ATOM      2  C   UNL     1      46.310   7.583  12.568  0.00  0.00    +0.000 A 
ATOM      3  C   UNL     1      46.734   6.463  13.296  0.00  0.00    +0.000 A 
ATOM      4  C   UNL     1      45.941   5.310  13.357  0.00  0.00    +0.000 A 
ATOM      5  C   UNL     1      44.706   5.310  12.697  0.00  0.00    +0.000 A 
ATOM      6  C   UNL     1      44.282   6.429  11.970  0.00  0.00    +0.000 A 
ENDROOT
BRANCH   1   7
ATOM      7  C   UNL     1      44.611   8.799  11.128  0.00  0.00    +0.000 C 
BRANCH   7   8
ATOM      8  N   UNL     1      43.172   8.758  10.945  0.00  0.00    +0.000 N 
ATOM      9  H   UNL     1      42.654   8.350  11.718  0.00  0.00    +0.000 HD
BRANCH   8  14
ATOM     10  C   UNL     1      40.443  10.947  10.270  0.00  0.00    +0.000 A 
ATOM     11  C   UNL     1      40.970  11.965   9.490  0.00  0.00    +0.000 A 
ATOM     12  C   UNL     1      42.327  11.927   9.221  0.00  0.00    +0.000 A 
ATOM     13  C   UNL     1      43.092  10.872   9.723  0.00  0.00    +0.000 A 
ATOM     14  C   UNL     1      42.491   9.879  10.496  0.00  0.00    +0.000 A 
ATOM     15  N   UNL     1      41.175   9.913  10.783  0.00  0.00    +0.000 NA
BRANCH  10  17
ATOM     16  N   UNL     1      38.360   9.739  10.569  0.00  0.00    +0.000 N 
ATOM     17  C   UNL     1      38.977  10.959  10.582  0.00  0.00    +0.000 C 
ATOM     18  O   UNL     1      38.362  11.989  10.841  0.00  0.00    +0.000 OA
ATOM     19  H   UNL     1      37.371   9.680  10.766  0.00  0.00    +0.000 HD
ATOM     20  H   UNL     1      38.896   8.908  10.348  0.00  0.00    +0.000 HD
ENDBRANCH  10  17
ENDBRANCH   8  14
ENDBRANCH   7   8
ENDBRANCH   1   7
BRANCH   4  21
ATOM     21  C   UNL     1      46.388   4.104  14.146  0.00  0.00    +0.000 C 
BRANCH  21  22
ATOM     22  N   UNL     1      47.479   4.430  15.031  0.00  0.00    +0.000 N 
ATOM     23  C   UNL     1      47.480   4.027  16.343  0.00  0.00    +0.000 C 
ATOM     24  O   UNL     1      46.579   3.334  16.811  0.00  0.00    +0.000 OA
ATOM     25  H   UNL     1      48.102   5.175  14.738  0.00  0.00    +0.000 HD
BRANCH  23  26
ATOM     26  C   UNL     1      48.645   4.413  17.151  0.00  0.00    +0.000 A 
ATOM     27  C   UNL     1      48.678   5.662  17.758  0.00  0.00    +0.000 A 
ATOM     28  S   UNL     1      50.073   5.929  18.703  0.00  0.00    +0.000 S 
ATOM     29  C   UNL     1      50.706   4.404  18.295  0.00  0.00    +0.000 A 
ATOM     30  N   UNL     1      51.917   4.001  18.767  0.00  0.00    +0.000 NA
ATOM     31  C   UNL     1      52.290   2.837  18.354  0.00  0.00    +0.000 A 
ATOM     32  N   UNL     1      51.561   2.036  17.513  0.00  0.00    +0.000 N 
ATOM     33  C   UNL     1      50.323   2.389  17.032  0.00  0.00    +0.000 A 
ATOM     34  O   UNL     1      49.682   1.634  16.311  0.00  0.00    +0.000 OA
ATOM     35  C   UNL     1      49.859   3.695  17.461  0.00  0.00    +0.000 A 
ATOM     36  H   UNL     1      51.908   1.132  17.231  0.00  0.00    +0.000 HD
ENDBRANCH  23  26
ENDBRANCH  21  22
ENDBRANCH   4  21
TORSDOF 7
ENDMDL
