MODEL 1
REMARK VINA RESULT:    -7.994      0.000      0.000
REMARK INTER + INTRA:         -11.722
REMARK INTER:                 -10.565
REMARK INTRA:                  -1.157
REMARK UNBOUND:                -1.157
REMARK  Name = 
REMARK  6 active torsions:
REMARK  status: ('A' for Active; 'I' for Inactive)
REMARK    1  A    between atoms: N_1  and  S_2
REMARK    2  A    between atoms: S_2  and  C_5
REMARK    3  A    between atoms: C_8  and  O_9
REMARK    4  A    between atoms: O_9  and  C_10
REMARK    5  A    between atoms: C_10  and  C_11
REMARK    6  A    between atoms: C_15  and  C_16
REMARK                            x       y       z     vdW  Elec       q    Type
REMARK                         _______ _______ _______ _____ _____    ______ ____
ROOT
ATOM      1  O   UNL     1      43.551   4.504  10.283  0.00  0.00    +0.000 OA
ENDROOT
BRANCH   1   5
ATOM      2  C   UNL     1      46.257   2.553   7.795  0.00  0.00    +0.000 A 
ATOM      3  C   UNL     1      45.503   1.775   8.677  0.00  0.00    +0.000 A 
ATOM      4  C   UNL     1      44.589   2.397   9.533  0.00  0.00    +0.000 A 
ATOM      5  C   UNL     1      44.430   3.785   9.510  0.00  0.00    +0.000 A 
ATOM      6  C   UNL     1      45.207   4.553   8.640  0.00  0.00    +0.000 A 
ATOM      7  C   UNL     1      46.122   3.943   7.781  0.00  0.00    +0.000 A 
BRANCH   2   8
ATOM      8  S   UNL     1      47.355   1.767   6.656  0.00  0.00    +0.000 S 
ATOM      9  O   UNL     1      47.015   0.361   6.576  0.00  0.00    +0.000 OA
ATOM     10  O   UNL     1      48.698   2.232   6.882  0.00  0.00    +0.000 OA
BRANCH   8  11
ATOM     11  N   UNL     1      46.886   2.454   5.195  0.00  0.00    +0.000 NA
ATOM     12  H   UNL     1      45.868   2.449   5.124  0.00  0.00    +0.000 HD
ATOM     13  H   UNL     1      47.356   1.978   4.423  0.00  0.00    +0.000 HD
ENDBRANCH   8  11
ENDBRANCH   2   8
ENDBRANCH   1   5
BRANCH   1  14
ATOM     14  C   UNL     1      43.643   4.304  11.694  0.00  0.00    +0.000 C 
BRANCH  14  15
ATOM     15  C   UNL     1      44.942   4.815  12.279  0.00  0.00    +0.000 A 
ATOM     16  C   UNL     1      45.702   3.938  13.065  0.00  0.00    +0.000 A 
ATOM     17  C   UNL     1      46.911   4.351  13.613  0.00  0.00    +0.000 A 
ATOM     18  C   UNL     1      47.385   5.639  13.364  0.00  0.00    +0.000 A 
ATOM     19  C   UNL     1      46.679   6.538  12.544  0.00  0.00    +0.000 A 
ATOM     20  C   UNL     1      45.438   6.106  12.032  0.00  0.00    +0.000 A 
BRANCH  19  21
ATOM     21  C   UNL     1      47.257   7.851  12.165  0.00  0.00    +0.000 A 
ATOM     22  C   UNL     1      46.484   9.026  12.246  0.00  0.00    +0.000 A 
ATOM     23  C   UNL     1      47.026  10.284  11.974  0.00  0.00    +0.000 A 
ATOM     24  C   UNL     1      48.365  10.400  11.619  0.00  0.00    +0.000 A 
ATOM     25  C   UNL     1      49.151   9.257  11.516  0.00  0.00    +0.000 A 
ATOM     26  C   UNL     1      48.600   7.996  11.777  0.00  0.00    +0.000 A 
ENDBRANCH  19  21
ENDBRANCH  14  15
ENDBRANCH   1  14
TORSDOF 6
ENDMDL
MODEL 2
REMARK VINA RESULT:    -7.601      4.632      7.546
REMARK INTER + INTRA:         -11.202
REMARK INTER:                 -10.585
REMARK INTRA:                  -0.617
REMARK UNBOUND:                -1.157
REMARK  Name = 
REMARK  6 active torsions:
REMARK  status: ('A' for Active; 'I' for Inactive)
REMARK    1  A    between atoms: N_1  and  S_2
REMARK    2  A    between atoms: S_2  and  C_5
REMARK    3  A    between atoms: C_8  and  O_9
REMARK    4  A    between atoms: O_9  and  C_10
REMARK    5  A    between atoms: C_10  and  C_11
REMARK    6  A    between atoms: C_15  and  C_16
REMARK                            x       y       z     vdW  Elec       q    Type
REMARK                         _______ _______ _______ _____ _____    ______ ____
ROOT
ATOM      1  O   UNL     1      47.451   6.960  12.500  0.00  0.00    +0.000 OA
ENDROOT
BRANCH   1   5
ATOM      2  C   UNL     1      47.837   4.768  16.016  0.00  0.00    +0.000 A 
ATOM      3  C   UNL     1      47.024   4.245  15.007  0.00  0.00    +0.000 A 
ATOM      4  C   UNL     1      46.865   4.958  13.814  0.00  0.00    +0.000 A 
ATOM      5  C   UNL     1      47.511   6.183  13.631  0.00  0.00    +0.000 A 
ATOM      6  C   UNL     1      48.302   6.705  14.657  0.00  0.00    +0.000 A 
ATOM      7  C   UNL     1      48.468   6.003  15.851  0.00  0.00    +0.000 A 
BRANCH   2   8
ATOM      8  S   UNL     1      48.105   3.836  17.492  0.00  0.00    +0.000 S 
ATOM      9  O   UNL     1      48.183   4.750  18.612  0.00  0.00    +0.000 OA
ATOM     10  O   UNL     1      49.093   2.818  17.247  0.00  0.00    +0.000 OA
BRANCH   8  11
ATOM     11  N   UNL     1      46.648   3.012  17.650  0.00  0.00    +0.000 NA
ATOM     12  H   UNL     1      46.703   2.365  18.437  0.00  0.00    +0.000 HD
ATOM     13  H   UNL     1      46.407   2.563  16.765  0.00  0.00    +0.000 HD
ENDBRANCH   8  11
ENDBRANCH   2   8
ENDBRANCH   1   5
BRANCH   1  14
ATOM     14  C   UNL     1      46.158   7.444  12.135  0.00  0.00    +0.000 C 
BRANCH  14  15
ATOM     15  C   UNL     1      45.309   6.395  11.448  0.00  0.00    +0.000 A 
ATOM     16  C   UNL     1      43.927   6.409  11.681  0.00  0.00    +0.000 A 
ATOM     17  C   UNL     1      43.098   5.480  11.063  0.00  0.00    +0.000 A 
ATOM     18  C   UNL     1      43.640   4.537  10.188  0.00  0.00    +0.000 A 
ATOM     19  C   UNL     1      45.014   4.515   9.889  0.00  0.00    +0.000 A 
ATOM     20  C   UNL     1      45.837   5.445  10.558  0.00  0.00    +0.000 A 
BRANCH  19  21
ATOM     21  C   UNL     1      45.560   3.608   8.849  0.00  0.00    +0.000 A 
ATOM     22  C   UNL     1      46.186   4.128   7.699  0.00  0.00    +0.000 A 
ATOM     23  C   UNL     1      46.781   3.298   6.745  0.00  0.00    +0.000 A 
ATOM     24  C   UNL     1      46.770   1.920   6.923  0.00  0.00    +0.000 A 
ATOM     25  C   UNL     1      46.148   1.375   8.041  0.00  0.00    +0.000 A 
ATOM     26  C   UNL     1      45.542   2.209   8.988  0.00  0.00    +0.000 A 
ENDBRANCH  19  21
ENDBRANCH  14  15
ENDBRANCH   1  14
TORSDOF 6
ENDMDL
MODEL 3
REMARK VINA RESULT:    -7.588      3.977      6.932
REMARK INTER + INTRA:         -11.185
REMARK INTER:                 -10.120
REMARK INTRA:                  -1.064
REMARK UNBOUND:                -1.157
REMARK  Name = 
REMARK  6 active torsions:
REMARK  status: ('A' for Active; 'I' for Inactive)
REMARK    1  A    between atoms: N_1  and  S_2
REMARK    2  A    between atoms: S_2  and  C_5
REMARK    3  A    between atoms: C_8  and  O_9
REMARK    4  A    between atoms: O_9  and  C_10
REMARK    5  A    between atoms: C_10  and  C_11
REMARK    6  A    between atoms: C_15  and  C_16
REMARK                            x       y       z     vdW  Elec       q    Type
REMARK                         _______ _______ _______ _____ _____    ______ ____
ROOT
ATOM      1  O   UNL     1      44.705   6.806  12.701  0.00  0.00    +0.000 OA
ENDROOT
BRANCH   1   5
ATOM      2  C   UNL     1      48.713   7.885  12.401  0.00  0.00    +0.000 A 
ATOM      3  C   UNL     1      48.417   6.589  12.830  0.00  0.00    +0.000 A 
ATOM      4  C   UNL     1      47.080   6.193  12.950  0.00  0.00    +0.000 A 
ATOM      5  C   UNL     1      46.049   7.085  12.645  0.00  0.00    +0.000 A 
ATOM      6  C   UNL     1      46.359   8.385  12.240  0.00  0.00    +0.000 A 
ATOM      7  C   UNL     1      47.689   8.791  12.116  0.00  0.00    +0.000 A 
BRANCH   2   8
ATOM      8  S   UNL     1      50.397   8.365  12.171  0.00  0.00    +0.000 S 
ATOM      9  O   UNL     1      50.485   9.808  12.256  0.00  0.00    +0.000 OA
ATOM     10  O   UNL     1      50.970   7.612  11.088  0.00  0.00    +0.000 OA
BRANCH   8  11
ATOM     11  N   UNL     1      51.121   7.761  13.563  0.00  0.00    +0.000 NA
ATOM     12  H   UNL     1      51.229   8.512  14.247  0.00  0.00    +0.000 HD
ATOM     13  H   UNL     1      51.997   7.294  13.323  0.00  0.00    +0.000 HD
ENDBRANCH   8  11
ENDBRANCH   2   8
ENDBRANCH   1   5
BRANCH   1  14
ATOM     14  C   UNL     1      44.064   6.541  11.453  0.00  0.00    +0.000 C 
BRANCH  14  15
ATOM     15  C   UNL     1      44.130   5.082  11.055  0.00  0.00    +0.000 A 
ATOM     16  C   UNL     1      43.316   4.172  11.745  0.00  0.00    +0.000 A 
ATOM     17  C   UNL     1      43.326   2.823  11.410  0.00  0.00    +0.000 A 
ATOM     18  C   UNL     1      44.134   2.370  10.366  0.00  0.00    +0.000 A 
ATOM     19  C   UNL     1      44.932   3.254   9.616  0.00  0.00    +0.000 A 
ATOM     20  C   UNL     1      44.931   4.610  10.002  0.00  0.00    +0.000 A 
BRANCH  19  21
ATOM     21  C   UNL     1      45.674   2.791   8.418  0.00  0.00    +0.000 A 
ATOM     22  C   UNL     1      45.945   3.676   7.354  0.00  0.00    +0.000 A 
ATOM     23  C   UNL     1      46.711   3.289   6.252  0.00  0.00    +0.000 A 
ATOM     24  C   UNL     1      47.235   2.004   6.189  0.00  0.00    +0.000 A 
ATOM     25  C   UNL     1      46.975   1.103   7.216  0.00  0.00    +0.000 A 
ATOM     26  C   UNL     1      46.195   1.490   8.313  0.00  0.00    +0.000 A 
ENDBRANCH  19  21
ENDBRANCH  14  15
ENDBRANCH   1  14
TORSDOF 6
ENDMDL
MODEL 4
REMARK VINA RESULT:    -6.870      4.338      7.534
REMARK INTER + INTRA:         -10.235
REMARK INTER:                  -9.355
REMARK INTRA:                  -0.880
REMARK UNBOUND:                -1.157
REMARK  Name = 
REMARK  6 active torsions:
REMARK  status: ('A' for Active; 'I' for Inactive)
REMARK    1  A    between atoms: N_1  and  S_2
REMARK    2  A    between atoms: S_2  and  C_5
REMARK    3  A    between atoms: C_8  and  O_9
REMARK    4  A    between atoms: O_9  and  C_10
REMARK    5  A    between atoms: C_10  and  C_11
REMARK    6  A    between atoms: C_15  and  C_16
REMARK                            x       y       z     vdW  Elec       q    Type
REMARK                         _______ _______ _______ _____ _____    ______ ____
ROOT
ATOM      1  O   UNL     1      46.823   5.910  12.809  0.00  0.00    +0.000 OA
ENDROOT
BRANCH   1   5
ATOM      2  C   UNL     1      46.330   9.968  12.034  0.00  0.00    +0.000 A 
ATOM      3  C   UNL     1      47.614   9.433  11.914  0.00  0.00    +0.000 A 
ATOM      4  C   UNL     1      47.819   8.074  12.174  0.00  0.00    +0.000 A 
ATOM      5  C   UNL     1      46.751   7.257  12.552  0.00  0.00    +0.000 A 
ATOM      6  C   UNL     1      45.476   7.810  12.691  0.00  0.00    +0.000 A 
ATOM      7  C   UNL     1      45.259   9.165  12.434  0.00  0.00    +0.000 A 
BRANCH   2   8
ATOM      8  S   UNL     1      46.050  11.665  11.631  0.00  0.00    +0.000 S 
ATOM      9  O   UNL     1      44.675  11.997  11.945  0.00  0.00    +0.000 OA
ATOM     10  O   UNL     1      46.652  11.964  10.359  0.00  0.00    +0.000 OA
BRANCH   8  11
ATOM     11  N   UNL     1      47.002  12.453  12.770  0.00  0.00    +0.000 NA
ATOM     12  H   UNL     1      46.405  12.911  13.459  0.00  0.00    +0.000 HD
ATOM     13  H   UNL     1      47.650  13.087  12.300  0.00  0.00    +0.000 HD
ENDBRANCH   8  11
ENDBRANCH   2   8
ENDBRANCH   1   5
BRANCH   1  14
ATOM     14  C   UNL     1      45.627   5.294  13.290  0.00  0.00    +0.000 C 
BRANCH  14  15
ATOM     15  C   UNL     1      45.045   4.296  12.313  0.00  0.00    +0.000 A 
ATOM     16  C   UNL     1      43.805   3.719  12.620  0.00  0.00    +0.000 A 
ATOM     17  C   UNL     1      43.217   2.808  11.749  0.00  0.00    +0.000 A 
ATOM     18  C   UNL     1      43.852   2.479  10.551  0.00  0.00    +0.000 A 
ATOM     19  C   UNL     1      45.074   3.069  10.180  0.00  0.00    +0.000 A 
ATOM     20  C   UNL     1      45.667   3.960  11.098  0.00  0.00    +0.000 A 
BRANCH  19  21
ATOM     21  C   UNL     1      45.670   2.827   8.843  0.00  0.00    +0.000 A 
ATOM     22  C   UNL     1      45.913   3.899   7.960  0.00  0.00    +0.000 A 
ATOM     23  C   UNL     1      46.547   3.710   6.730  0.00  0.00    +0.000 A 
ATOM     24  C   UNL     1      46.963   2.439   6.353  0.00  0.00    +0.000 A 
ATOM     25  C   UNL     1      46.726   1.358   7.195  0.00  0.00    +0.000 A 
ATOM     26  C   UNL     1      46.078   1.550   8.422  0.00  0.00    +0.000 A 
ENDBRANCH  19  21
ENDBRANCH  14  15
ENDBRANCH   1  14
TORSDOF 6
ENDMDL
MODEL 5
REMARK VINA RESULT:    -6.794      5.865      8.605
REMARK INTER + INTRA:         -10.135
REMARK INTER:                  -9.474
REMARK INTRA:                  -0.662
REMARK UNBOUND:                -1.157
REMARK  Name = 
REMARK  6 active torsions:
REMARK  status: ('A' for Active; 'I' for Inactive)
REMARK    1  A    between atoms: N_1  and  S_2
REMARK    2  A    between atoms: S_2  and  C_5
REMARK    3  A    between atoms: C_8  and  O_9
REMARK    4  A    between atoms: O_9  and  C_10
REMARK    5  A    between atoms: C_10  and  C_11
REMARK    6  A    between atoms: C_15  and  C_16
REMARK                            x       y       z     vdW  Elec       q    Type
REMARK                         _______ _______ _______ _____ _____    ______ ____
ROOT
ATOM      1  O   UNL     1      46.846   4.262  14.428  0.00  0.00    +0.000 OA
ENDROOT
BRANCH   1   5
ATOM      2  C   UNL     1      48.565   4.787  18.181  0.00  0.00    +0.000 A 
ATOM      3  C   UNL     1      47.774   3.653  17.978  0.00  0.00    +0.000 A 
ATOM      4  C   UNL     1      47.174   3.447  16.731  0.00  0.00    +0.000 A 
ATOM      5  C   UNL     1      47.361   4.367  15.697  0.00  0.00    +0.000 A 
ATOM      6  C   UNL     1      48.135   5.508  15.920  0.00  0.00    +0.000 A 
ATOM      7  C   UNL     1      48.739   5.724  17.160  0.00  0.00    +0.000 A 
BRANCH   2   8
ATOM      8  S   UNL     1      49.389   5.012  19.727  0.00  0.00    +0.000 S 
ATOM      9  O   UNL     1      49.024   6.307  20.265  0.00  0.00    +0.000 OA
ATOM     10  O   UNL     1      50.754   4.572  19.614  0.00  0.00    +0.000 OA
BRANCH   8  11
ATOM     11  N   UNL     1      48.630   3.864  20.693  0.00  0.00    +0.000 NA
ATOM     12  H   UNL     1      48.391   3.046  20.131  0.00  0.00    +0.000 HD
ATOM     13  H   UNL     1      47.830   4.286  21.168  0.00  0.00    +0.000 HD
ENDBRANCH   8  11
ENDBRANCH   2   8
ENDBRANCH   1   5
BRANCH   1  14
ATOM     14  C   UNL     1      45.992   5.326  14.004  0.00  0.00    +0.000 C 
BRANCH  14  15
ATOM     15  C   UNL     1      45.104   4.939  12.840  0.00  0.00    +0.000 A 
ATOM     16  C   UNL     1      43.749   5.293  12.900  0.00  0.00    +0.000 A 
ATOM     17  C   UNL     1      42.891   4.977  11.852  0.00  0.00    +0.000 A 
ATOM     18  C   UNL     1      43.383   4.322  10.722  0.00  0.00    +0.000 A 
ATOM     19  C   UNL     1      44.745   3.989  10.599  0.00  0.00    +0.000 A 
ATOM     20  C   UNL     1      45.585   4.287  11.693  0.00  0.00    +0.000 A 
BRANCH  19  21
ATOM     21  C   UNL     1      45.288   3.426   9.339  0.00  0.00    +0.000 A 
ATOM     22  C   UNL     1      45.735   4.275   8.306  0.00  0.00    +0.000 A 
ATOM     23  C   UNL     1      46.325   3.773   7.144  0.00  0.00    +0.000 A 
ATOM     24  C   UNL     1      46.492   2.402   6.988  0.00  0.00    +0.000 A 
ATOM     25  C   UNL     1      46.049   1.537   7.982  0.00  0.00    +0.000 A 
ATOM     26  C   UNL     1      45.445   2.043   9.140  0.00  0.00    +0.000 A 
ENDBRANCH  19  21
ENDBRANCH  14  15
ENDBRANCH   1  14
TORSDOF 6
ENDMDL
MODEL 6
REMARK VINA RESULT:    -6.688      4.867      7.235
REMARK INTER + INTRA:          -9.996
REMARK INTER:                  -9.106
REMARK INTRA:                  -0.889
REMARK UNBOUND:                -1.157
REMARK  Name = 
REMARK  6 active torsions:
REMARK  status: ('A' for Active; 'I' for Inactive)
REMARK    1  A    between atoms: N_1  and  S_2
REMARK    2  A    between atoms: S_2  and  C_5
REMARK    3  A    between atoms: C_8  and  O_9
REMARK    4  A    between atoms: O_9  and  C_10
REMARK    5  A    between atoms: C_10  and  C_11
REMARK    6  A    between atoms: C_15  and  C_16
REMARK                            x       y       z     vdW  Elec       q    Type
REMARK                         _______ _______ _______ _____ _____    ______ ____
ROOT
ATOM      1  O   UNL     1      48.280   5.797  14.051  0.00  0.00    +0.000 OA
ENDROOT
BRANCH   1   5
ATOM      2  C   UNL     1      44.799   4.803  11.997  0.00  0.00    +0.000 A 
ATOM      3  C   UNL     1      45.514   3.770  12.609  0.00  0.00    +0.000 A 
ATOM      4  C   UNL     1      46.692   4.065  13.302  0.00  0.00    +0.000 A 
ATOM      5  C   UNL     1      47.154   5.381  13.382  0.00  0.00    +0.000 A 
ATOM      6  C   UNL     1      46.442   6.401  12.747  0.00  0.00    +0.000 A 
ATOM      7  C   UNL     1      45.265   6.119  12.053  0.00  0.00    +0.000 A 
BRANCH   2   8
ATOM      8  S   UNL     1      43.270   4.448  11.189  0.00  0.00    +0.000 S 
ATOM      9  O   UNL     1      42.294   5.444  11.581  0.00  0.00    +0.000 OA
ATOM     10  O   UNL     1      43.008   3.035  11.252  0.00  0.00    +0.000 OA
BRANCH   8  11
ATOM     11  N   UNL     1      43.648   4.759   9.581  0.00  0.00    +0.000 NA
ATOM     12  H   UNL     1      42.966   5.408   9.187  0.00  0.00    +0.000 HD
ATOM     13  H   UNL     1      43.725   3.880   9.067  0.00  0.00    +0.000 HD
ENDBRANCH   8  11
ENDBRANCH   2   8
ENDBRANCH   1   5
BRANCH   1  14
ATOM     14  C   UNL     1      48.103   6.149  15.424  0.00  0.00    +0.000 C 
BRANCH  14  15
ATOM     15  C   UNL     1      48.315   4.980  16.363  0.00  0.00    +0.000 A 
ATOM     16  C   UNL     1      47.183   4.330  16.872  0.00  0.00    +0.000 A 
ATOM     17  C   UNL     1      47.320   3.241  17.726  0.00  0.00    +0.000 A 
ATOM     18  C   UNL     1      48.592   2.777  18.065  0.00  0.00    +0.000 A 
ATOM     19  C   UNL     1      49.755   3.371  17.542  0.00  0.00    +0.000 A 
ATOM     20  C   UNL     1      49.588   4.496  16.708  0.00  0.00    +0.000 A 
BRANCH  19  21
ATOM     21  C   UNL     1      51.095   2.784  17.788  0.00  0.00    +0.000 A 
ATOM     22  C   UNL     1      51.380   1.457  17.409  0.00  0.00    +0.000 A 
ATOM     23  C   UNL     1      52.655   0.907  17.555  0.00  0.00    +0.000 A 
ATOM     24  C   UNL     1      53.686   1.676  18.080  0.00  0.00    +0.000 A 
ATOM     25  C   UNL     1      53.434   2.985  18.477  0.00  0.00    +0.000 A 
ATOM     26  C   UNL     1      52.151   3.529  18.342  0.00  0.00    +0.000 A 
ENDBRANCH  19  21
ENDBRANCH  14  15
ENDBRANCH   1  14
TORSDOF 6
ENDMDL
MODEL 7
REMARK VINA RESULT:    -6.680      4.429      7.493
REMARK INTER + INTRA:          -9.985
REMARK INTER:                  -9.215
REMARK INTRA:                  -0.771
REMARK UNBOUND:                -1.157
REMARK  Name = 
REMARK  6 active torsions:
REMARK  status: ('A' for Active; 'I' for Inactive)
REMARK    1  A    between atoms: N_1  and  S_2
REMARK    2  A    between atoms: S_2  and  C_5
REMARK    3  A    between atoms: C_8  and  O_9
REMARK    4  A    between atoms: O_9  and  C_10
REMARK    5  A    between atoms: C_10  and  C_11
REMARK    6  A    between atoms: C_15  and  C_16
REMARK                            x       y       z     vdW  Elec       q    Type
REMARK                         _______ _______ _______ _____ _____    ______ ____
ROOT
ATOM      1  O   UNL     1      45.584   7.121  11.540  0.00  0.00    +0.000 OA
ENDROOT
BRANCH   1   5
ATOM      2  C   UNL     1      48.838   7.559  14.097  0.00  0.00    +0.000 A 
ATOM      3  C   UNL     1      48.515   8.632  13.262  0.00  0.00    +0.000 A 
ATOM      4  C   UNL     1      47.432   8.518  12.384  0.00  0.00    +0.000 A 
ATOM      5  C   UNL     1      46.680   7.342  12.340  0.00  0.00    +0.000 A 
ATOM      6  C   UNL     1      47.027   6.269  13.163  0.00  0.00    +0.000 A 
ATOM      7  C   UNL     1      48.106   6.371  14.043  0.00  0.00    +0.000 A 
BRANCH   2   8
ATOM      8  S   UNL     1      50.154   7.726  15.263  0.00  0.00    +0.000 S 
ATOM      9  O   UNL     1      50.471   6.417  15.798  0.00  0.00    +0.000 OA
ATOM     10  O   UNL     1      49.916   8.872  16.099  0.00  0.00    +0.000 OA
BRANCH   8  11
ATOM     11  N   UNL     1      51.441   8.158  14.272  0.00  0.00    +0.000 NA
ATOM     12  H   UNL     1      51.094   8.398  13.342  0.00  0.00    +0.000 HD
ATOM     13  H   UNL     1      52.142   7.416  14.270  0.00  0.00    +0.000 HD
ENDBRANCH   8  11
ENDBRANCH   2   8
ENDBRANCH   1   5
BRANCH   1  14
ATOM     14  C   UNL     1      44.533   6.341  12.113  0.00  0.00    +0.000 C 
BRANCH  14  15
ATOM     15  C   UNL     1      44.433   4.956  11.510  0.00  0.00    +0.000 A 
ATOM     16  C   UNL     1      43.487   4.071  12.046  0.00  0.00    +0.000 A 
ATOM     17  C   UNL     1      43.342   2.792  11.520  0.00  0.00    +0.000 A 
ATOM     18  C   UNL     1      44.126   2.390  10.439  0.00  0.00    +0.000 A 
ATOM     19  C   UNL     1      45.055   3.261   9.839  0.00  0.00    +0.000 A 
ATOM     20  C   UNL     1      45.209   4.538  10.416  0.00  0.00    +0.000 A 
BRANCH  19  21
ATOM     21  C   UNL     1      45.779   2.879   8.602  0.00  0.00    +0.000 A 
ATOM     22  C   UNL     1      46.184   1.546   8.388  0.00  0.00    +0.000 A 
ATOM     23  C   UNL     1      46.795   1.144   7.198  0.00  0.00    +0.000 A 
ATOM     24  C   UNL     1      47.010   2.068   6.183  0.00  0.00    +0.000 A 
ATOM     25  C   UNL     1      46.634   3.395   6.368  0.00  0.00    +0.000 A 
ATOM     26  C   UNL     1      46.035   3.797   7.568  0.00  0.00    +0.000 A 
ENDBRANCH  19  21
ENDBRANCH  14  15
ENDBRANCH   1  14
TORSDOF 6
ENDMDL
MODEL 8
REMARK VINA RESULT:    -6.555      6.130      8.863
REMARK INTER + INTRA:          -9.820
REMARK INTER:                  -8.997
REMARK INTRA:                  -0.824
REMARK UNBOUND:                -1.157
REMARK  Name = 
REMARK  6 active torsions:
REMARK  status: ('A' for Active; 'I' for Inactive)
REMARK    1  A    between atoms: N_1  and  S_2
REMARK    2  A    between atoms: S_2  and  C_5
REMARK    3  A    between atoms: C_8  and  O_9
REMARK    4  A    between atoms: O_9  and  C_10
REMARK    5  A    between atoms: C_10  and  C_11
REMARK    6  A    between atoms: C_15  and  C_16
REMARK                            x       y       z     vdW  Elec       q    Type
REMARK                         _______ _______ _______ _____ _____    ______ ____
ROOT
ATOM      1  O   UNL     1      48.466   5.783  14.563  0.00  0.00    +0.000 OA
ENDROOT
BRANCH   1   5
ATOM      2  C   UNL     1      48.344   5.522  18.715  0.00  0.00    +0.000 A 
ATOM      3  C   UNL     1      47.865   4.435  17.978  0.00  0.00    +0.000 A 
ATOM      4  C   UNL     1      47.884   4.490  16.581  0.00  0.00    +0.000 A 
ATOM      5  C   UNL     1      48.375   5.622  15.925  0.00  0.00    +0.000 A 
ATOM      6  C   UNL     1      48.829   6.710  16.673  0.00  0.00    +0.000 A 
ATOM      7  C   UNL     1      48.815   6.666  18.068  0.00  0.00    +0.000 A 
BRANCH   2   8
ATOM      8  S   UNL     1      48.396   5.426  20.477  0.00  0.00    +0.000 S 
ATOM      9  O   UNL     1      47.160   5.961  21.010  0.00  0.00    +0.000 OA
ATOM     10  O   UNL     1      49.691   5.846  20.945  0.00  0.00    +0.000 OA
BRANCH   8  11
ATOM     11  N   UNL     1      48.347   3.766  20.735  0.00  0.00    +0.000 NA
ATOM     12  H   UNL     1      49.175   3.330  20.326  0.00  0.00    +0.000 HD
ATOM     13  H   UNL     1      47.466   3.387  20.385  0.00  0.00    +0.000 HD
ENDBRANCH   8  11
ENDBRANCH   2   8
ENDBRANCH   1   5
BRANCH   1  14
ATOM     14  C   UNL     1      48.205   7.095  14.065  0.00  0.00    +0.000 C 
BRANCH  14  15
ATOM     15  C   UNL     1      47.016   7.144  13.128  0.00  0.00    +0.000 A 
ATOM     16  C   UNL     1      46.310   8.350  13.021  0.00  0.00    +0.000 A 
ATOM     17  C   UNL     1      45.221   8.455  12.164  0.00  0.00    +0.000 A 
ATOM     18  C   UNL     1      44.837   7.360  11.388  0.00  0.00    +0.000 A 
ATOM     19  C   UNL     1      45.544   6.145  11.429  0.00  0.00    +0.000 A 
ATOM     20  C   UNL     1      46.622   6.054  12.334  0.00  0.00    +0.000 A 
BRANCH  19  21
ATOM     21  C   UNL     1      45.222   5.036  10.498  0.00  0.00    +0.000 A 
ATOM     22  C   UNL     1      45.672   5.065   9.162  0.00  0.00    +0.000 A 
ATOM     23  C   UNL     1      45.453   3.999   8.288  0.00  0.00    +0.000 A 
ATOM     24  C   UNL     1      44.782   2.865   8.731  0.00  0.00    +0.000 A 
ATOM     25  C   UNL     1      44.313   2.811  10.039  0.00  0.00    +0.000 A 
ATOM     26  C   UNL     1      44.523   3.888  10.909  0.00  0.00    +0.000 A 
ENDBRANCH  19  21
ENDBRANCH  14  15
ENDBRANCH   1  14
TORSDOF 6
ENDMDL
MODEL 9
REMARK VINA RESULT:    -6.192      5.255      6.716
REMARK INTER + INTRA:          -9.340
REMARK INTER:                  -8.653
REMARK INTRA:                  -0.686
REMARK UNBOUND:                -1.157
REMARK  Name = 
REMARK  6 active torsions:
REMARK  status: ('A' for Active; 'I' for Inactive)
REMARK    1  A    between atoms: N_1  and  S_2
REMARK    2  A    between atoms: S_2  and  C_5
REMARK    3  A    between atoms: C_8  and  O_9
REMARK    4  A    between atoms: O_9  and  C_10
REMARK    5  A    between atoms: C_10  and  C_11
REMARK    6  A    between atoms: C_15  and  C_16
REMARK                            x       y       z     vdW  Elec       q    Type
REMARK                         _______ _______ _______ _____ _____    ______ ____
ROOT
ATOM      1  O   UNL     1      47.726   5.060  14.839  0.00  0.00    +0.000 OA
ENDROOT
BRANCH   1   5
ATOM      2  C   UNL     1      45.375   4.565  11.441  0.00  0.00    +0.000 A 
ATOM      3  C   UNL     1      45.888   5.839  11.700  0.00  0.00    +0.000 A 
ATOM      4  C   UNL     1      46.676   6.044  12.837  0.00  0.00    +0.000 A 
ATOM      5  C   UNL     1      46.949   4.987  13.709  0.00  0.00    +0.000 A 
ATOM      6  C   UNL     1      46.411   3.724  13.451  0.00  0.00    +0.000 A 
ATOM      7  C   UNL     1      45.623   3.507  12.319  0.00  0.00    +0.000 A 
BRANCH   2   8
ATOM      8  S   UNL     1      44.446   4.281   9.967  0.00  0.00    +0.000 S 
ATOM      9  O   UNL     1      43.215   5.041  10.038  0.00  0.00    +0.000 OA
ATOM     10  O   UNL     1      44.479   2.880   9.638  0.00  0.00    +0.000 OA
BRANCH   8  11
ATOM     11  N   UNL     1      45.402   5.032   8.806  0.00  0.00    +0.000 NA
ATOM     12  H   UNL     1      44.999   4.882   7.880  0.00  0.00    +0.000 HD
ATOM     13  H   UNL     1      46.367   4.710   8.891  0.00  0.00    +0.000 HD
ENDBRANCH   8  11
ENDBRANCH   2   8
ENDBRANCH   1   5
BRANCH   1  14
ATOM     14  C   UNL     1      47.338   4.219  15.927  0.00  0.00    +0.000 C 
BRANCH  14  15
ATOM     15  C   UNL     1      48.003   4.600  17.232  0.00  0.00    +0.000 A 
ATOM     16  C   UNL     1      49.195   3.949  17.580  0.00  0.00    +0.000 A 
ATOM     17  C   UNL     1      49.856   4.272  18.760  0.00  0.00    +0.000 A 
ATOM     18  C   UNL     1      49.343   5.264  19.596  0.00  0.00    +0.000 A 
ATOM     19  C   UNL     1      48.175   5.976  19.265  0.00  0.00    +0.000 A 
ATOM     20  C   UNL     1      47.505   5.602  18.082  0.00  0.00    +0.000 A 
BRANCH  19  21
ATOM     21  C   UNL     1      47.718   7.126  20.082  0.00  0.00    +0.000 A 
ATOM     22  C   UNL     1      47.692   7.043  21.489  0.00  0.00    +0.000 A 
ATOM     23  C   UNL     1      47.343   8.137  22.285  0.00  0.00    +0.000 A 
ATOM     24  C   UNL     1      47.017   9.350  21.691  0.00  0.00    +0.000 A 
ATOM     25  C   UNL     1      47.019   9.460  20.304  0.00  0.00    +0.000 A 
ATOM     26  C   UNL     1      47.356   8.358  19.510  0.00  0.00    +0.000 A 
ENDBRANCH  19  21
ENDBRANCH  14  15
ENDBRANCH   1  14
TORSDOF 6
ENDMDL
