MODEL 1
REMARK VINA RESULT:    -7.013      0.000      0.000
REMARK INTER + INTRA:          -9.276
REMARK INTER:                  -8.858
REMARK INTRA:                  -0.419
REMARK UNBOUND:                -0.419
REMARK  Name = 
REMARK  5 active torsions:
REMARK  status: ('A' for Active; 'I' for Inactive)
REMARK    1  A    between atoms: N_1  and  C_2
REMARK    2  A    between atoms: C_2  and  C_3
REMARK    3  A    between atoms: N_8  and  C_9
REMARK    4  A    between atoms: C_9  and  C_10
REMARK    5  A    between atoms: C_10  and  C_11
REMARK                            x       y       z     vdW  Elec       q    Type
REMARK                         _______ _______ _______ _____ _____    ______ ____
ROOT
ATOM      1  C   UNL     1      45.262   6.335  12.034  0.00  0.00    +0.000 A 
ATOM      2  C   UNL     1      45.834   6.179  13.291  0.00  0.00    +0.000 A 
ATOM      3  C   UNL     1      46.065   4.890  13.743  0.00  0.00    +0.000 A 
ATOM      4  N   UNL     1      45.769   3.770  13.042  0.00  0.00    +0.000 NA
ATOM      5  C   UNL     1      45.232   3.919  11.818  0.00  0.00    +0.000 A 
ATOM      6  N   UNL     1      44.972   2.757  11.124  0.00  0.00    +0.000 N 
ATOM      7  C   UNL     1      44.984   5.181  11.291  0.00  0.00    +0.000 A 
ATOM      8  H   UNL     1      45.089   1.917  11.675  0.00  0.00    +0.000 HD
ENDROOT
BRANCH   1   9
ATOM      9  C   UNL     1      44.934   7.684  11.459  0.00  0.00    +0.000 C 
BRANCH   9  10
ATOM     10  N   UNL     1      43.522   7.766  11.101  0.00  0.00    +0.000 NA
ATOM     11  H   UNL     1      43.009   7.022  11.567  0.00  0.00    +0.000 HD
ATOM     12  H   UNL     1      43.425   7.605  10.098  0.00  0.00    +0.000 HD
ENDBRANCH   9  10
ENDBRANCH   1   9
BRANCH   6  13
ATOM     13  C   UNL     1      44.304   2.762   9.841  0.00  0.00    +0.000 C 
BRANCH  13  14
ATOM     14  C   UNL     1      44.702   1.564   8.979  0.00  0.00    +0.000 C 
BRANCH  14  15
ATOM     15  C   UNL     1      45.870   1.918   8.106  0.00  0.00    +0.000 A 
ATOM     16  C   UNL     1      46.805   0.981   7.707  0.00  0.00    +0.000 A 
ATOM     17  N   UNL     1      47.896   1.275   6.975  0.00  0.00    +0.000 NA
ATOM     18  C   UNL     1      48.044   2.567   6.644  0.00  0.00    +0.000 A 
ATOM     19  N   UNL     1      47.214   3.567   6.980  0.00  0.00    +0.000 NA
ATOM     20  C   UNL     1      46.140   3.214   7.713  0.00  0.00    +0.000 A 
ENDBRANCH  14  15
ENDBRANCH  13  14
ENDBRANCH   6  13
TORSDOF 5
ENDMDL
MODEL 2
REMARK VINA RESULT:    -6.646      1.561      2.957
REMARK INTER + INTRA:          -8.813
REMARK INTER:                  -8.455
REMARK INTRA:                  -0.358
REMARK UNBOUND:                -0.419
REMARK  Name = 
REMARK  5 active torsions:
REMARK  status: ('A' for Active; 'I' for Inactive)
REMARK    1  A    between atoms: N_1  and  C_2
REMARK    2  A    between atoms: C_2  and  C_3
REMARK    3  A    between atoms: N_8  and  C_9
REMARK    4  A    between atoms: C_9  and  C_10
REMARK    5  A    between atoms: C_10  and  C_11
REMARK                            x       y       z     vdW  Elec       q    Type
REMARK                         _______ _______ _______ _____ _____    ______ ____
ROOT
ATOM      1  C   UNL     1      46.679   5.439  13.562  0.00  0.00    +0.000 A 
ATOM      2  C   UNL     1      47.120   6.755  13.650  0.00  0.00    +0.000 A 
ATOM      3  C   UNL     1      46.844   7.603  12.589  0.00  0.00    +0.000 A 
ATOM      4  N   UNL     1      46.175   7.236  11.472  0.00  0.00    +0.000 NA
ATOM      5  C   UNL     1      45.732   5.969  11.392  0.00  0.00    +0.000 A 
ATOM      6  N   UNL     1      45.030   5.641  10.253  0.00  0.00    +0.000 N 
ATOM      7  C   UNL     1      45.958   5.063  12.422  0.00  0.00    +0.000 A 
ATOM      8  H   UNL     1      45.048   6.360   9.541  0.00  0.00    +0.000 HD
ENDROOT
BRANCH   1   9
ATOM      9  C   UNL     1      46.953   4.424  14.635  0.00  0.00    +0.000 C 
BRANCH   9  10
ATOM     10  N   UNL     1      47.286   3.129  14.051  0.00  0.00    +0.000 NA
ATOM     11  H   UNL     1      47.264   2.413  14.774  0.00  0.00    +0.000 HD
ATOM     12  H   UNL     1      48.242   3.161  13.698  0.00  0.00    +0.000 HD
ENDBRANCH   9  10
ENDBRANCH   1   9
BRANCH   6  13
ATOM     13  C   UNL     1      44.581   4.292   9.987  0.00  0.00    +0.000 C 
BRANCH  13  14
ATOM     14  C   UNL     1      44.493   3.997   8.490  0.00  0.00    +0.000 C 
BRANCH  14  15
ATOM     15  C   UNL     1      45.592   3.061   8.080  0.00  0.00    +0.000 A 
ATOM     16  C   UNL     1      46.621   3.452   7.243  0.00  0.00    +0.000 A 
ATOM     17  N   UNL     1      47.588   2.624   6.807  0.00  0.00    +0.000 NA
ATOM     18  C   UNL     1      47.503   1.354   7.231  0.00  0.00    +0.000 A 
ATOM     19  N   UNL     1      46.550   0.854   8.033  0.00  0.00    +0.000 NA
ATOM     20  C   UNL     1      45.608   1.728   8.438  0.00  0.00    +0.000 A 
ENDBRANCH  14  15
ENDBRANCH  13  14
ENDBRANCH   6  13
TORSDOF 5
ENDMDL
MODEL 3
REMARK VINA RESULT:    -6.363      1.639      6.062
REMARK INTER + INTRA:          -8.456
REMARK INTER:                  -7.948
REMARK INTRA:                  -0.508
REMARK UNBOUND:                -0.419
REMARK  Name = 
REMARK  5 active torsions:
REMARK  status: ('A' for Active; 'I' for Inactive)
REMARK    1  A    between atoms: N_1  and  C_2
REMARK    2  A    between atoms: C_2  and  C_3
REMARK    3  A    between atoms: N_8  and  C_9
REMARK    4  A    between atoms: C_9  and  C_10
REMARK    5  A    between atoms: C_10  and  C_11
REMARK                            x       y       z     vdW  Elec       q    Type
REMARK                         _______ _______ _______ _____ _____    ______ ____
ROOT
ATOM      1  C   UNL     1      46.075   1.907   8.050  0.00  0.00    +0.000 A 
ATOM      2  C   UNL     1      47.004   2.449   7.167  0.00  0.00    +0.000 A 
ATOM      3  C   UNL     1      47.085   3.829   7.080  0.00  0.00    +0.000 A 
ATOM      4  N   UNL     1      46.321   4.687   7.795  0.00  0.00    +0.000 NA
ATOM      5  C   UNL     1      45.435   4.165   8.662  0.00  0.00    +0.000 A 
ATOM      6  N   UNL     1      44.696   5.070   9.393  0.00  0.00    +0.000 N 
ATOM      7  C   UNL     1      45.304   2.790   8.815  0.00  0.00    +0.000 A 
ATOM      8  H   UNL     1      44.809   6.028   9.091  0.00  0.00    +0.000 HD
ENDROOT
BRANCH   1   9
ATOM      9  C   UNL     1      45.876   0.425   8.200  0.00  0.00    +0.000 C 
BRANCH   9  10
ATOM     10  N   UNL     1      47.003  -0.309   7.635  0.00  0.00    +0.000 NA
ATOM     11  H   UNL     1      46.746  -0.678   6.722  0.00  0.00    +0.000 HD
ATOM     12  H   UNL     1      47.205  -1.113   8.230  0.00  0.00    +0.000 HD
ENDBRANCH   9  10
ENDBRANCH   1   9
BRANCH   6  13
ATOM     13  C   UNL     1      43.638   4.653  10.288  0.00  0.00    +0.000 C 
BRANCH  13  14
ATOM     14  C   UNL     1      43.704   5.374  11.634  0.00  0.00    +0.000 C 
BRANCH  14  15
ATOM     15  C   UNL     1      44.908   4.921  12.407  0.00  0.00    +0.000 A 
ATOM     16  C   UNL     1      45.236   3.585  12.546  0.00  0.00    +0.000 A 
ATOM     17  N   UNL     1      46.273   3.141  13.281  0.00  0.00    +0.000 NA
ATOM     18  C   UNL     1      46.995   4.087  13.901  0.00  0.00    +0.000 A 
ATOM     19  N   UNL     1      46.769   5.409  13.852  0.00  0.00    +0.000 NA
ATOM     20  C   UNL     1      45.719   5.795  13.102  0.00  0.00    +0.000 A 
ENDBRANCH  14  15
ENDBRANCH  13  14
ENDBRANCH   6  13
TORSDOF 5
ENDMDL
MODEL 4
REMARK VINA RESULT:    -6.350      1.688      6.130
REMARK INTER + INTRA:          -8.439
REMARK INTER:                  -8.042
REMARK INTRA:                  -0.397
REMARK UNBOUND:                -0.419
REMARK  Name = 
REMARK  5 active torsions:
REMARK  status: ('A' for Active; 'I' for Inactive)
REMARK    1  A    between atoms: N_1  and  C_2
REMARK    2  A    between atoms: C_2  and  C_3
REMARK    3  A    between atoms: N_8  and  C_9
REMARK    4  A    between atoms: C_9  and  C_10
REMARK    5  A    between atoms: C_10  and  C_11
REMARK                            x       y       z     vdW  Elec       q    Type
REMARK                         _______ _______ _______ _____ _____    ______ ____
ROOT
ATOM      1  C   UNL     1      46.629   2.587   6.711  0.00  0.00    +0.000 A 
ATOM      2  C   UNL     1      46.929   1.246   6.928  0.00  0.00    +0.000 A 
ATOM      3  C   UNL     1      46.352   0.622   8.023  0.00  0.00    +0.000 A 
ATOM      4  N   UNL     1      45.515   1.230   8.896  0.00  0.00    +0.000 NA
ATOM      5  C   UNL     1      45.209   2.522   8.677  0.00  0.00    +0.000 A 
ATOM      6  N   UNL     1      44.332   3.097   9.570  0.00  0.00    +0.000 N 
ATOM      7  C   UNL     1      45.739   3.212   7.593  0.00  0.00    +0.000 A 
ATOM      8  H   UNL     1      44.125   2.516  10.372  0.00  0.00    +0.000 HD
ENDROOT
BRANCH   1   9
ATOM      9  C   UNL     1      47.225   3.373   5.578  0.00  0.00    +0.000 C 
BRANCH   9  10
ATOM     10  N   UNL     1      48.236   2.587   4.878  0.00  0.00    +0.000 NA
ATOM     11  H   UNL     1      49.131   2.684   5.351  0.00  0.00    +0.000 HD
ATOM     12  H   UNL     1      48.358   2.967   3.939  0.00  0.00    +0.000 HD
ENDBRANCH   9  10
ENDBRANCH   1   9
BRANCH   6  13
ATOM     13  C   UNL     1      43.992   4.503   9.516  0.00  0.00    +0.000 C 
BRANCH  13  14
ATOM     14  C   UNL     1      43.511   5.032  10.867  0.00  0.00    +0.000 C 
BRANCH  14  15
ATOM     15  C   UNL     1      44.656   5.105  11.834  0.00  0.00    +0.000 A 
ATOM     16  C   UNL     1      45.740   5.939  11.632  0.00  0.00    +0.000 A 
ATOM     17  N   UNL     1      46.811   5.986  12.446  0.00  0.00    +0.000 NA
ATOM     18  C   UNL     1      46.782   5.152  13.497  0.00  0.00    +0.000 A 
ATOM     19  N   UNL     1      45.795   4.291  13.791  0.00  0.00    +0.000 NA
ATOM     20  C   UNL     1      44.749   4.287  12.942  0.00  0.00    +0.000 A 
ENDBRANCH  14  15
ENDBRANCH  13  14
ENDBRANCH   6  13
TORSDOF 5
ENDMDL
MODEL 5
REMARK VINA RESULT:    -5.922      1.597      2.188
REMARK INTER + INTRA:          -7.899
REMARK INTER:                  -7.612
REMARK INTRA:                  -0.287
REMARK UNBOUND:                -0.419
REMARK  Name = 
REMARK  5 active torsions:
REMARK  status: ('A' for Active; 'I' for Inactive)
REMARK    1  A    between atoms: N_1  and  C_2
REMARK    2  A    between atoms: C_2  and  C_3
REMARK    3  A    between atoms: N_8  and  C_9
REMARK    4  A    between atoms: C_9  and  C_10
REMARK    5  A    between atoms: C_10  and  C_11
REMARK                            x       y       z     vdW  Elec       q    Type
REMARK                         _______ _______ _______ _____ _____    ______ ____
ROOT
ATOM      1  C   UNL     1      45.102   8.602  11.808  0.00  0.00    +0.000 A 
ATOM      2  C   UNL     1      46.133   8.776  12.725  0.00  0.00    +0.000 A 
ATOM      3  C   UNL     1      46.707   7.642  13.277  0.00  0.00    +0.000 A 
ATOM      4  N   UNL     1      46.332   6.375  12.984  0.00  0.00    +0.000 NA
ATOM      5  C   UNL     1      45.348   6.204  12.083  0.00  0.00    +0.000 A 
ATOM      6  N   UNL     1      45.014   4.900  11.789  0.00  0.00    +0.000 N 
ATOM      7  C   UNL     1      44.732   7.293  11.477  0.00  0.00    +0.000 A 
ATOM      8  H   UNL     1      45.457   4.219  12.391  0.00  0.00    +0.000 HD
ENDROOT
BRANCH   1   9
ATOM      9  C   UNL     1      44.383   9.759  11.175  0.00  0.00    +0.000 C 
BRANCH   9  10
ATOM     10  N   UNL     1      43.561  10.458  12.156  0.00  0.00    +0.000 NA
ATOM     11  H   UNL     1      44.062  11.273  12.502  0.00  0.00    +0.000 HD
ATOM     12  H   UNL     1      43.410   9.846  12.958  0.00  0.00    +0.000 HD
ENDBRANCH   9  10
ENDBRANCH   1   9
BRANCH   6  13
ATOM     13  C   UNL     1      43.909   4.568  10.916  0.00  0.00    +0.000 C 
BRANCH  13  14
ATOM     14  C   UNL     1      44.011   3.143  10.374  0.00  0.00    +0.000 C 
BRANCH  14  15
ATOM     15  C   UNL     1      44.959   3.097   9.212  0.00  0.00    +0.000 A 
ATOM     16  C   UNL     1      45.571   1.926   8.804  0.00  0.00    +0.000 A 
ATOM     17  N   UNL     1      46.472   1.859   7.806  0.00  0.00    +0.000 NA
ATOM     18  C   UNL     1      46.765   3.023   7.207  0.00  0.00    +0.000 A 
ATOM     19  N   UNL     1      46.247   4.221   7.519  0.00  0.00    +0.000 NA
ATOM     20  C   UNL     1      45.352   4.228   8.525  0.00  0.00    +0.000 A 
ENDBRANCH  14  15
ENDBRANCH  13  14
ENDBRANCH   6  13
TORSDOF 5
ENDMDL
MODEL 6
REMARK VINA RESULT:    -5.857      2.756      4.670
REMARK INTER + INTRA:          -7.817
REMARK INTER:                  -7.523
REMARK INTRA:                  -0.293
REMARK UNBOUND:                -0.419
REMARK  Name = 
REMARK  5 active torsions:
REMARK  status: ('A' for Active; 'I' for Inactive)
REMARK    1  A    between atoms: N_1  and  C_2
REMARK    2  A    between atoms: C_2  and  C_3
REMARK    3  A    between atoms: N_8  and  C_9
REMARK    4  A    between atoms: C_9  and  C_10
REMARK    5  A    between atoms: C_10  and  C_11
REMARK                            x       y       z     vdW  Elec       q    Type
REMARK                         _______ _______ _______ _____ _____    ______ ____
ROOT
ATOM      1  C   UNL     1      47.982   4.513  16.580  0.00  0.00    +0.000 A 
ATOM      2  C   UNL     1      48.867   5.579  16.710  0.00  0.00    +0.000 A 
ATOM      3  C   UNL     1      48.974   6.465  15.650  0.00  0.00    +0.000 A 
ATOM      4  N   UNL     1      48.277   6.363  14.495  0.00  0.00    +0.000 NA
ATOM      5  C   UNL     1      47.408   5.343  14.374  0.00  0.00    +0.000 A 
ATOM      6  N   UNL     1      46.696   5.290  13.196  0.00  0.00    +0.000 N 
ATOM      7  C   UNL     1      47.235   4.422  15.399  0.00  0.00    +0.000 A 
ATOM      8  H   UNL     1      47.011   5.950  12.497  0.00  0.00    +0.000 HD
ENDROOT
BRANCH   1   9
ATOM      9  C   UNL     1      47.811   3.472  17.649  0.00  0.00    +0.000 C 
BRANCH   9  10
ATOM     10  N   UNL     1      46.487   2.863  17.572  0.00  0.00    +0.000 NA
ATOM     11  H   UNL     1      46.076   2.824  18.502  0.00  0.00    +0.000 HD
ATOM     12  H   UNL     1      46.585   1.898  17.255  0.00  0.00    +0.000 HD
ENDBRANCH   9  10
ENDBRANCH   1   9
BRANCH   6  13
ATOM     13  C   UNL     1      45.801   4.196  12.887  0.00  0.00    +0.000 C 
BRANCH  13  14
ATOM     14  C   UNL     1      44.612   4.644  12.038  0.00  0.00    +0.000 C 
BRANCH  14  15
ATOM     15  C   UNL     1      44.807   4.225  10.610  0.00  0.00    +0.000 A 
ATOM     16  C   UNL     1      44.478   2.959  10.161  0.00  0.00    +0.000 A 
ATOM     17  N   UNL     1      44.695   2.531   8.903  0.00  0.00    +0.000 NA
ATOM     18  C   UNL     1      45.271   3.418   8.077  0.00  0.00    +0.000 A 
ATOM     19  N   UNL     1      45.644   4.666   8.398  0.00  0.00    +0.000 NA
ATOM     20  C   UNL     1      45.403   5.040   9.670  0.00  0.00    +0.000 A 
ENDBRANCH  14  15
ENDBRANCH  13  14
ENDBRANCH   6  13
TORSDOF 5
ENDMDL
MODEL 7
REMARK VINA RESULT:    -5.770      3.669      7.062
REMARK INTER + INTRA:          -7.706
REMARK INTER:                  -7.453
REMARK INTRA:                  -0.253
REMARK UNBOUND:                -0.419
REMARK  Name = 
REMARK  5 active torsions:
REMARK  status: ('A' for Active; 'I' for Inactive)
REMARK    1  A    between atoms: N_1  and  C_2
REMARK    2  A    between atoms: C_2  and  C_3
REMARK    3  A    between atoms: N_8  and  C_9
REMARK    4  A    between atoms: C_9  and  C_10
REMARK    5  A    between atoms: C_10  and  C_11
REMARK                            x       y       z     vdW  Elec       q    Type
REMARK                         _______ _______ _______ _____ _____    ______ ____
ROOT
ATOM      1  C   UNL     1      44.385   4.181  11.490  0.00  0.00    +0.000 A 
ATOM      2  C   UNL     1      43.912   5.436  11.120  0.00  0.00    +0.000 A 
ATOM      3  C   UNL     1      44.324   6.530  11.864  0.00  0.00    +0.000 A 
ATOM      4  N   UNL     1      45.157   6.459  12.928  0.00  0.00    +0.000 NA
ATOM      5  C   UNL     1      45.631   5.250  13.276  0.00  0.00    +0.000 A 
ATOM      6  N   UNL     1      46.499   5.223  14.346  0.00  0.00    +0.000 N 
ATOM      7  C   UNL     1      45.273   4.108  12.570  0.00  0.00    +0.000 A 
ATOM      8  H   UNL     1      46.572   6.105  14.835  0.00  0.00    +0.000 HD
ENDROOT
BRANCH   1   9
ATOM      9  C   UNL     1      43.976   2.923  10.778  0.00  0.00    +0.000 C 
BRANCH   9  10
ATOM     10  N   UNL     1      43.081   2.125  11.609  0.00  0.00    +0.000 NA
ATOM     11  H   UNL     1      42.503   2.741  12.176  0.00  0.00    +0.000 HD
ATOM     12  H   UNL     1      43.640   1.570  12.257  0.00  0.00    +0.000 HD
ENDBRANCH   9  10
ENDBRANCH   1   9
BRANCH   6  13
ATOM     13  C   UNL     1      47.007   3.983  14.892  0.00  0.00    +0.000 C 
BRANCH  13  14
ATOM     14  C   UNL     1      47.246   4.072  16.399  0.00  0.00    +0.000 C 
BRANCH  14  15
ATOM     15  C   UNL     1      48.601   3.524  16.743  0.00  0.00    +0.000 A 
ATOM     16  C   UNL     1      48.990   2.244  16.394  0.00  0.00    +0.000 A 
ATOM     17  N   UNL     1      50.172   1.700  16.737  0.00  0.00    +0.000 NA
ATOM     18  C   UNL     1      50.983   2.482  17.467  0.00  0.00    +0.000 A 
ATOM     19  N   UNL     1      50.714   3.732  17.875  0.00  0.00    +0.000 NA
ATOM     20  C   UNL     1      49.517   4.224  17.502  0.00  0.00    +0.000 A 
ENDBRANCH  14  15
ENDBRANCH  13  14
ENDBRANCH   6  13
TORSDOF 5
ENDMDL
MODEL 8
REMARK VINA RESULT:    -5.764      3.254      5.320
REMARK INTER + INTRA:          -7.699
REMARK INTER:                  -7.392
REMARK INTRA:                  -0.307
REMARK UNBOUND:                -0.419
REMARK  Name = 
REMARK  5 active torsions:
REMARK  status: ('A' for Active; 'I' for Inactive)
REMARK    1  A    between atoms: N_1  and  C_2
REMARK    2  A    between atoms: C_2  and  C_3
REMARK    3  A    between atoms: N_8  and  C_9
REMARK    4  A    between atoms: C_9  and  C_10
REMARK    5  A    between atoms: C_10  and  C_11
REMARK                            x       y       z     vdW  Elec       q    Type
REMARK                         _______ _______ _______ _____ _____    ______ ____
ROOT
ATOM      1  C   UNL     1      47.924   4.428  17.531  0.00  0.00    +0.000 A 
ATOM      2  C   UNL     1      48.690   3.289  17.752  0.00  0.00    +0.000 A 
ATOM      3  C   UNL     1      48.813   2.379  16.714  0.00  0.00    +0.000 A 
ATOM      4  N   UNL     1      48.235   2.524  15.499  0.00  0.00    +0.000 NA
ATOM      5  C   UNL     1      47.508   3.634  15.277  0.00  0.00    +0.000 A 
ATOM      6  N   UNL     1      46.960   3.759  14.019  0.00  0.00    +0.000 N 
ATOM      7  C   UNL     1      47.351   4.598  16.265  0.00  0.00    +0.000 A 
ATOM      8  H   UNL     1      47.055   2.930  13.447  0.00  0.00    +0.000 HD
ENDROOT
BRANCH   1   9
ATOM      9  C   UNL     1      47.693   5.463  18.595  0.00  0.00    +0.000 C 
BRANCH   9  10
ATOM     10  N   UNL     1      46.275   5.559  18.926  0.00  0.00    +0.000 NA
ATOM     11  H   UNL     1      46.148   6.218  19.690  0.00  0.00    +0.000 HD
ATOM     12  H   UNL     1      45.953   4.652  19.265  0.00  0.00    +0.000 HD
ENDBRANCH   9  10
ENDBRANCH   1   9
BRANCH   6  13
ATOM     13  C   UNL     1      46.075   4.849  13.671  0.00  0.00    +0.000 C 
BRANCH  13  14
ATOM     14  C   UNL     1      44.746   4.354  13.102  0.00  0.00    +0.000 C 
BRANCH  14  15
ATOM     15  C   UNL     1      44.833   4.239  11.608  0.00  0.00    +0.000 A 
ATOM     16  C   UNL     1      45.464   5.191  10.829  0.00  0.00    +0.000 A 
ATOM     17  N   UNL     1      45.508   5.150   9.484  0.00  0.00    +0.000 NA
ATOM     18  C   UNL     1      44.883   4.110   8.912  0.00  0.00    +0.000 A 
ATOM     19  N   UNL     1      44.229   3.132   9.558  0.00  0.00    +0.000 NA
ATOM     20  C   UNL     1      44.218   3.225  10.902  0.00  0.00    +0.000 A 
ENDBRANCH  14  15
ENDBRANCH  13  14
ENDBRANCH   6  13
TORSDOF 5
ENDMDL
MODEL 9
REMARK VINA RESULT:    -5.409      3.717      6.965
REMARK INTER + INTRA:          -7.250
REMARK INTER:                  -6.982
REMARK INTRA:                  -0.268
REMARK UNBOUND:                -0.419
REMARK  Name = 
REMARK  5 active torsions:
REMARK  status: ('A' for Active; 'I' for Inactive)
REMARK    1  A    between atoms: N_1  and  C_2
REMARK    2  A    between atoms: C_2  and  C_3
REMARK    3  A    between atoms: N_8  and  C_9
REMARK    4  A    between atoms: C_9  and  C_10
REMARK    5  A    between atoms: C_10  and  C_11
REMARK                            x       y       z     vdW  Elec       q    Type
REMARK                         _______ _______ _______ _____ _____    ______ ____
ROOT
ATOM      1  C   UNL     1      44.984   5.863  11.861  0.00  0.00    +0.000 A 
ATOM      2  C   UNL     1      44.491   4.874  11.016  0.00  0.00    +0.000 A 
ATOM      3  C   UNL     1      44.749   3.553  11.344  0.00  0.00    +0.000 A 
ATOM      4  N   UNL     1      45.450   3.159  12.433  0.00  0.00    +0.000 NA
ATOM      5  C   UNL     1      45.913   4.112  13.261  0.00  0.00    +0.000 A 
ATOM      6  N   UNL     1      46.596   3.671  14.373  0.00  0.00    +0.000 N 
ATOM      7  C   UNL     1      45.683   5.459  13.005  0.00  0.00    +0.000 A 
ATOM      8  H   UNL     1      46.791   2.678  14.365  0.00  0.00    +0.000 HD
ENDROOT
BRANCH   1   9
ATOM      9  C   UNL     1      44.797   7.327  11.584  0.00  0.00    +0.000 C 
BRANCH   9  10
ATOM     10  N   UNL     1      43.446   7.594  11.099  0.00  0.00    +0.000 NA
ATOM     11  H   UNL     1      43.441   7.578  10.082  0.00  0.00    +0.000 HD
ATOM     12  H   UNL     1      43.175   8.536  11.379  0.00  0.00    +0.000 HD
ENDBRANCH   9  10
ENDBRANCH   1   9
BRANCH   6  13
ATOM     13  C   UNL     1      47.235   4.584  15.295  0.00  0.00    +0.000 C 
BRANCH  13  14
ATOM     14  C   UNL     1      47.363   3.991  16.698  0.00  0.00    +0.000 C 
BRANCH  14  15
ATOM     15  C   UNL     1      48.800   3.679  16.999  0.00  0.00    +0.000 A 
ATOM     16  C   UNL     1      49.303   2.392  16.946  0.00  0.00    +0.000 A 
ATOM     17  N   UNL     1      50.569   2.069  17.269  0.00  0.00    +0.000 NA
ATOM     18  C   UNL     1      51.348   3.087  17.664  0.00  0.00    +0.000 A 
ATOM     19  N   UNL     1      50.973   4.372  17.766  0.00  0.00    +0.000 NA
ATOM     20  C   UNL     1      49.696   4.637  17.431  0.00  0.00    +0.000 A 
ENDBRANCH  14  15
ENDBRANCH  13  14
ENDBRANCH   6  13
TORSDOF 5
ENDMDL
