MODEL 1
REMARK VINA RESULT:    -6.831      0.000      0.000
REMARK INTER + INTRA:         -10.038
REMARK INTER:                  -9.027
REMARK INTRA:                  -1.010
REMARK UNBOUND:                -1.010
REMARK  Name = 
REMARK  6 active torsions:
REMARK  status: ('A' for Active; 'I' for Inactive)
REMARK    1  A    between atoms: N_1  and  C_2
REMARK    2  A    between atoms: N_5  and  C_6
REMARK    3  A    between atoms: C_6  and  C_7
REMARK    4  A    between atoms: C_10  and  C_11
REMARK    5  A    between atoms: C_11  and  N_12
REMARK    6  A    between atoms: C_13  and  C_15
REMARK                            x       y       z     vdW  Elec       q    Type
REMARK                         _______ _______ _______ _____ _____    ______ ____
ROOT
ATOM      1  C   UNL     1      46.737   6.936  12.471  0.00  0.00    +0.000 A 
ATOM      2  C   UNL     1      47.877   6.204  12.838  0.00  0.00    +0.000 A 
ATOM      3  C   UNL     1      48.690   6.621  13.892  0.00  0.00    +0.000 A 
ATOM      4  C   UNL     1      48.395   7.797  14.588  0.00  0.00    +0.000 A 
ATOM      5  C   UNL     1      47.318   8.584  14.159  0.00  0.00    +0.000 A 
ATOM      6  C   UNL     1      46.485   8.150  13.124  0.00  0.00    +0.000 A 
ENDROOT
BRANCH   1   7
ATOM      7  C   UNL     1      45.780   6.392  11.426  0.00  0.00    +0.000 C 
BRANCH   7  11
ATOM      8  C   UNL     1      44.290   3.007  11.106  0.00  0.00    +0.000 C 
ATOM      9  C   UNL     1      45.181   3.461  12.264  0.00  0.00    +0.000 C 
ATOM     10  C   UNL     1      44.662   4.746  12.917  0.00  0.00    +0.000 C 
ATOM     11  N   UNL     1      44.513   5.867  11.972  0.00  0.00    +0.000 NA
ATOM     12  C   UNL     1      43.581   5.458  10.904  0.00  0.00    +0.000 C 
ATOM     13  C   UNL     1      43.999   4.181  10.161  0.00  0.00    +0.000 C 
BRANCH   8  14
ATOM     14  N   UNL     1      43.048   2.424  11.619  0.00  0.00    +0.000 NA
ATOM     15  H   UNL     1      42.795   2.876  12.496  0.00  0.00    +0.000 HD
ATOM     16  H   UNL     1      43.194   1.440  11.838  0.00  0.00    +0.000 HD
ENDBRANCH   8  14
ENDBRANCH   7  11
ENDBRANCH   1   7
BRANCH   4  17
ATOM     17  C   UNL     1      49.217   8.198  15.781  0.00  0.00    +0.000 C 
BRANCH  17  18
ATOM     18  N   UNL     1      50.181   7.189  16.132  0.00  0.00    +0.000 N 
ATOM     19  C   UNL     1      49.998   6.418  17.251  0.00  0.00    +0.000 C 
ATOM     20  O   UNL     1      48.995   6.519  17.953  0.00  0.00    +0.000 OA
ATOM     21  H   UNL     1      51.094   7.243  15.694  0.00  0.00    +0.000 HD
BRANCH  19  22
ATOM     22  C   UNL     1      51.029   5.415  17.540  0.00  0.00    +0.000 A 
ATOM     23  C   UNL     1      52.284   5.830  17.965  0.00  0.00    +0.000 A 
ATOM     24  S   UNL     1      53.355   4.545  18.292  0.00  0.00    +0.000 S 
ATOM     25  C   UNL     1      52.195   3.392  17.833  0.00  0.00    +0.000 A 
ATOM     26  N   UNL     1      52.488   2.062  17.850  0.00  0.00    +0.000 NA
ATOM     27  C   UNL     1      51.531   1.300  17.443  0.00  0.00    +0.000 A 
ATOM     28  N   UNL     1      50.301   1.743  17.031  0.00  0.00    +0.000 N 
ATOM     29  C   UNL     1      49.945   3.072  17.030  0.00  0.00    +0.000 A 
ATOM     30  O   UNL     1      48.818   3.428  16.706  0.00  0.00    +0.000 OA
ATOM     31  C   UNL     1      50.996   3.974  17.457  0.00  0.00    +0.000 A 
ATOM     32  H   UNL     1      49.587   1.091  16.738  0.00  0.00    +0.000 HD
ENDBRANCH  19  22
ENDBRANCH  17  18
ENDBRANCH   4  17
TORSDOF 6
ENDMDL
MODEL 2
REMARK VINA RESULT:    -6.649      3.686      8.219
REMARK INTER + INTRA:          -9.797
REMARK INTER:                  -8.737
REMARK INTRA:                  -1.060
REMARK UNBOUND:                -1.010
REMARK  Name = 
REMARK  6 active torsions:
REMARK  status: ('A' for Active; 'I' for Inactive)
REMARK    1  A    between atoms: N_1  and  C_2
REMARK    2  A    between atoms: N_5  and  C_6
REMARK    3  A    between atoms: C_6  and  C_7
REMARK    4  A    between atoms: C_10  and  C_11
REMARK    5  A    between atoms: C_11  and  N_12
REMARK    6  A    between atoms: C_13  and  C_15
REMARK                            x       y       z     vdW  Elec       q    Type
REMARK                         _______ _______ _______ _____ _____    ______ ____
ROOT
ATOM      1  C   UNL     1      49.058   7.799  16.226  0.00  0.00    +0.000 A 
ATOM      2  C   UNL     1      48.164   8.781  15.771  0.00  0.00    +0.000 A 
ATOM      3  C   UNL     1      47.725   8.794  14.447  0.00  0.00    +0.000 A 
ATOM      4  C   UNL     1      48.192   7.839  13.539  0.00  0.00    +0.000 A 
ATOM      5  C   UNL     1      49.162   6.922  13.962  0.00  0.00    +0.000 A 
ATOM      6  C   UNL     1      49.578   6.888  15.298  0.00  0.00    +0.000 A 
ENDROOT
BRANCH   1   7
ATOM      7  C   UNL     1      49.408   7.705  17.700  0.00  0.00    +0.000 C 
BRANCH   7  11
ATOM      8  C   UNL     1      49.505   4.672  19.837  0.00  0.00    +0.000 C 
ATOM      9  C   UNL     1      49.795   6.092  20.327  0.00  0.00    +0.000 C 
ATOM     10  C   UNL     1      48.659   7.060  19.981  0.00  0.00    +0.000 C 
ATOM     11  N   UNL     1      48.349   7.114  18.542  0.00  0.00    +0.000 NA
ATOM     12  C   UNL     1      47.981   5.758  18.092  0.00  0.00    +0.000 C 
ATOM     13  C   UNL     1      49.049   4.691  18.371  0.00  0.00    +0.000 C 
BRANCH   8  14
ATOM     14  N   UNL     1      48.500   4.035  20.692  0.00  0.00    +0.000 NA
ATOM     15  H   UNL     1      48.327   3.084  20.367  0.00  0.00    +0.000 HD
ATOM     16  H   UNL     1      47.613   4.529  20.610  0.00  0.00    +0.000 HD
ENDBRANCH   8  14
ENDBRANCH   7  11
ENDBRANCH   1   7
BRANCH   4  17
ATOM     17  C   UNL     1      47.650   7.798  12.137  0.00  0.00    +0.000 C 
BRANCH  17  18
ATOM     18  N   UNL     1      46.963   6.563  11.863  0.00  0.00    +0.000 N 
ATOM     19  C   UNL     1      45.603   6.479  12.016  0.00  0.00    +0.000 C 
ATOM     20  O   UNL     1      44.924   7.452  12.335  0.00  0.00    +0.000 OA
ATOM     21  H   UNL     1      47.524   5.720  11.811  0.00  0.00    +0.000 HD
BRANCH  19  22
ATOM     22  C   UNL     1      44.982   5.184  11.720  0.00  0.00    +0.000 A 
ATOM     23  C   UNL     1      44.283   4.519  12.718  0.00  0.00    +0.000 A 
ATOM     24  S   UNL     1      43.593   3.047  12.206  0.00  0.00    +0.000 S 
ATOM     25  C   UNL     1      44.244   3.224  10.646  0.00  0.00    +0.000 A 
ATOM     26  N   UNL     1      44.049   2.269   9.697  0.00  0.00    +0.000 NA
ATOM     27  C   UNL     1      44.629   2.510   8.570  0.00  0.00    +0.000 A 
ATOM     28  N   UNL     1      45.376   3.628   8.300  0.00  0.00    +0.000 N 
ATOM     29  C   UNL     1      45.572   4.637   9.214  0.00  0.00    +0.000 A 
ATOM     30  O   UNL     1      46.201   5.646   8.922  0.00  0.00    +0.000 OA
ATOM     31  C   UNL     1      44.959   4.402  10.507  0.00  0.00    +0.000 A 
ATOM     32  H   UNL     1      45.792   3.765   7.390  0.00  0.00    +0.000 HD
ENDBRANCH  19  22
ENDBRANCH  17  18
ENDBRANCH   4  17
TORSDOF 6
ENDMDL
MODEL 3
REMARK VINA RESULT:    -6.548      2.215      2.306
REMARK INTER + INTRA:          -9.664
REMARK INTER:                  -8.534
REMARK INTRA:                  -1.129
REMARK UNBOUND:                -1.010
REMARK  Name = 
REMARK  6 active torsions:
REMARK  status: ('A' for Active; 'I' for Inactive)
REMARK    1  A    between atoms: N_1  and  C_2
REMARK    2  A    between atoms: N_5  and  C_6
REMARK    3  A    between atoms: C_6  and  C_7
REMARK    4  A    between atoms: C_10  and  C_11
REMARK    5  A    between atoms: C_11  and  N_12
REMARK    6  A    between atoms: C_13  and  C_15
REMARK                            x       y       z     vdW  Elec       q    Type
REMARK                         _______ _______ _______ _____ _____    ______ ____
ROOT
ATOM      1  C   UNL     1      46.187   7.337  11.832  0.00  0.00    +0.000 A 
ATOM      2  C   UNL     1      47.507   6.891  11.662  0.00  0.00    +0.000 A 
ATOM      3  C   UNL     1      48.531   7.347  12.492  0.00  0.00    +0.000 A 
ATOM      4  C   UNL     1      48.262   8.281  13.497  0.00  0.00    +0.000 A 
ATOM      5  C   UNL     1      46.968   8.806  13.603  0.00  0.00    +0.000 A 
ATOM      6  C   UNL     1      45.935   8.325  12.792  0.00  0.00    +0.000 A 
ENDROOT
BRANCH   1   7
ATOM      7  C   UNL     1      45.060   6.721  11.023  0.00  0.00    +0.000 C 
BRANCH   7  11
ATOM      8  C   UNL     1      44.575   3.093  11.643  0.00  0.00    +0.000 C 
ATOM      9  C   UNL     1      45.374   4.032  12.548  0.00  0.00    +0.000 C 
ATOM     10  C   UNL     1      44.556   5.257  12.969  0.00  0.00    +0.000 C 
ATOM     11  N   UNL     1      44.033   6.034  11.832  0.00  0.00    +0.000 NA
ATOM     12  C   UNL     1      43.187   5.148  11.009  0.00  0.00    +0.000 C 
ATOM     13  C   UNL     1      43.900   3.883  10.512  0.00  0.00    +0.000 C 
BRANCH   8  14
ATOM     14  N   UNL     1      43.586   2.350  12.428  0.00  0.00    +0.000 NA
ATOM     15  H   UNL     1      42.991   3.003  12.935  0.00  0.00    +0.000 HD
ATOM     16  H   UNL     1      44.059   1.789  13.135  0.00  0.00    +0.000 HD
ENDBRANCH   8  14
ENDBRANCH   7  11
ENDBRANCH   1   7
BRANCH   4  17
ATOM     17  C   UNL     1      49.347   8.702  14.449  0.00  0.00    +0.000 C 
BRANCH  17  18
ATOM     18  N   UNL     1      49.428   7.830  15.590  0.00  0.00    +0.000 N 
ATOM     19  C   UNL     1      48.779   8.151  16.754  0.00  0.00    +0.000 C 
ATOM     20  O   UNL     1      48.071   9.151  16.849  0.00  0.00    +0.000 OA
ATOM     21  H   UNL     1      50.165   7.133  15.593  0.00  0.00    +0.000 HD
BRANCH  19  22
ATOM     22  C   UNL     1      48.916   7.210  17.871  0.00  0.00    +0.000 A 
ATOM     23  C   UNL     1      49.312   7.681  19.115  0.00  0.00    +0.000 A 
ATOM     24  S   UNL     1      49.390   6.471  20.313  0.00  0.00    +0.000 S 
ATOM     25  C   UNL     1      48.942   5.267  19.200  0.00  0.00    +0.000 A 
ATOM     26  N   UNL     1      48.850   3.964  19.581  0.00  0.00    +0.000 NA
ATOM     27  C   UNL     1      48.538   3.151  18.630  0.00  0.00    +0.000 A 
ATOM     28  N   UNL     1      48.296   3.523  17.332  0.00  0.00    +0.000 N 
ATOM     29  C   UNL     1      48.341   4.830  16.907  0.00  0.00    +0.000 A 
ATOM     30  O   UNL     1      48.067   5.132  15.752  0.00  0.00    +0.000 OA
ATOM     31  C   UNL     1      48.712   5.782  17.935  0.00  0.00    +0.000 A 
ATOM     32  H   UNL     1      48.040   2.836  16.637  0.00  0.00    +0.000 HD
ENDBRANCH  19  22
ENDBRANCH  17  18
ENDBRANCH   4  17
TORSDOF 6
ENDMDL
MODEL 4
REMARK VINA RESULT:    -6.466      3.760      8.197
REMARK INTER + INTRA:          -9.555
REMARK INTER:                  -8.626
REMARK INTRA:                  -0.929
REMARK UNBOUND:                -1.010
REMARK  Name = 
REMARK  6 active torsions:
REMARK  status: ('A' for Active; 'I' for Inactive)
REMARK    1  A    between atoms: N_1  and  C_2
REMARK    2  A    between atoms: N_5  and  C_6
REMARK    3  A    between atoms: C_6  and  C_7
REMARK    4  A    between atoms: C_10  and  C_11
REMARK    5  A    between atoms: C_11  and  N_12
REMARK    6  A    between atoms: C_13  and  C_15
REMARK                            x       y       z     vdW  Elec       q    Type
REMARK                         _______ _______ _______ _____ _____    ______ ____
ROOT
ATOM      1  C   UNL     1      48.878   7.302  16.558  0.00  0.00    +0.000 A 
ATOM      2  C   UNL     1      48.756   8.629  16.116  0.00  0.00    +0.000 A 
ATOM      3  C   UNL     1      48.464   8.918  14.783  0.00  0.00    +0.000 A 
ATOM      4  C   UNL     1      48.315   7.884  13.853  0.00  0.00    +0.000 A 
ATOM      5  C   UNL     1      48.538   6.565  14.267  0.00  0.00    +0.000 A 
ATOM      6  C   UNL     1      48.797   6.273  15.611  0.00  0.00    +0.000 A 
ENDROOT
BRANCH   1   7
ATOM      7  C   UNL     1      49.043   6.999  18.035  0.00  0.00    +0.000 C 
BRANCH   7  11
ATOM      8  C   UNL     1      48.371   5.796  21.482  0.00  0.00    +0.000 C 
ATOM      9  C   UNL     1      47.395   6.623  20.642  0.00  0.00    +0.000 C 
ATOM     10  C   UNL     1      47.138   5.988  19.272  0.00  0.00    +0.000 C 
ATOM     11  N   UNL     1      48.364   5.768  18.486  0.00  0.00    +0.000 NA
ATOM     12  C   UNL     1      49.266   4.894  19.260  0.00  0.00    +0.000 C 
ATOM     13  C   UNL     1      49.613   5.429  20.657  0.00  0.00    +0.000 C 
BRANCH   8  14
ATOM     14  N   UNL     1      47.707   4.595  21.996  0.00  0.00    +0.000 NA
ATOM     15  H   UNL     1      48.209   4.249  22.813  0.00  0.00    +0.000 HD
ATOM     16  H   UNL     1      47.750   3.852  21.300  0.00  0.00    +0.000 HD
ENDBRANCH   8  14
ENDBRANCH   7  11
ENDBRANCH   1   7
BRANCH   4  17
ATOM     17  C   UNL     1      47.911   8.191  12.437  0.00  0.00    +0.000 C 
BRANCH  17  18
ATOM     18  N   UNL     1      47.351   7.042  11.778  0.00  0.00    +0.000 N 
ATOM     19  C   UNL     1      46.000   6.963  11.554  0.00  0.00    +0.000 C 
ATOM     20  O   UNL     1      45.238   7.878  11.854  0.00  0.00    +0.000 OA
ATOM     21  H   UNL     1      47.926   6.209  11.723  0.00  0.00    +0.000 HD
BRANCH  19  22
ATOM     22  C   UNL     1      45.510   5.756  10.879  0.00  0.00    +0.000 A 
ATOM     23  C   UNL     1      45.762   5.582   9.526  0.00  0.00    +0.000 A 
ATOM     24  S   UNL     1      45.158   4.116   8.900  0.00  0.00    +0.000 S 
ATOM     25  C   UNL     1      44.496   3.686  10.406  0.00  0.00    +0.000 A 
ATOM     26  N   UNL     1      43.799   2.526  10.555  0.00  0.00    +0.000 NA
ATOM     27  C   UNL     1      43.320   2.341  11.739  0.00  0.00    +0.000 A 
ATOM     28  N   UNL     1      43.486   3.203  12.792  0.00  0.00    +0.000 N 
ATOM     29  C   UNL     1      44.213   4.368  12.700  0.00  0.00    +0.000 A 
ATOM     30  O   UNL     1      44.385   5.088  13.676  0.00  0.00    +0.000 OA
ATOM     31  C   UNL     1      44.752   4.634  11.381  0.00  0.00    +0.000 A 
ATOM     32  H   UNL     1      43.098   2.991  13.700  0.00  0.00    +0.000 HD
ENDBRANCH  19  22
ENDBRANCH  17  18
ENDBRANCH   4  17
TORSDOF 6
ENDMDL
MODEL 5
REMARK VINA RESULT:    -6.118      3.755      9.184
REMARK INTER + INTRA:          -9.095
REMARK INTER:                  -8.315
REMARK INTRA:                  -0.781
REMARK UNBOUND:                -1.010
REMARK  Name = 
REMARK  6 active torsions:
REMARK  status: ('A' for Active; 'I' for Inactive)
REMARK    1  A    between atoms: N_1  and  C_2
REMARK    2  A    between atoms: N_5  and  C_6
REMARK    3  A    between atoms: C_6  and  C_7
REMARK    4  A    between atoms: C_10  and  C_11
REMARK    5  A    between atoms: C_11  and  N_12
REMARK    6  A    between atoms: C_13  and  C_15
REMARK                            x       y       z     vdW  Elec       q    Type
REMARK                         _______ _______ _______ _____ _____    ______ ____
ROOT
ATOM      1  C   UNL     1      49.436   5.604  19.706  0.00  0.00    +0.000 A 
ATOM      2  C   UNL     1      50.129   4.619  18.985  0.00  0.00    +0.000 A 
ATOM      3  C   UNL     1      49.516   3.931  17.937  0.00  0.00    +0.000 A 
ATOM      4  C   UNL     1      48.184   4.195  17.603  0.00  0.00    +0.000 A 
ATOM      5  C   UNL     1      47.458   5.102  18.385  0.00  0.00    +0.000 A 
ATOM      6  C   UNL     1      48.082   5.815  19.414  0.00  0.00    +0.000 A 
ENDROOT
BRANCH   1   7
ATOM      7  C   UNL     1      50.158   6.447  20.739  0.00  0.00    +0.000 C 
BRANCH   7  11
ATOM      8  C   UNL     1      50.308  10.143  21.050  0.00  0.00    +0.000 C 
ATOM      9  C   UNL     1      51.042   9.161  21.966  0.00  0.00    +0.000 C 
ATOM     10  C   UNL     1      51.898   8.169  21.173  0.00  0.00    +0.000 C 
ATOM     11  N   UNL     1      51.135   7.400  20.175  0.00  0.00    +0.000 NA
ATOM     12  C   UNL     1      50.502   8.346  19.238  0.00  0.00    +0.000 C 
ATOM     13  C   UNL     1      49.602   9.392  19.912  0.00  0.00    +0.000 C 
BRANCH   8  14
ATOM     14  N   UNL     1      51.242  11.141  20.522  0.00  0.00    +0.000 NA
ATOM     15  H   UNL     1      50.721  11.921  20.125  0.00  0.00    +0.000 HD
ATOM     16  H   UNL     1      51.780  10.738  19.756  0.00  0.00    +0.000 HD
ENDBRANCH   8  14
ENDBRANCH   7  11
ENDBRANCH   1   7
BRANCH   4  17
ATOM     17  C   UNL     1      47.553   3.521  16.416  0.00  0.00    +0.000 C 
BRANCH  17  18
ATOM     18  N   UNL     1      46.903   4.465  15.545  0.00  0.00    +0.000 N 
ATOM     19  C   UNL     1      46.786   4.202  14.205  0.00  0.00    +0.000 C 
ATOM     20  O   UNL     1      47.176   3.145  13.713  0.00  0.00    +0.000 OA
ATOM     21  H   UNL     1      46.775   5.409  15.893  0.00  0.00    +0.000 HD
BRANCH  19  22
ATOM     22  C   UNL     1      46.114   5.217  13.387  0.00  0.00    +0.000 A 
ATOM     23  C   UNL     1      46.746   6.429  13.149  0.00  0.00    +0.000 A 
ATOM     24  S   UNL     1      45.850   7.484  12.154  0.00  0.00    +0.000 S 
ATOM     25  C   UNL     1      44.566   6.377  12.045  0.00  0.00    +0.000 A 
ATOM     26  N   UNL     1      43.440   6.681  11.345  0.00  0.00    +0.000 NA
ATOM     27  C   UNL     1      42.529   5.768  11.375  0.00  0.00    +0.000 A 
ATOM     28  N   UNL     1      42.647   4.570  12.031  0.00  0.00    +0.000 N 
ATOM     29  C   UNL     1      43.778   4.201  12.721  0.00  0.00    +0.000 A 
ATOM     30  O   UNL     1      43.870   3.100  13.251  0.00  0.00    +0.000 OA
ATOM     31  C   UNL     1      44.824   5.205  12.738  0.00  0.00    +0.000 A 
ATOM     32  H   UNL     1      41.901   3.888  12.002  0.00  0.00    +0.000 HD
ENDBRANCH  19  22
ENDBRANCH  17  18
ENDBRANCH   4  17
TORSDOF 6
ENDMDL
MODEL 6
REMARK VINA RESULT:    -6.115      2.971      3.403
REMARK INTER + INTRA:          -9.091
REMARK INTER:                  -8.099
REMARK INTRA:                  -0.992
REMARK UNBOUND:                -1.010
REMARK  Name = 
REMARK  6 active torsions:
REMARK  status: ('A' for Active; 'I' for Inactive)
REMARK    1  A    between atoms: N_1  and  C_2
REMARK    2  A    between atoms: N_5  and  C_6
REMARK    3  A    between atoms: C_6  and  C_7
REMARK    4  A    between atoms: C_10  and  C_11
REMARK    5  A    between atoms: C_11  and  N_12
REMARK    6  A    between atoms: C_13  and  C_15
REMARK                            x       y       z     vdW  Elec       q    Type
REMARK                         _______ _______ _______ _____ _____    ______ ____
ROOT
ATOM      1  C   UNL     1      46.564   7.034  12.436  0.00  0.00    +0.000 A 
ATOM      2  C   UNL     1      46.345   8.211  13.170  0.00  0.00    +0.000 A 
ATOM      3  C   UNL     1      47.361   8.775  13.941  0.00  0.00    +0.000 A 
ATOM      4  C   UNL     1      48.613   8.160  14.019  0.00  0.00    +0.000 A 
ATOM      5  C   UNL     1      48.804   6.932  13.372  0.00  0.00    +0.000 A 
ATOM      6  C   UNL     1      47.797   6.383  12.572  0.00  0.00    +0.000 A 
ENDROOT
BRANCH   1   7
ATOM      7  C   UNL     1      45.502   6.516  11.484  0.00  0.00    +0.000 C 
BRANCH   7  11
ATOM      8  C   UNL     1      44.175   3.074  11.072  0.00  0.00    +0.000 C 
ATOM      9  C   UNL     1      45.190   3.494  12.138  0.00  0.00    +0.000 C 
ATOM     10  C   UNL     1      44.694   4.687  12.962  0.00  0.00    +0.000 C 
ATOM     11  N   UNL     1      44.354   5.865  12.146  0.00  0.00    +0.000 NA
ATOM     12  C   UNL     1      43.308   5.480  11.179  0.00  0.00    +0.000 C 
ATOM     13  C   UNL     1      43.691   4.296  10.279  0.00  0.00    +0.000 C 
BRANCH   8  14
ATOM     14  N   UNL     1      43.050   2.369  11.693  0.00  0.00    +0.000 NA
ATOM     15  H   UNL     1      43.260   2.186  12.673  0.00  0.00    +0.000 HD
ATOM     16  H   UNL     1      42.928   1.459  11.253  0.00  0.00    +0.000 HD
ENDBRANCH   8  14
ENDBRANCH   7  11
ENDBRANCH   1   7
BRANCH   4  17
ATOM     17  C   UNL     1      49.735   8.817  14.776  0.00  0.00    +0.000 C 
BRANCH  17  18
ATOM     18  N   UNL     1      49.483   8.843  16.192  0.00  0.00    +0.000 N 
ATOM     19  C   UNL     1      49.920   7.818  16.991  0.00  0.00    +0.000 C 
ATOM     20  O   UNL     1      50.578   6.881  16.545  0.00  0.00    +0.000 OA
ATOM     21  H   UNL     1      48.773   9.485  16.528  0.00  0.00    +0.000 HD
BRANCH  19  22
ATOM     22  C   UNL     1      49.619   7.919  18.423  0.00  0.00    +0.000 A 
ATOM     23  C   UNL     1      50.258   8.886  19.188  0.00  0.00    +0.000 A 
ATOM     24  S   UNL     1      49.774   8.897  20.822  0.00  0.00    +0.000 S 
ATOM     25  C   UNL     1      48.729   7.579  20.576  0.00  0.00    +0.000 A 
ATOM     26  N   UNL     1      48.013   7.055  21.608  0.00  0.00    +0.000 NA
ATOM     27  C   UNL     1      47.289   6.035  21.290  0.00  0.00    +0.000 A 
ATOM     28  N   UNL     1      47.205   5.499  20.031  0.00  0.00    +0.000 N 
ATOM     29  C   UNL     1      47.880   6.015  18.950  0.00  0.00    +0.000 A 
ATOM     30  O   UNL     1      47.740   5.543  17.828  0.00  0.00    +0.000 OA
ATOM     31  C   UNL     1      48.728   7.149  19.259  0.00  0.00    +0.000 A 
ATOM     32  H   UNL     1      46.605   4.707  19.846  0.00  0.00    +0.000 HD
ENDBRANCH  19  22
ENDBRANCH  17  18
ENDBRANCH   4  17
TORSDOF 6
ENDMDL
MODEL 7
REMARK VINA RESULT:    -6.045      3.336      9.399
REMARK INTER + INTRA:          -8.999
REMARK INTER:                  -8.130
REMARK INTRA:                  -0.870
REMARK UNBOUND:                -1.010
REMARK  Name = 
REMARK  6 active torsions:
REMARK  status: ('A' for Active; 'I' for Inactive)
REMARK    1  A    between atoms: N_1  and  C_2
REMARK    2  A    between atoms: N_5  and  C_6
REMARK    3  A    between atoms: C_6  and  C_7
REMARK    4  A    between atoms: C_10  and  C_11
REMARK    5  A    between atoms: C_11  and  N_12
REMARK    6  A    between atoms: C_13  and  C_15
REMARK                            x       y       z     vdW  Elec       q    Type
REMARK                         _______ _______ _______ _____ _____    ______ ____
ROOT
ATOM      1  C   UNL     1      50.659   4.674  19.091  0.00  0.00    +0.000 A 
ATOM      2  C   UNL     1      49.416   5.313  19.215  0.00  0.00    +0.000 A 
ATOM      3  C   UNL     1      48.324   4.914  18.443  0.00  0.00    +0.000 A 
ATOM      4  C   UNL     1      48.459   3.882  17.509  0.00  0.00    +0.000 A 
ATOM      5  C   UNL     1      49.722   3.312  17.310  0.00  0.00    +0.000 A 
ATOM      6  C   UNL     1      50.809   3.689  18.106  0.00  0.00    +0.000 A 
ENDROOT
BRANCH   1   7
ATOM      7  C   UNL     1      51.793   5.015  20.040  0.00  0.00    +0.000 C 
BRANCH   7  11
ATOM      8  C   UNL     1      53.523   8.240  20.659  0.00  0.00    +0.000 C 
ATOM      9  C   UNL     1      53.899   6.910  21.315  0.00  0.00    +0.000 C 
ATOM     10  C   UNL     1      54.138   5.808  20.278  0.00  0.00    +0.000 C 
ATOM     11  N   UNL     1      52.989   5.582  19.385  0.00  0.00    +0.000 NA
ATOM     12  C   UNL     1      52.685   6.844  18.685  0.00  0.00    +0.000 C 
ATOM     13  C   UNL     1      52.413   8.031  19.620  0.00  0.00    +0.000 C 
BRANCH   8  14
ATOM     14  N   UNL     1      54.704   8.859  20.052  0.00  0.00    +0.000 NA
ATOM     15  H   UNL     1      54.865   9.773  20.471  0.00  0.00    +0.000 HD
ATOM     16  H   UNL     1      54.535   9.026  19.061  0.00  0.00    +0.000 HD
ENDBRANCH   8  14
ENDBRANCH   7  11
ENDBRANCH   1   7
BRANCH   4  17
ATOM     17  C   UNL     1      47.261   3.391  16.745  0.00  0.00    +0.000 C 
BRANCH  17  18
ATOM     18  N   UNL     1      46.761   4.385  15.833  0.00  0.00    +0.000 N 
ATOM     19  C   UNL     1      46.845   4.186  14.479  0.00  0.00    +0.000 C 
ATOM     20  O   UNL     1      47.292   3.146  14.001  0.00  0.00    +0.000 OA
ATOM     21  H   UNL     1      46.593   5.315  16.202  0.00  0.00    +0.000 HD
BRANCH  19  22
ATOM     22  C   UNL     1      46.316   5.250  13.618  0.00  0.00    +0.000 A 
ATOM     23  C   UNL     1      47.058   6.408  13.432  0.00  0.00    +0.000 A 
ATOM     24  S   UNL     1      46.324   7.529  12.379  0.00  0.00    +0.000 S 
ATOM     25  C   UNL     1      44.967   6.527  12.173  0.00  0.00    +0.000 A 
ATOM     26  N   UNL     1      43.922   6.919  11.394  0.00  0.00    +0.000 NA
ATOM     27  C   UNL     1      42.942   6.081  11.354  0.00  0.00    +0.000 A 
ATOM     28  N   UNL     1      42.917   4.878  12.012  0.00  0.00    +0.000 N 
ATOM     29  C   UNL     1      43.962   4.422  12.781  0.00  0.00    +0.000 A 
ATOM     30  O   UNL     1      43.927   3.318  13.311  0.00  0.00    +0.000 OA
ATOM     31  C   UNL     1      45.080   5.340  12.878  0.00  0.00    +0.000 A 
ATOM     32  H   UNL     1      42.123   4.258  11.927  0.00  0.00    +0.000 HD
ENDBRANCH  19  22
ENDBRANCH  17  18
ENDBRANCH   4  17
TORSDOF 6
ENDMDL
MODEL 8
REMARK VINA RESULT:    -5.794      1.857      2.383
REMARK INTER + INTRA:          -8.667
REMARK INTER:                  -7.689
REMARK INTRA:                  -0.977
REMARK UNBOUND:                -1.010
REMARK  Name = 
REMARK  6 active torsions:
REMARK  status: ('A' for Active; 'I' for Inactive)
REMARK    1  A    between atoms: N_1  and  C_2
REMARK    2  A    between atoms: N_5  and  C_6
REMARK    3  A    between atoms: C_6  and  C_7
REMARK    4  A    between atoms: C_10  and  C_11
REMARK    5  A    between atoms: C_11  and  N_12
REMARK    6  A    between atoms: C_13  and  C_15
REMARK                            x       y       z     vdW  Elec       q    Type
REMARK                         _______ _______ _______ _____ _____    ______ ____
ROOT
ATOM      1  C   UNL     1      47.316   6.859  12.330  0.00  0.00    +0.000 A 
ATOM      2  C   UNL     1      47.625   6.850  13.700  0.00  0.00    +0.000 A 
ATOM      3  C   UNL     1      48.837   7.362  14.165  0.00  0.00    +0.000 A 
ATOM      4  C   UNL     1      49.780   7.870  13.266  0.00  0.00    +0.000 A 
ATOM      5  C   UNL     1      49.519   7.786  11.893  0.00  0.00    +0.000 A 
ATOM      6  C   UNL     1      48.291   7.304  11.429  0.00  0.00    +0.000 A 
ENDROOT
BRANCH   1   7
ATOM      7  C   UNL     1      45.937   6.441  11.854  0.00  0.00    +0.000 C 
BRANCH   7  11
ATOM      8  C   UNL     1      43.000   4.172  11.875  0.00  0.00    +0.000 C 
ATOM      9  C   UNL     1      43.442   5.013  10.676  0.00  0.00    +0.000 C 
ATOM     10  C   UNL     1      44.912   4.775  10.320  0.00  0.00    +0.000 C 
ATOM     11  N   UNL     1      45.837   5.028  11.438  0.00  0.00    +0.000 NA
ATOM     12  C   UNL     1      45.465   4.148  12.562  0.00  0.00    +0.000 C 
ATOM     13  C   UNL     1      44.008   4.302  13.024  0.00  0.00    +0.000 C 
BRANCH   8  14
ATOM     14  N   UNL     1      42.832   2.771  11.478  0.00  0.00    +0.000 NA
ATOM     15  H   UNL     1      41.876   2.474  11.669  0.00  0.00    +0.000 HD
ATOM     16  H   UNL     1      43.434   2.177  12.045  0.00  0.00    +0.000 HD
ENDBRANCH   8  14
ENDBRANCH   7  11
ENDBRANCH   1   7
BRANCH   4  17
ATOM     17  C   UNL     1      51.045   8.504  13.775  0.00  0.00    +0.000 C 
BRANCH  17  18
ATOM     18  N   UNL     1      51.825   7.589  14.566  0.00  0.00    +0.000 N 
ATOM     19  C   UNL     1      52.210   7.929  15.837  0.00  0.00    +0.000 C 
ATOM     20  O   UNL     1      51.864   8.986  16.360  0.00  0.00    +0.000 OA
ATOM     21  H   UNL     1      52.286   6.828  14.080  0.00  0.00    +0.000 HD
BRANCH  19  22
ATOM     22  C   UNL     1      53.006   6.942  16.574  0.00  0.00    +0.000 A 
ATOM     23  C   UNL     1      54.358   7.176  16.785  0.00  0.00    +0.000 A 
ATOM     24  S   UNL     1      55.131   5.954  17.686  0.00  0.00    +0.000 S 
ATOM     25  C   UNL     1      53.698   5.047  17.786  0.00  0.00    +0.000 A 
ATOM     26  N   UNL     1      53.678   3.841  18.418  0.00  0.00    +0.000 NA
ATOM     27  C   UNL     1      52.536   3.242  18.388  0.00  0.00    +0.000 A 
ATOM     28  N   UNL     1      51.406   3.744  17.795  0.00  0.00    +0.000 N 
ATOM     29  C   UNL     1      51.367   4.973  17.176  0.00  0.00    +0.000 A 
ATOM     30  O   UNL     1      50.327   5.413  16.703  0.00  0.00    +0.000 OA
ATOM     31  C   UNL     1      52.634   5.677  17.162  0.00  0.00    +0.000 A 
ATOM     32  H   UNL     1      50.536   3.231  17.820  0.00  0.00    +0.000 HD
ENDBRANCH  19  22
ENDBRANCH  17  18
ENDBRANCH   4  17
TORSDOF 6
ENDMDL
MODEL 9
REMARK VINA RESULT:    -5.641      3.607      8.869
REMARK INTER + INTRA:          -8.464
REMARK INTER:                  -7.692
REMARK INTRA:                  -0.772
REMARK UNBOUND:                -1.010
REMARK  Name = 
REMARK  6 active torsions:
REMARK  status: ('A' for Active; 'I' for Inactive)
REMARK    1  A    between atoms: N_1  and  C_2
REMARK    2  A    between atoms: N_5  and  C_6
REMARK    3  A    between atoms: C_6  and  C_7
REMARK    4  A    between atoms: C_10  and  C_11
REMARK    5  A    between atoms: C_11  and  N_12
REMARK    6  A    between atoms: C_13  and  C_15
REMARK                            x       y       z     vdW  Elec       q    Type
REMARK                         _______ _______ _______ _____ _____    ______ ____
ROOT
ATOM      1  C   UNL     1      50.584   7.464  15.445  0.00  0.00    +0.000 A 
ATOM      2  C   UNL     1      49.309   6.883  15.529  0.00  0.00    +0.000 A 
ATOM      3  C   UNL     1      48.394   7.008  14.484  0.00  0.00    +0.000 A 
ATOM      4  C   UNL     1      48.723   7.741  13.340  0.00  0.00    +0.000 A 
ATOM      5  C   UNL     1      49.954   8.408  13.296  0.00  0.00    +0.000 A 
ATOM      6  C   UNL     1      50.885   8.256  14.329  0.00  0.00    +0.000 A 
ENDROOT
BRANCH   1   7
ATOM      7  C   UNL     1      51.622   7.193  16.519  0.00  0.00    +0.000 C 
BRANCH   7  11
ATOM      8  C   UNL     1      53.353   6.022  19.586  0.00  0.00    +0.000 C 
ATOM      9  C   UNL     1      52.164   6.985  19.571  0.00  0.00    +0.000 C 
ATOM     10  C   UNL     1      50.976   6.415  18.790  0.00  0.00    +0.000 C 
ATOM     11  N   UNL     1      51.304   6.053  17.401  0.00  0.00    +0.000 NA
ATOM     12  C   UNL     1      52.390   5.054  17.421  0.00  0.00    +0.000 C 
ATOM     13  C   UNL     1      53.650   5.512  18.169  0.00  0.00    +0.000 C 
BRANCH   8  14
ATOM     14  N   UNL     1      53.093   4.908  20.502  0.00  0.00    +0.000 NA
ATOM     15  H   UNL     1      52.426   5.200  21.215  0.00  0.00    +0.000 HD
ATOM     16  H   UNL     1      53.948   4.661  20.996  0.00  0.00    +0.000 HD
ENDBRANCH   8  14
ENDBRANCH   7  11
ENDBRANCH   1   7
BRANCH   4  17
ATOM     17  C   UNL     1      47.772   7.799  12.177  0.00  0.00    +0.000 C 
BRANCH  17  18
ATOM     18  N   UNL     1      47.048   6.566  12.013  0.00  0.00    +0.000 N 
ATOM     19  C   UNL     1      45.730   6.583  11.635  0.00  0.00    +0.000 C 
ATOM     20  O   UNL     1      45.143   7.629  11.374  0.00  0.00    +0.000 OA
ATOM     21  H   UNL     1      47.450   5.731  12.425  0.00  0.00    +0.000 HD
BRANCH  19  22
ATOM     22  C   UNL     1      45.065   5.283  11.494  0.00  0.00    +0.000 A 
ATOM     23  C   UNL     1      44.386   4.744  12.578  0.00  0.00    +0.000 A 
ATOM     24  S   UNL     1      43.639   3.249  12.243  0.00  0.00    +0.000 S 
ATOM     25  C   UNL     1      44.237   3.247  10.652  0.00  0.00    +0.000 A 
ATOM     26  N   UNL     1      43.982   2.207   9.812  0.00  0.00    +0.000 NA
ATOM     27  C   UNL     1      44.526   2.316   8.648  0.00  0.00    +0.000 A 
ATOM     28  N   UNL     1      45.292   3.377   8.240  0.00  0.00    +0.000 N 
ATOM     29  C   UNL     1      45.548   4.468   9.039  0.00  0.00    +0.000 A 
ATOM     30  O   UNL     1      46.192   5.423   8.623  0.00  0.00    +0.000 OA
ATOM     31  C   UNL     1      44.977   4.383  10.369  0.00  0.00    +0.000 A 
ATOM     32  H   UNL     1      45.677   3.409   7.307  0.00  0.00    +0.000 HD
ENDBRANCH  19  22
ENDBRANCH  17  18
ENDBRANCH   4  17
TORSDOF 6
ENDMDL
