MODEL 1
REMARK VINA RESULT:    -7.823      0.000      0.000
REMARK INTER + INTRA:         -10.967
REMARK INTER:                 -10.567
REMARK INTRA:                  -0.400
REMARK UNBOUND:                -0.400
REMARK  Name = 
REMARK  7 active torsions:
REMARK  status: ('A' for Active; 'I' for Inactive)
REMARK    1  A    between atoms: C_1  and  O_2
REMARK    2  A    between atoms: O_2  and  C_3
REMARK    3  A    between atoms: C_5  and  C_6
REMARK    4  A    between atoms: C_11  and  O_12
REMARK    5  A    between atoms: O_12  and  C_13
REMARK    6  A    between atoms: C_13  and  C_14
REMARK    7  A    between atoms: C_19  and  C_20
REMARK                            x       y       z     vdW  Elec       q    Type
REMARK                         _______ _______ _______ _____ _____    ______ ____
ROOT
ATOM      1  C   UNL     1      43.914   5.517  11.625  0.00  0.00    +0.000 C 
ENDROOT
BRANCH   1   2
ATOM      2  C   UNL     1      45.304   5.753  12.164  0.00  0.00    +0.000 A 
ATOM      3  C   UNL     1      45.735   4.922  13.208  0.00  0.00    +0.000 A 
ATOM      4  C   UNL     1      46.993   5.095  13.751  0.00  0.00    +0.000 A 
ATOM      5  F   UNL     1      47.392   4.306  14.758  0.00  0.00    +0.000 F 
ATOM      6  C   UNL     1      47.857   6.065  13.259  0.00  0.00    +0.000 A 
ATOM      7  C   UNL     1      47.487   6.868  12.170  0.00  0.00    +0.000 A 
ATOM      8  C   UNL     1      46.179   6.725  11.661  0.00  0.00    +0.000 A 
BRANCH   7   9
ATOM      9  C   UNL     1      48.434   7.875  11.516  0.00  0.00    +0.000 C 
ATOM     10  C   UNL     1      49.908   7.612  11.897  0.00  0.00    +0.000 C 
ATOM     11  C   UNL     1      50.213   8.060  13.326  0.00  0.00    +0.000 C 
ATOM     12  N   UNL     1      49.937   9.486  13.513  0.00  0.00    +0.000 NA
ATOM     13  C   UNL     1      48.542   9.802  13.204  0.00  0.00    +0.000 C 
ATOM     14  C   UNL     1      48.140   9.365  11.790  0.00  0.00    +0.000 C 
ATOM     15  H   UNL     1      50.545  10.030  12.904  0.00  0.00    +0.000 HD
ENDBRANCH   7   9
ENDBRANCH   1   2
BRANCH   1  16
ATOM     16  O   UNL     1      43.849   5.392  10.207  0.00  0.00    +0.000 OA
BRANCH  16  22
ATOM     17  C   UNL     1      44.280   2.938   9.935  0.00  0.00    +0.000 A 
ATOM     18  C   UNL     1      45.059   1.978   9.278  0.00  0.00    +0.000 A 
ATOM     19  C   UNL     1      46.036   2.347   8.340  0.00  0.00    +0.000 A 
ATOM     20  C   UNL     1      46.233   3.700   8.060  0.00  0.00    +0.000 A 
ATOM     21  C   UNL     1      45.469   4.667   8.719  0.00  0.00    +0.000 A 
ATOM     22  C   UNL     1      44.491   4.304   9.659  0.00  0.00    +0.000 A 
BRANCH  19  23
ATOM     23  C   UNL     1      46.796   1.245   7.685  0.00  0.00    +0.000 C 
ATOM     24  N   UNL     1      47.789   1.562   6.804  0.00  0.00    +0.000 N 
ATOM     25  O   UNL     1      46.544   0.067   7.918  0.00  0.00    +0.000 OA
ATOM     26  H   UNL     1      48.047   2.492   6.524  0.00  0.00    +0.000 HD
ATOM     27  H   UNL     1      48.272   0.788   6.368  0.00  0.00    +0.000 HD
ENDBRANCH  19  23
BRANCH  17  29
ATOM     28  C   UNL     1      43.596   2.215  12.117  0.00  0.00    +0.000 C 
ATOM     29  O   UNL     1      43.266   2.587  10.785  0.00  0.00    +0.000 OA
ENDBRANCH  17  29
ENDBRANCH  16  22
ENDBRANCH   1  16
TORSDOF 6
ENDMDL
MODEL 2
REMARK VINA RESULT:    -7.546      1.977      2.436
REMARK INTER + INTRA:         -10.593
REMARK INTER:                 -10.073
REMARK INTRA:                  -0.520
REMARK UNBOUND:                -0.400
REMARK  Name = 
REMARK  7 active torsions:
REMARK  status: ('A' for Active; 'I' for Inactive)
REMARK    1  A    between atoms: C_1  and  O_2
REMARK    2  A    between atoms: O_2  and  C_3
REMARK    3  A    between atoms: C_5  and  C_6
REMARK    4  A    between atoms: C_11  and  O_12
REMARK    5  A    between atoms: O_12  and  C_13
REMARK    6  A    between atoms: C_13  and  C_14
REMARK    7  A    between atoms: C_19  and  C_20
REMARK                            x       y       z     vdW  Elec       q    Type
REMARK                         _______ _______ _______ _____ _____    ______ ____
ROOT
ATOM      1  C   UNL     1      43.868   5.597  11.383  0.00  0.00    +0.000 C 
ENDROOT
BRANCH   1   2
ATOM      2  C   UNL     1      44.693   6.853  11.536  0.00  0.00    +0.000 A 
ATOM      3  C   UNL     1      44.028   8.078  11.380  0.00  0.00    +0.000 A 
ATOM      4  C   UNL     1      44.729   9.262  11.497  0.00  0.00    +0.000 A 
ATOM      5  F   UNL     1      44.088  10.427  11.332  0.00  0.00    +0.000 F 
ATOM      6  C   UNL     1      46.084   9.263  11.799  0.00  0.00    +0.000 A 
ATOM      7  C   UNL     1      46.768   8.060  12.030  0.00  0.00    +0.000 A 
ATOM      8  C   UNL     1      46.058   6.855  11.850  0.00  0.00    +0.000 A 
BRANCH   7   9
ATOM      9  C   UNL     1      48.231   8.003  12.472  0.00  0.00    +0.000 C 
ATOM     10  C   UNL     1      48.599   6.627  13.070  0.00  0.00    +0.000 C 
ATOM     11  C   UNL     1      48.035   6.451  14.479  0.00  0.00    +0.000 C 
ATOM     12  N   UNL     1      48.519   7.492  15.387  0.00  0.00    +0.000 NA
ATOM     13  C   UNL     1      48.171   8.828  14.900  0.00  0.00    +0.000 C 
ATOM     14  C   UNL     1      48.682   9.084  13.476  0.00  0.00    +0.000 C 
ATOM     15  H   UNL     1      49.532   7.421  15.471  0.00  0.00    +0.000 HD
ENDBRANCH   7   9
ENDBRANCH   1   2
BRANCH   1  16
ATOM     16  O   UNL     1      43.600   5.234  10.032  0.00  0.00    +0.000 OA
BRANCH  16  22
ATOM     17  C   UNL     1      44.258   2.819   9.882  0.00  0.00    +0.000 A 
ATOM     18  C   UNL     1      45.109   1.901   9.256  0.00  0.00    +0.000 A 
ATOM     19  C   UNL     1      46.023   2.306   8.270  0.00  0.00    +0.000 A 
ATOM     20  C   UNL     1      46.083   3.653   7.911  0.00  0.00    +0.000 A 
ATOM     21  C   UNL     1      45.246   4.580   8.538  0.00  0.00    +0.000 A 
ATOM     22  C   UNL     1      44.331   4.181   9.525  0.00  0.00    +0.000 A 
BRANCH  19  23
ATOM     23  C   UNL     1      46.869   1.245   7.655  0.00  0.00    +0.000 C 
ATOM     24  N   UNL     1      47.931   1.614   6.881  0.00  0.00    +0.000 N 
ATOM     25  O   UNL     1      46.628   0.054   7.825  0.00  0.00    +0.000 OA
ATOM     26  H   UNL     1      48.190   2.559   6.657  0.00  0.00    +0.000 HD
ATOM     27  H   UNL     1      48.473   0.867   6.468  0.00  0.00    +0.000 HD
ENDBRANCH  19  23
BRANCH  17  29
ATOM     28  C   UNL     1      43.623   2.448  12.165  0.00  0.00    +0.000 C 
ATOM     29  O   UNL     1      43.304   2.424  10.780  0.00  0.00    +0.000 OA
ENDBRANCH  17  29
ENDBRANCH  16  22
ENDBRANCH   1  16
TORSDOF 6
ENDMDL
MODEL 3
REMARK VINA RESULT:    -7.508      5.037      8.590
REMARK INTER + INTRA:         -10.541
REMARK INTER:                 -10.228
REMARK INTRA:                  -0.313
REMARK UNBOUND:                -0.400
REMARK  Name = 
REMARK  7 active torsions:
REMARK  status: ('A' for Active; 'I' for Inactive)
REMARK    1  A    between atoms: C_1  and  O_2
REMARK    2  A    between atoms: O_2  and  C_3
REMARK    3  A    between atoms: C_5  and  C_6
REMARK    4  A    between atoms: C_11  and  O_12
REMARK    5  A    between atoms: O_12  and  C_13
REMARK    6  A    between atoms: C_13  and  C_14
REMARK    7  A    between atoms: C_19  and  C_20
REMARK                            x       y       z     vdW  Elec       q    Type
REMARK                         _______ _______ _______ _____ _____    ______ ____
ROOT
ATOM      1  C   UNL     1      46.979   4.638  14.991  0.00  0.00    +0.000 C 
ENDROOT
BRANCH   1   2
ATOM      2  C   UNL     1      46.636   5.242  13.650  0.00  0.00    +0.000 A 
ATOM      3  C   UNL     1      47.579   6.109  13.080  0.00  0.00    +0.000 A 
ATOM      4  C   UNL     1      47.320   6.703  11.860  0.00  0.00    +0.000 A 
ATOM      5  F   UNL     1      48.221   7.542  11.330  0.00  0.00    +0.000 F 
ATOM      6  C   UNL     1      46.148   6.430  11.168  0.00  0.00    +0.000 A 
ATOM      7  C   UNL     1      45.213   5.514  11.674  0.00  0.00    +0.000 A 
ATOM      8  C   UNL     1      45.459   4.960  12.947  0.00  0.00    +0.000 A 
BRANCH   7   9
ATOM      9  C   UNL     1      43.959   5.092  10.907  0.00  0.00    +0.000 C 
ATOM     10  C   UNL     1      42.991   4.276  11.791  0.00  0.00    +0.000 C 
ATOM     11  C   UNL     1      43.491   2.848  12.011  0.00  0.00    +0.000 C 
ATOM     12  N   UNL     1      43.667   2.138  10.743  0.00  0.00    +0.000 NA
ATOM     13  C   UNL     1      44.605   2.840   9.866  0.00  0.00    +0.000 C 
ATOM     14  C   UNL     1      44.192   4.294   9.607  0.00  0.00    +0.000 C 
ATOM     15  H   UNL     1      42.767   2.058  10.274  0.00  0.00    +0.000 HD
ENDBRANCH   7   9
ENDBRANCH   1   2
BRANCH   1  16
ATOM     16  O   UNL     1      48.276   4.978  15.473  0.00  0.00    +0.000 OA
BRANCH  16  22
ATOM     17  C   UNL     1      48.926   3.633  17.486  0.00  0.00    +0.000 A 
ATOM     18  C   UNL     1      49.069   3.651  18.878  0.00  0.00    +0.000 A 
ATOM     19  C   UNL     1      48.805   4.810  19.625  0.00  0.00    +0.000 A 
ATOM     20  C   UNL     1      48.389   5.966  18.962  0.00  0.00    +0.000 A 
ATOM     21  C   UNL     1      48.232   5.955  17.573  0.00  0.00    +0.000 A 
ATOM     22  C   UNL     1      48.494   4.798  16.822  0.00  0.00    +0.000 A 
BRANCH  19  23
ATOM     23  C   UNL     1      49.006   4.727  21.099  0.00  0.00    +0.000 C 
ATOM     24  N   UNL     1      50.278   4.730  21.593  0.00  0.00    +0.000 N 
ATOM     25  O   UNL     1      48.055   4.651  21.871  0.00  0.00    +0.000 OA
ATOM     26  H   UNL     1      51.118   4.756  21.042  0.00  0.00    +0.000 HD
ATOM     27  H   UNL     1      50.375   4.656  22.597  0.00  0.00    +0.000 HD
ENDBRANCH  19  23
BRANCH  17  29
ATOM     28  C   UNL     1      50.513   1.904  16.988  0.00  0.00    +0.000 C 
ATOM     29  O   UNL     1      49.264   2.536  16.739  0.00  0.00    +0.000 OA
ENDBRANCH  17  29
ENDBRANCH  16  22
ENDBRANCH   1  16
TORSDOF 6
ENDMDL
MODEL 4
REMARK VINA RESULT:    -7.328      5.085      7.992
REMARK INTER + INTRA:         -10.298
REMARK INTER:                  -9.891
REMARK INTRA:                  -0.407
REMARK UNBOUND:                -0.400
REMARK  Name = 
REMARK  7 active torsions:
REMARK  status: ('A' for Active; 'I' for Inactive)
REMARK    1  A    between atoms: C_1  and  O_2
REMARK    2  A    between atoms: O_2  and  C_3
REMARK    3  A    between atoms: C_5  and  C_6
REMARK    4  A    between atoms: C_11  and  O_12
REMARK    5  A    between atoms: O_12  and  C_13
REMARK    6  A    between atoms: C_13  and  C_14
REMARK    7  A    between atoms: C_19  and  C_20
REMARK                            x       y       z     vdW  Elec       q    Type
REMARK                         _______ _______ _______ _____ _____    ______ ____
ROOT
ATOM      1  C   UNL     1      46.875   4.234  15.369  0.00  0.00    +0.000 C 
ENDROOT
BRANCH   1   2
ATOM      2  C   UNL     1      46.666   4.962  14.062  0.00  0.00    +0.000 A 
ATOM      3  C   UNL     1      47.693   5.817  13.635  0.00  0.00    +0.000 A 
ATOM      4  C   UNL     1      47.557   6.520  12.454  0.00  0.00    +0.000 A 
ATOM      5  F   UNL     1      48.537   7.345  12.061  0.00  0.00    +0.000 F 
ATOM      6  C   UNL     1      46.427   6.372  11.661  0.00  0.00    +0.000 A 
ATOM      7  C   UNL     1      45.411   5.474  12.020  0.00  0.00    +0.000 A 
ATOM      8  C   UNL     1      45.531   4.806  13.257  0.00  0.00    +0.000 A 
BRANCH   7   9
ATOM      9  C   UNL     1      44.198   5.188  11.135  0.00  0.00    +0.000 C 
ATOM     10  C   UNL     1      43.097   4.418  11.896  0.00  0.00    +0.000 C 
ATOM     11  C   UNL     1      43.463   2.946  12.088  0.00  0.00    +0.000 C 
ATOM     12  N   UNL     1      43.691   2.277  10.806  0.00  0.00    +0.000 NA
ATOM     13  C   UNL     1      44.752   2.935  10.043  0.00  0.00    +0.000 C 
ATOM     14  C   UNL     1      44.477   4.428   9.821  0.00  0.00    +0.000 C 
ATOM     15  H   UNL     1      42.830   2.291  10.261  0.00  0.00    +0.000 HD
ENDBRANCH   7   9
ENDBRANCH   1   2
BRANCH   1  16
ATOM     16  O   UNL     1      47.714   4.920  16.294  0.00  0.00    +0.000 OA
BRANCH  16  22
ATOM     17  C   UNL     1      50.057   4.795  17.177  0.00  0.00    +0.000 A 
ATOM     18  C   UNL     1      51.103   3.936  17.531  0.00  0.00    +0.000 A 
ATOM     19  C   UNL     1      50.965   2.541  17.443  0.00  0.00    +0.000 A 
ATOM     20  C   UNL     1      49.759   2.005  16.989  0.00  0.00    +0.000 A 
ATOM     21  C   UNL     1      48.712   2.855  16.621  0.00  0.00    +0.000 A 
ATOM     22  C   UNL     1      48.845   4.250  16.707  0.00  0.00    +0.000 A 
BRANCH  19  23
ATOM     23  C   UNL     1      52.133   1.717  17.862  0.00  0.00    +0.000 C 
ATOM     24  N   UNL     1      51.945   0.390  18.121  0.00  0.00    +0.000 N 
ATOM     25  O   UNL     1      53.252   2.206  17.983  0.00  0.00    +0.000 OA
ATOM     26  H   UNL     1      51.066  -0.094  18.083  0.00  0.00    +0.000 HD
ATOM     27  H   UNL     1      52.758  -0.133  18.419  0.00  0.00    +0.000 HD
ENDBRANCH  19  23
BRANCH  17  29
ATOM     28  C   UNL     1      50.639   6.935  16.261  0.00  0.00    +0.000 C 
ATOM     29  O   UNL     1      50.149   6.151  17.341  0.00  0.00    +0.000 OA
ENDBRANCH  17  29
ENDBRANCH  16  22
ENDBRANCH   1  16
TORSDOF 6
ENDMDL
MODEL 5
REMARK VINA RESULT:    -6.911      5.126      8.773
REMARK INTER + INTRA:          -9.735
REMARK INTER:                  -9.425
REMARK INTRA:                  -0.310
REMARK UNBOUND:                -0.400
REMARK  Name = 
REMARK  7 active torsions:
REMARK  status: ('A' for Active; 'I' for Inactive)
REMARK    1  A    between atoms: C_1  and  O_2
REMARK    2  A    between atoms: O_2  and  C_3
REMARK    3  A    between atoms: C_5  and  C_6
REMARK    4  A    between atoms: C_11  and  O_12
REMARK    5  A    between atoms: O_12  and  C_13
REMARK    6  A    between atoms: C_13  and  C_14
REMARK    7  A    between atoms: C_19  and  C_20
REMARK                            x       y       z     vdW  Elec       q    Type
REMARK                         _______ _______ _______ _____ _____    ______ ____
ROOT
ATOM      1  C   UNL     1      47.152   4.658  14.994  0.00  0.00    +0.000 C 
ENDROOT
BRANCH   1   2
ATOM      2  C   UNL     1      46.765   5.262  13.665  0.00  0.00    +0.000 A 
ATOM      3  C   UNL     1      47.700   6.107  13.050  0.00  0.00    +0.000 A 
ATOM      4  C   UNL     1      47.401   6.699  11.839  0.00  0.00    +0.000 A 
ATOM      5  F   UNL     1      48.294   7.517  11.265  0.00  0.00    +0.000 F 
ATOM      6  C   UNL     1      46.194   6.447  11.199  0.00  0.00    +0.000 A 
ATOM      7  C   UNL     1      45.263   5.553  11.750  0.00  0.00    +0.000 A 
ATOM      8  C   UNL     1      45.552   5.001  13.015  0.00  0.00    +0.000 A 
BRANCH   7   9
ATOM      9  C   UNL     1      43.969   5.154  11.041  0.00  0.00    +0.000 C 
ATOM     10  C   UNL     1      43.041   4.327  11.958  0.00  0.00    +0.000 C 
ATOM     11  C   UNL     1      43.542   2.892  12.126  0.00  0.00    +0.000 C 
ATOM     12  N   UNL     1      43.648   2.205  10.837  0.00  0.00    +0.000 NA
ATOM     13  C   UNL     1      44.545   2.917   9.927  0.00  0.00    +0.000 C 
ATOM     14  C   UNL     1      44.130   4.378   9.716  0.00  0.00    +0.000 C 
ATOM     15  H   UNL     1      42.724   2.140  10.413  0.00  0.00    +0.000 HD
ENDBRANCH   7   9
ENDBRANCH   1   2
BRANCH   1  16
ATOM     16  O   UNL     1      48.401   5.116  15.504  0.00  0.00    +0.000 OA
BRANCH  16  22
ATOM     17  C   UNL     1      48.769   6.344  17.658  0.00  0.00    +0.000 A 
ATOM     18  C   UNL     1      48.858   6.214  19.049  0.00  0.00    +0.000 A 
ATOM     19  C   UNL     1      48.678   4.974  19.681  0.00  0.00    +0.000 A 
ATOM     20  C   UNL     1      48.406   3.847  18.903  0.00  0.00    +0.000 A 
ATOM     21  C   UNL     1      48.327   3.963  17.512  0.00  0.00    +0.000 A 
ATOM     22  C   UNL     1      48.508   5.201  16.875  0.00  0.00    +0.000 A 
BRANCH  19  23
ATOM     23  C   UNL     1      48.775   4.950  21.168  0.00  0.00    +0.000 C 
ATOM     24  N   UNL     1      47.626   4.962  21.904  0.00  0.00    +0.000 N 
ATOM     25  O   UNL     1      49.861   4.925  21.738  0.00  0.00    +0.000 OA
ATOM     26  H   UNL     1      46.695   5.014  21.533  0.00  0.00    +0.000 HD
ATOM     27  H   UNL     1      47.733   4.961  22.910  0.00  0.00    +0.000 HD
ENDBRANCH  19  23
BRANCH  17  29
ATOM     28  C   UNL     1      48.272   8.690  17.675  0.00  0.00    +0.000 C 
ATOM     29  O   UNL     1      48.856   7.561  17.039  0.00  0.00    +0.000 OA
ENDBRANCH  17  29
ENDBRANCH  16  22
ENDBRANCH   1  16
TORSDOF 6
ENDMDL
MODEL 6
REMARK VINA RESULT:    -6.840      4.811      8.195
REMARK INTER + INTRA:          -9.639
REMARK INTER:                  -8.751
REMARK INTRA:                  -0.888
REMARK UNBOUND:                -0.400
REMARK  Name = 
REMARK  7 active torsions:
REMARK  status: ('A' for Active; 'I' for Inactive)
REMARK    1  A    between atoms: C_1  and  O_2
REMARK    2  A    between atoms: O_2  and  C_3
REMARK    3  A    between atoms: C_5  and  C_6
REMARK    4  A    between atoms: C_11  and  O_12
REMARK    5  A    between atoms: O_12  and  C_13
REMARK    6  A    between atoms: C_13  and  C_14
REMARK    7  A    between atoms: C_19  and  C_20
REMARK                            x       y       z     vdW  Elec       q    Type
REMARK                         _______ _______ _______ _____ _____    ______ ____
ROOT
ATOM      1  C   UNL     1      48.514   7.053  14.206  0.00  0.00    +0.000 C 
ENDROOT
BRANCH   1   2
ATOM      2  C   UNL     1      47.268   7.172  13.361  0.00  0.00    +0.000 A 
ATOM      3  C   UNL     1      46.615   8.413  13.356  0.00  0.00    +0.000 A 
ATOM      4  C   UNL     1      45.464   8.583  12.612  0.00  0.00    +0.000 A 
ATOM      5  F   UNL     1      44.838   9.768  12.626  0.00  0.00    +0.000 F 
ATOM      6  C   UNL     1      44.955   7.549  11.838  0.00  0.00    +0.000 A 
ATOM      7  C   UNL     1      45.620   6.315  11.762  0.00  0.00    +0.000 A 
ATOM      8  C   UNL     1      46.760   6.133  12.572  0.00  0.00    +0.000 A 
BRANCH   7   9
ATOM      9  C   UNL     1      45.169   5.179  10.844  0.00  0.00    +0.000 C 
ATOM     10  C   UNL     1      43.695   5.340  10.408  0.00  0.00    +0.000 C 
ATOM     11  C   UNL     1      42.728   4.984  11.537  0.00  0.00    +0.000 C 
ATOM     12  N   UNL     1      42.923   3.608  11.999  0.00  0.00    +0.000 NA
ATOM     13  C   UNL     1      44.295   3.393  12.463  0.00  0.00    +0.000 C 
ATOM     14  C   UNL     1      45.338   3.748  11.397  0.00  0.00    +0.000 C 
ATOM     15  H   UNL     1      42.725   2.965  11.234  0.00  0.00    +0.000 HD
ENDBRANCH   7   9
ENDBRANCH   1   2
BRANCH   1  16
ATOM     16  O   UNL     1      48.678   5.783  14.831  0.00  0.00    +0.000 OA
BRANCH  16  22
ATOM     17  C   UNL     1      47.758   4.666  16.878  0.00  0.00    +0.000 A 
ATOM     18  C   UNL     1      47.520   4.806  18.250  0.00  0.00    +0.000 A 
ATOM     19  C   UNL     1      47.896   5.969  18.942  0.00  0.00    +0.000 A 
ATOM     20  C   UNL     1      48.518   7.004  18.244  0.00  0.00    +0.000 A 
ATOM     21  C   UNL     1      48.751   6.879  16.871  0.00  0.00    +0.000 A 
ATOM     22  C   UNL     1      48.376   5.719  16.174  0.00  0.00    +0.000 A 
BRANCH  19  23
ATOM     23  C   UNL     1      47.612   6.008  20.404  0.00  0.00    +0.000 C 
ATOM     24  N   UNL     1      47.725   4.858  21.129  0.00  0.00    +0.000 N 
ATOM     25  O   UNL     1      47.277   7.048  20.963  0.00  0.00    +0.000 OA
ATOM     26  H   UNL     1      47.960   3.954  20.759  0.00  0.00    +0.000 HD
ATOM     27  H   UNL     1      47.509   4.921  22.116  0.00  0.00    +0.000 HD
ENDBRANCH  19  23
BRANCH  17  29
ATOM     28  C   UNL     1      48.324   2.382  16.413  0.00  0.00    +0.000 C 
ATOM     29  O   UNL     1      47.476   3.504  16.211  0.00  0.00    +0.000 OA
ENDBRANCH  17  29
ENDBRANCH  16  22
ENDBRANCH   1  16
TORSDOF 6
ENDMDL
MODEL 7
REMARK VINA RESULT:    -6.816      4.618      6.261
REMARK INTER + INTRA:          -9.607
REMARK INTER:                  -8.844
REMARK INTRA:                  -0.763
REMARK UNBOUND:                -0.400
REMARK  Name = 
REMARK  7 active torsions:
REMARK  status: ('A' for Active; 'I' for Inactive)
REMARK    1  A    between atoms: C_1  and  O_2
REMARK    2  A    between atoms: O_2  and  C_3
REMARK    3  A    between atoms: C_5  and  C_6
REMARK    4  A    between atoms: C_11  and  O_12
REMARK    5  A    between atoms: O_12  and  C_13
REMARK    6  A    between atoms: C_13  and  C_14
REMARK    7  A    between atoms: C_19  and  C_20
REMARK                            x       y       z     vdW  Elec       q    Type
REMARK                         _______ _______ _______ _____ _____    ______ ____
ROOT
ATOM      1  C   UNL     1      48.681   7.208  14.031  0.00  0.00    +0.000 C 
ENDROOT
BRANCH   1   2
ATOM      2  C   UNL     1      48.882   7.278  15.526  0.00  0.00    +0.000 A 
ATOM      3  C   UNL     1      48.286   8.351  16.202  0.00  0.00    +0.000 A 
ATOM      4  C   UNL     1      48.443   8.477  17.569  0.00  0.00    +0.000 A 
ATOM      5  F   UNL     1      47.881   9.514  18.205  0.00  0.00    +0.000 F 
ATOM      6  C   UNL     1      49.160   7.536  18.295  0.00  0.00    +0.000 A 
ATOM      7  C   UNL     1      49.713   6.411  17.663  0.00  0.00    +0.000 A 
ATOM      8  C   UNL     1      49.598   6.323  16.260  0.00  0.00    +0.000 A 
BRANCH   7   9
ATOM      9  C   UNL     1      50.418   5.288  18.425  0.00  0.00    +0.000 C 
ATOM     10  C   UNL     1      49.905   3.894  18.001  0.00  0.00    +0.000 C 
ATOM     11  C   UNL     1      48.524   3.596  18.586  0.00  0.00    +0.000 C 
ATOM     12  N   UNL     1      48.534   3.658  20.048  0.00  0.00    +0.000 NA
ATOM     13  C   UNL     1      48.977   4.971  20.522  0.00  0.00    +0.000 C 
ATOM     14  C   UNL     1      50.351   5.363  19.964  0.00  0.00    +0.000 C 
ATOM     15  H   UNL     1      49.162   2.943  20.412  0.00  0.00    +0.000 HD
ENDBRANCH   7   9
ENDBRANCH   1   2
BRANCH   1  16
ATOM     16  O   UNL     1      48.502   5.888  13.525  0.00  0.00    +0.000 OA
BRANCH  16  22
ATOM     17  C   UNL     1      46.564   4.319  13.268  0.00  0.00    +0.000 A 
ATOM     18  C   UNL     1      45.264   4.177  12.770  0.00  0.00    +0.000 A 
ATOM     19  C   UNL     1      44.601   5.244  12.142  0.00  0.00    +0.000 A 
ATOM     20  C   UNL     1      45.257   6.469  12.012  0.00  0.00    +0.000 A 
ATOM     21  C   UNL     1      46.560   6.618  12.496  0.00  0.00    +0.000 A 
ATOM     22  C   UNL     1      47.227   5.554  13.123  0.00  0.00    +0.000 A 
BRANCH  19  23
ATOM     23  C   UNL     1      43.212   4.992  11.664  0.00  0.00    +0.000 C 
ATOM     24  N   UNL     1      42.287   5.989  11.770  0.00  0.00    +0.000 N 
ATOM     25  O   UNL     1      42.887   3.910  11.184  0.00  0.00    +0.000 OA
ATOM     26  H   UNL     1      42.447   6.894  12.175  0.00  0.00    +0.000 HD
ATOM     27  H   UNL     1      41.352   5.775  11.449  0.00  0.00    +0.000 HD
ENDBRANCH  19  23
BRANCH  17  29
ATOM     28  C   UNL     1      47.370   3.466  15.360  0.00  0.00    +0.000 C 
ATOM     29  O   UNL     1      47.186   3.314  13.959  0.00  0.00    +0.000 OA
ENDBRANCH  17  29
ENDBRANCH  16  22
ENDBRANCH   1  16
TORSDOF 6
ENDMDL
MODEL 8
REMARK VINA RESULT:    -6.592      4.145      6.399
REMARK INTER + INTRA:          -9.304
REMARK INTER:                  -8.726
REMARK INTRA:                  -0.578
REMARK UNBOUND:                -0.400
REMARK  Name = 
REMARK  7 active torsions:
REMARK  status: ('A' for Active; 'I' for Inactive)
REMARK    1  A    between atoms: C_1  and  O_2
REMARK    2  A    between atoms: O_2  and  C_3
REMARK    3  A    between atoms: C_5  and  C_6
REMARK    4  A    between atoms: C_11  and  O_12
REMARK    5  A    between atoms: O_12  and  C_13
REMARK    6  A    between atoms: C_13  and  C_14
REMARK    7  A    between atoms: C_19  and  C_20
REMARK                            x       y       z     vdW  Elec       q    Type
REMARK                         _______ _______ _______ _____ _____    ______ ____
ROOT
ATOM      1  C   UNL     1      48.567   8.052  14.622  0.00  0.00    +0.000 C 
ENDROOT
BRANCH   1   2
ATOM      2  C   UNL     1      49.500   7.224  15.472  0.00  0.00    +0.000 A 
ATOM      3  C   UNL     1      50.875   7.458  15.326  0.00  0.00    +0.000 A 
ATOM      4  C   UNL     1      51.781   6.725  16.068  0.00  0.00    +0.000 A 
ATOM      5  F   UNL     1      53.094   6.945  15.911  0.00  0.00    +0.000 F 
ATOM      6  C   UNL     1      51.351   5.776  16.986  0.00  0.00    +0.000 A 
ATOM      7  C   UNL     1      49.982   5.564  17.210  0.00  0.00    +0.000 A 
ATOM      8  C   UNL     1      49.066   6.274  16.405  0.00  0.00    +0.000 A 
BRANCH   7   9
ATOM      9  C   UNL     1      49.449   4.613  18.282  0.00  0.00    +0.000 C 
ATOM     10  C   UNL     1      49.344   3.162  17.764  0.00  0.00    +0.000 C 
ATOM     11  C   UNL     1      48.150   2.979  16.828  0.00  0.00    +0.000 C 
ATOM     12  N   UNL     1      46.890   3.324  17.489  0.00  0.00    +0.000 NA
ATOM     13  C   UNL     1      46.905   4.705  17.975  0.00  0.00    +0.000 C 
ATOM     14  C   UNL     1      48.089   4.986  18.908  0.00  0.00    +0.000 C 
ATOM     15  H   UNL     1      46.738   2.695  18.275  0.00  0.00    +0.000 HD
ENDBRANCH   7   9
ENDBRANCH   1   2
BRANCH   1  16
ATOM     16  O   UNL     1      48.301   7.499  13.336  0.00  0.00    +0.000 OA
BRANCH  16  22
ATOM     17  C   UNL     1      45.840   7.277  12.914  0.00  0.00    +0.000 A 
ATOM     18  C   UNL     1      44.766   6.381  12.845  0.00  0.00    +0.000 A 
ATOM     19  C   UNL     1      44.948   5.004  13.049  0.00  0.00    +0.000 A 
ATOM     20  C   UNL     1      46.228   4.521  13.327  0.00  0.00    +0.000 A 
ATOM     21  C   UNL     1      47.305   5.409  13.409  0.00  0.00    +0.000 A 
ATOM     22  C   UNL     1      47.128   6.787  13.207  0.00  0.00    +0.000 A 
BRANCH  19  23
ATOM     23  C   UNL     1      43.742   4.137  12.936  0.00  0.00    +0.000 C 
ATOM     24  N   UNL     1      43.906   2.810  12.663  0.00  0.00    +0.000 N 
ATOM     25  O   UNL     1      42.611   4.592  13.077  0.00  0.00    +0.000 OA
ATOM     26  H   UNL     1      44.785   2.352  12.499  0.00  0.00    +0.000 HD
ATOM     27  H   UNL     1      43.063   2.257  12.578  0.00  0.00    +0.000 HD
ENDBRANCH  19  23
BRANCH  17  29
ATOM     28  C   UNL     1      44.778   8.986  11.609  0.00  0.00    +0.000 C 
ATOM     29  O   UNL     1      45.690   8.608  12.632  0.00  0.00    +0.000 OA
ENDBRANCH  17  29
ENDBRANCH  16  22
ENDBRANCH   1  16
TORSDOF 6
ENDMDL
MODEL 9
REMARK VINA RESULT:    -6.553      4.090      6.270
REMARK INTER + INTRA:          -9.251
REMARK INTER:                  -8.408
REMARK INTRA:                  -0.843
REMARK UNBOUND:                -0.400
REMARK  Name = 
REMARK  7 active torsions:
REMARK  status: ('A' for Active; 'I' for Inactive)
REMARK    1  A    between atoms: C_1  and  O_2
REMARK    2  A    between atoms: O_2  and  C_3
REMARK    3  A    between atoms: C_5  and  C_6
REMARK    4  A    between atoms: C_11  and  O_12
REMARK    5  A    between atoms: O_12  and  C_13
REMARK    6  A    between atoms: C_13  and  C_14
REMARK    7  A    between atoms: C_19  and  C_20
REMARK                            x       y       z     vdW  Elec       q    Type
REMARK                         _______ _______ _______ _____ _____    ______ ____
ROOT
ATOM      1  C   UNL     1      47.083   3.775  15.881  0.00  0.00    +0.000 C 
ENDROOT
BRANCH   1   2
ATOM      2  C   UNL     1      48.431   3.737  16.559  0.00  0.00    +0.000 A 
ATOM      3  C   UNL     1      49.024   2.478  16.734  0.00  0.00    +0.000 A 
ATOM      4  C   UNL     1      50.252   2.376  17.358  0.00  0.00    +0.000 A 
ATOM      5  F   UNL     1      50.804   1.168  17.534  0.00  0.00    +0.000 F 
ATOM      6  C   UNL     1      50.930   3.508  17.791  0.00  0.00    +0.000 A 
ATOM      7  C   UNL     1      50.401   4.789  17.570  0.00  0.00    +0.000 A 
ATOM      8  C   UNL     1      49.120   4.879  16.987  0.00  0.00    +0.000 A 
BRANCH   7   9
ATOM      9  C   UNL     1      51.150   6.073  17.926  0.00  0.00    +0.000 C 
ATOM     10  C   UNL     1      50.667   7.274  17.082  0.00  0.00    +0.000 C 
ATOM     11  C   UNL     1      51.196   7.211  15.649  0.00  0.00    +0.000 C 
ATOM     12  N   UNL     1      52.660   7.184  15.617  0.00  0.00    +0.000 NA
ATOM     13  C   UNL     1      53.188   6.046  16.370  0.00  0.00    +0.000 C 
ATOM     14  C   UNL     1      52.688   6.017  17.820  0.00  0.00    +0.000 C 
ATOM     15  H   UNL     1      53.021   8.047  16.020  0.00  0.00    +0.000 HD
ENDBRANCH   7   9
ENDBRANCH   1   2
BRANCH   1  16
ATOM     16  O   UNL     1      47.138   3.666  14.461  0.00  0.00    +0.000 OA
BRANCH  16  22
ATOM     17  C   UNL     1      47.180   5.848  13.229  0.00  0.00    +0.000 A 
ATOM     18  C   UNL     1      46.406   6.789  12.541  0.00  0.00    +0.000 A 
ATOM     19  C   UNL     1      45.029   6.599  12.340  0.00  0.00    +0.000 A 
ATOM     20  C   UNL     1      44.423   5.446  12.842  0.00  0.00    +0.000 A 
ATOM     21  C   UNL     1      45.185   4.505  13.542  0.00  0.00    +0.000 A 
ATOM     22  C   UNL     1      46.561   4.692  13.745  0.00  0.00    +0.000 A 
BRANCH  19  23
ATOM     23  C   UNL     1      44.303   7.653  11.578  0.00  0.00    +0.000 C 
ATOM     24  N   UNL     1      43.064   7.371  11.080  0.00  0.00    +0.000 N 
ATOM     25  O   UNL     1      44.796   8.760  11.388  0.00  0.00    +0.000 OA
ATOM     26  H   UNL     1      42.592   6.488  11.155  0.00  0.00    +0.000 HD
ATOM     27  H   UNL     1      42.609   8.106  10.555  0.00  0.00    +0.000 HD
ENDBRANCH  19  23
BRANCH  17  29
ATOM     28  C   UNL     1      49.186   7.021  12.636  0.00  0.00    +0.000 C 
ATOM     29  O   UNL     1      48.536   5.981  13.355  0.00  0.00    +0.000 OA
ENDBRANCH  17  29
ENDBRANCH  16  22
ENDBRANCH   1  16
TORSDOF 6
ENDMDL
