MODEL 1
REMARK VINA RESULT:    -7.927      0.000      0.000
REMARK INTER + INTRA:         -11.615
REMARK INTER:                 -10.939
REMARK INTRA:                  -0.676
REMARK UNBOUND:                -0.676
REMARK  Name = 
REMARK  7 active torsions:
REMARK  status: ('A' for Active; 'I' for Inactive)
REMARK    1  A    between atoms: N_1  and  C_2
REMARK    2  A    between atoms: C_2  and  C_3
REMARK    3  A    between atoms: C_7  and  C_8
REMARK    4  A    between atoms: C_8  and  C_9
REMARK    5  A    between atoms: C_9  and  N_10
REMARK    6  A    between atoms: N_10  and  C_11
REMARK    7  A    between atoms: C_14  and  C_15
REMARK                            x       y       z     vdW  Elec       q    Type
REMARK                         _______ _______ _______ _____ _____    ______ ____
ROOT
ATOM      1  N   UNL     1      43.602   4.813   9.992  0.00  0.00    +0.000 N 
ATOM      2  H   UNL     1      43.272   5.613   9.451  0.00  0.00    +0.000 HD
ENDROOT
BRANCH   1   3
ATOM      3  C   UNL     1      44.500   4.048   9.223  0.00  0.00    +0.000 A 
ATOM      4  C   UNL     1      45.421   4.619   8.338  0.00  0.00    +0.000 A 
ATOM      5  C   UNL     1      46.339   3.826   7.639  0.00  0.00    +0.000 A 
ATOM      6  C   UNL     1      46.386   2.439   7.833  0.00  0.00    +0.000 A 
ATOM      7  C   UNL     1      45.505   1.856   8.745  0.00  0.00    +0.000 A 
ATOM      8  C   UNL     1      44.592   2.660   9.431  0.00  0.00    +0.000 A 
ATOM      9  F   UNL     1      43.755   2.071  10.300  0.00  0.00    +0.000 F 
BRANCH   6  10
ATOM     10  C   UNL     1      47.392   1.669   7.046  0.00  0.00    +0.000 C 
ATOM     11  N   UNL     1      48.438   2.342   6.483  0.00  0.00    +0.000 N 
ATOM     12  O   UNL     1      47.297   0.457   6.900  0.00  0.00    +0.000 OA
ATOM     13  H   UNL     1      48.600   3.333   6.539  0.00  0.00    +0.000 HD
ATOM     14  H   UNL     1      49.097   1.785   5.953  0.00  0.00    +0.000 HD
ENDBRANCH   6  10
ENDBRANCH   1   3
BRANCH   1  15
ATOM     15  C   UNL     1      44.010   5.162  11.357  0.00  0.00    +0.000 C 
BRANCH  15  16
ATOM     16  C   UNL     1      44.658   6.549  11.398  0.00  0.00    +0.000 C 
BRANCH  16  21
ATOM     17  C   UNL     1      47.266   5.547  14.010  0.00  0.00    +0.000 A 
ATOM     18  C   UNL     1      48.345   6.358  13.634  0.00  0.00    +0.000 A 
ATOM     19  C   UNL     1      48.220   7.250  12.568  0.00  0.00    +0.000 A 
ATOM     20  C   UNL     1      47.023   7.332  11.857  0.00  0.00    +0.000 A 
ATOM     21  C   UNL     1      45.936   6.521  12.205  0.00  0.00    +0.000 A 
ATOM     22  C   UNL     1      46.071   5.628  13.280  0.00  0.00    +0.000 A 
BRANCH  17  23
ATOM     23  C   UNL     1      47.396   4.574  15.153  0.00  0.00    +0.000 C 
BRANCH  23  24
ATOM     24  N   UNL     1      47.482   3.201  14.674  0.00  0.00    +0.000 NA
ATOM     25  H   UNL     1      48.329   3.094  14.119  0.00  0.00    +0.000 HD
ATOM     26  H   UNL     1      46.701   3.021  14.045  0.00  0.00    +0.000 HD
ENDBRANCH  23  24
ENDBRANCH  17  23
ENDBRANCH  16  21
ENDBRANCH  15  16
ENDBRANCH   1  15
TORSDOF 7
ENDMDL
MODEL 2
REMARK VINA RESULT:    -7.704      1.871      2.842
REMARK INTER + INTRA:         -11.307
REMARK INTER:                 -10.399
REMARK INTRA:                  -0.908
REMARK UNBOUND:                -0.676
REMARK  Name = 
REMARK  7 active torsions:
REMARK  status: ('A' for Active; 'I' for Inactive)
REMARK    1  A    between atoms: N_1  and  C_2
REMARK    2  A    between atoms: C_2  and  C_3
REMARK    3  A    between atoms: C_7  and  C_8
REMARK    4  A    between atoms: C_8  and  C_9
REMARK    5  A    between atoms: C_9  and  N_10
REMARK    6  A    between atoms: N_10  and  C_11
REMARK    7  A    between atoms: C_14  and  C_15
REMARK                            x       y       z     vdW  Elec       q    Type
REMARK                         _______ _______ _______ _____ _____    ______ ____
ROOT
ATOM      1  N   UNL     1      43.591   3.713  10.618  0.00  0.00    +0.000 N 
ATOM      2  H   UNL     1      43.452   4.724  10.600  0.00  0.00    +0.000 HD
ENDROOT
BRANCH   1   3
ATOM      3  C   UNL     1      44.572   3.345   9.678  0.00  0.00    +0.000 A 
ATOM      4  C   UNL     1      44.782   2.022   9.275  0.00  0.00    +0.000 A 
ATOM      5  C   UNL     1      45.725   1.707   8.290  0.00  0.00    +0.000 A 
ATOM      6  C   UNL     1      46.464   2.713   7.653  0.00  0.00    +0.000 A 
ATOM      7  C   UNL     1      46.238   4.043   8.009  0.00  0.00    +0.000 A 
ATOM      8  C   UNL     1      45.296   4.340   8.997  0.00  0.00    +0.000 A 
ATOM      9  F   UNL     1      45.102   5.629   9.321  0.00  0.00    +0.000 F 
BRANCH   6  10
ATOM     10  C   UNL     1      47.450   2.289   6.618  0.00  0.00    +0.000 C 
ATOM     11  N   UNL     1      47.577   3.041   5.485  0.00  0.00    +0.000 N 
ATOM     12  O   UNL     1      48.143   1.290   6.766  0.00  0.00    +0.000 OA
ATOM     13  H   UNL     1      47.052   3.871   5.268  0.00  0.00    +0.000 HD
ATOM     14  H   UNL     1      48.254   2.718   4.805  0.00  0.00    +0.000 HD
ENDBRANCH   6  10
ENDBRANCH   1   3
BRANCH   1  15
ATOM     15  C   UNL     1      43.717   3.167  11.973  0.00  0.00    +0.000 C 
BRANCH  15  16
ATOM     16  C   UNL     1      43.662   4.283  13.022  0.00  0.00    +0.000 C 
BRANCH  16  21
ATOM     17  C   UNL     1      45.856   7.365  12.467  0.00  0.00    +0.000 A 
ATOM     18  C   UNL     1      47.108   6.877  12.864  0.00  0.00    +0.000 A 
ATOM     19  C   UNL     1      47.250   5.551  13.273  0.00  0.00    +0.000 A 
ATOM     20  C   UNL     1      46.144   4.701  13.304  0.00  0.00    +0.000 A 
ATOM     21  C   UNL     1      44.881   5.172  12.925  0.00  0.00    +0.000 A 
ATOM     22  C   UNL     1      44.747   6.507  12.514  0.00  0.00    +0.000 A 
BRANCH  17  23
ATOM     23  C   UNL     1      45.691   8.799  12.033  0.00  0.00    +0.000 C 
BRANCH  23  24
ATOM     24  N   UNL     1      44.741   9.504  12.884  0.00  0.00    +0.000 NA
ATOM     25  H   UNL     1      45.082  10.448  13.054  0.00  0.00    +0.000 HD
ATOM     26  H   UNL     1      44.705   9.042  13.791  0.00  0.00    +0.000 HD
ENDBRANCH  23  24
ENDBRANCH  17  23
ENDBRANCH  16  21
ENDBRANCH  15  16
ENDBRANCH   1  15
TORSDOF 7
ENDMDL
MODEL 3
REMARK VINA RESULT:    -7.442      2.937      6.161
REMARK INTER + INTRA:         -10.946
REMARK INTER:                 -10.032
REMARK INTRA:                  -0.914
REMARK UNBOUND:                -0.676
REMARK  Name = 
REMARK  7 active torsions:
REMARK  status: ('A' for Active; 'I' for Inactive)
REMARK    1  A    between atoms: N_1  and  C_2
REMARK    2  A    between atoms: C_2  and  C_3
REMARK    3  A    between atoms: C_7  and  C_8
REMARK    4  A    between atoms: C_8  and  C_9
REMARK    5  A    between atoms: C_9  and  N_10
REMARK    6  A    between atoms: N_10  and  C_11
REMARK    7  A    between atoms: C_14  and  C_15
REMARK                            x       y       z     vdW  Elec       q    Type
REMARK                         _______ _______ _______ _____ _____    ______ ____
ROOT
ATOM      1  N   UNL     1      43.310   5.210  12.528  0.00  0.00    +0.000 N 
ATOM      2  H   UNL     1      42.946   4.619  13.276  0.00  0.00    +0.000 HD
ENDROOT
BRANCH   1   3
ATOM      3  C   UNL     1      44.640   5.578  12.809  0.00  0.00    +0.000 A 
ATOM      4  C   UNL     1      45.524   4.755  13.515  0.00  0.00    +0.000 A 
ATOM      5  C   UNL     1      46.857   5.132  13.718  0.00  0.00    +0.000 A 
ATOM      6  C   UNL     1      47.355   6.331  13.188  0.00  0.00    +0.000 A 
ATOM      7  C   UNL     1      46.500   7.144  12.443  0.00  0.00    +0.000 A 
ATOM      8  C   UNL     1      45.172   6.756  12.254  0.00  0.00    +0.000 A 
ATOM      9  F   UNL     1      44.372   7.561  11.535  0.00  0.00    +0.000 F 
BRANCH   6  10
ATOM     10  C   UNL     1      48.785   6.657  13.454  0.00  0.00    +0.000 C 
ATOM     11  N   UNL     1      49.587   6.996  12.403  0.00  0.00    +0.000 N 
ATOM     12  O   UNL     1      49.247   6.627  14.588  0.00  0.00    +0.000 OA
ATOM     13  H   UNL     1      49.305   7.042  11.438  0.00  0.00    +0.000 HD
ATOM     14  H   UNL     1      50.552   7.207  12.624  0.00  0.00    +0.000 HD
ENDBRANCH   6  10
ENDBRANCH   1   3
BRANCH   1  15
ATOM     15  C   UNL     1      43.021   4.695  11.186  0.00  0.00    +0.000 C 
BRANCH  15  16
ATOM     16  C   UNL     1      43.667   3.322  10.974  0.00  0.00    +0.000 C 
BRANCH  16  21
ATOM     17  C   UNL     1      46.082   2.189   8.235  0.00  0.00    +0.000 A 
ATOM     18  C   UNL     1      46.410   3.416   7.644  0.00  0.00    +0.000 A 
ATOM     19  C   UNL     1      45.884   4.606   8.149  0.00  0.00    +0.000 A 
ATOM     20  C   UNL     1      45.015   4.583   9.241  0.00  0.00    +0.000 A 
ATOM     21  C   UNL     1      44.663   3.367   9.838  0.00  0.00    +0.000 A 
ATOM     22  C   UNL     1      45.198   2.176   9.323  0.00  0.00    +0.000 A 
BRANCH  17  23
ATOM     23  C   UNL     1      46.638   0.899   7.689  0.00  0.00    +0.000 C 
BRANCH  23  24
ATOM     24  N   UNL     1      47.826   1.135   6.878  0.00  0.00    +0.000 NA
ATOM     25  H   UNL     1      48.629   0.702   7.330  0.00  0.00    +0.000 HD
ATOM     26  H   UNL     1      48.014   2.136   6.851  0.00  0.00    +0.000 HD
ENDBRANCH  23  24
ENDBRANCH  17  23
ENDBRANCH  16  21
ENDBRANCH  15  16
ENDBRANCH   1  15
TORSDOF 7
ENDMDL
MODEL 4
REMARK VINA RESULT:    -7.430      1.615      2.023
REMARK INTER + INTRA:         -10.929
REMARK INTER:                 -10.353
REMARK INTRA:                  -0.576
REMARK UNBOUND:                -0.676
REMARK  Name = 
REMARK  7 active torsions:
REMARK  status: ('A' for Active; 'I' for Inactive)
REMARK    1  A    between atoms: N_1  and  C_2
REMARK    2  A    between atoms: C_2  and  C_3
REMARK    3  A    between atoms: C_7  and  C_8
REMARK    4  A    between atoms: C_8  and  C_9
REMARK    5  A    between atoms: C_9  and  N_10
REMARK    6  A    between atoms: N_10  and  C_11
REMARK    7  A    between atoms: C_14  and  C_15
REMARK                            x       y       z     vdW  Elec       q    Type
REMARK                         _______ _______ _______ _____ _____    ______ ____
ROOT
ATOM      1  N   UNL     1      43.997   5.026  10.055  0.00  0.00    +0.000 N 
ATOM      2  H   UNL     1      43.645   5.804   9.497  0.00  0.00    +0.000 HD
ENDROOT
BRANCH   1   3
ATOM      3  C   UNL     1      44.778   4.172   9.254  0.00  0.00    +0.000 A 
ATOM      4  C   UNL     1      45.717   4.643   8.330  0.00  0.00    +0.000 A 
ATOM      5  C   UNL     1      46.518   3.759   7.598  0.00  0.00    +0.000 A 
ATOM      6  C   UNL     1      46.428   2.374   7.795  0.00  0.00    +0.000 A 
ATOM      7  C   UNL     1      45.529   1.887   8.744  0.00  0.00    +0.000 A 
ATOM      8  C   UNL     1      44.734   2.781   9.463  0.00  0.00    +0.000 A 
ATOM      9  F   UNL     1      43.875   2.283  10.368  0.00  0.00    +0.000 F 
BRANCH   6  10
ATOM     10  C   UNL     1      47.316   1.505   6.972  0.00  0.00    +0.000 C 
ATOM     11  N   UNL     1      48.450   2.044   6.437  0.00  0.00    +0.000 N 
ATOM     12  O   UNL     1      47.048   0.327   6.771  0.00  0.00    +0.000 OA
ATOM     13  H   UNL     1      48.752   2.998   6.537  0.00  0.00    +0.000 HD
ATOM     14  H   UNL     1      49.024   1.422   5.881  0.00  0.00    +0.000 HD
ENDBRANCH   6  10
ENDBRANCH   1   3
BRANCH   1  15
ATOM     15  C   UNL     1      44.558   5.443  11.344  0.00  0.00    +0.000 C 
BRANCH  15  16
ATOM     16  C   UNL     1      44.127   6.870  11.696  0.00  0.00    +0.000 C 
BRANCH  16  21
ATOM     17  C   UNL     1      47.755   8.027  12.042  0.00  0.00    +0.000 A 
ATOM     18  C   UNL     1      47.588   9.418  12.092  0.00  0.00    +0.000 A 
ATOM     19  C   UNL     1      46.310   9.977  12.052  0.00  0.00    +0.000 A 
ATOM     20  C   UNL     1      45.186   9.156  11.947  0.00  0.00    +0.000 A 
ATOM     21  C   UNL     1      45.331   7.765  11.881  0.00  0.00    +0.000 A 
ATOM     22  C   UNL     1      46.620   7.212  11.923  0.00  0.00    +0.000 A 
BRANCH  17  23
ATOM     23  C   UNL     1      49.132   7.416  12.075  0.00  0.00    +0.000 C 
BRANCH  23  24
ATOM     24  N   UNL     1      49.293   6.534  13.223  0.00  0.00    +0.000 NA
ATOM     25  H   UNL     1      48.909   5.619  12.998  0.00  0.00    +0.000 HD
ATOM     26  H   UNL     1      48.740   6.897  13.998  0.00  0.00    +0.000 HD
ENDBRANCH  23  24
ENDBRANCH  17  23
ENDBRANCH  16  21
ENDBRANCH  15  16
ENDBRANCH   1  15
TORSDOF 7
ENDMDL
MODEL 5
REMARK VINA RESULT:    -6.879      2.931      6.952
REMARK INTER + INTRA:         -10.169
REMARK INTER:                  -9.580
REMARK INTRA:                  -0.589
REMARK UNBOUND:                -0.676
REMARK  Name = 
REMARK  7 active torsions:
REMARK  status: ('A' for Active; 'I' for Inactive)
REMARK    1  A    between atoms: N_1  and  C_2
REMARK    2  A    between atoms: C_2  and  C_3
REMARK    3  A    between atoms: C_7  and  C_8
REMARK    4  A    between atoms: C_8  and  C_9
REMARK    5  A    between atoms: C_9  and  N_10
REMARK    6  A    between atoms: N_10  and  C_11
REMARK    7  A    between atoms: C_14  and  C_15
REMARK                            x       y       z     vdW  Elec       q    Type
REMARK                         _______ _______ _______ _____ _____    ______ ____
ROOT
ATOM      1  N   UNL     1      45.370   5.485  10.650  0.00  0.00    +0.000 N 
ATOM      2  H   UNL     1      45.221   6.483  10.502  0.00  0.00    +0.000 HD
ENDROOT
BRANCH   1   3
ATOM      3  C   UNL     1      45.885   5.260  11.941  0.00  0.00    +0.000 A 
ATOM      4  C   UNL     1      45.655   4.081  12.657  0.00  0.00    +0.000 A 
ATOM      5  C   UNL     1      46.238   3.873  13.913  0.00  0.00    +0.000 A 
ATOM      6  C   UNL     1      47.099   4.826  14.474  0.00  0.00    +0.000 A 
ATOM      7  C   UNL     1      47.377   5.989  13.755  0.00  0.00    +0.000 A 
ATOM      8  C   UNL     1      46.784   6.184  12.506  0.00  0.00    +0.000 A 
ATOM      9  F   UNL     1      47.067   7.314  11.838  0.00  0.00    +0.000 F 
BRANCH   6  10
ATOM     10  C   UNL     1      47.674   4.525  15.817  0.00  0.00    +0.000 C 
ATOM     11  N   UNL     1      47.034   3.624  16.618  0.00  0.00    +0.000 N 
ATOM     12  O   UNL     1      48.701   5.066  16.207  0.00  0.00    +0.000 OA
ATOM     13  H   UNL     1      46.184   3.134  16.392  0.00  0.00    +0.000 HD
ATOM     14  H   UNL     1      47.453   3.451  17.523  0.00  0.00    +0.000 HD
ENDBRANCH   6  10
ENDBRANCH   1   3
BRANCH   1  15
ATOM     15  C   UNL     1      44.238   4.657  10.222  0.00  0.00    +0.000 C 
BRANCH  15  16
ATOM     16  C   UNL     1      44.250   4.452   8.704  0.00  0.00    +0.000 C 
BRANCH  16  21
ATOM     17  C   UNL     1      47.134   2.409   7.244  0.00  0.00    +0.000 A 
ATOM     18  C   UNL     1      46.827   1.131   7.727  0.00  0.00    +0.000 A 
ATOM     19  C   UNL     1      45.676   0.922   8.489  0.00  0.00    +0.000 A 
ATOM     20  C   UNL     1      44.827   1.988   8.787  0.00  0.00    +0.000 A 
ATOM     21  C   UNL     1      45.122   3.277   8.327  0.00  0.00    +0.000 A 
ATOM     22  C   UNL     1      46.281   3.477   7.561  0.00  0.00    +0.000 A 
BRANCH  17  23
ATOM     23  C   UNL     1      48.380   2.646   6.430  0.00  0.00    +0.000 C 
BRANCH  23  24
ATOM     24  N   UNL     1      48.322   1.939   5.156  0.00  0.00    +0.000 NA
ATOM     25  H   UNL     1      49.246   1.575   4.935  0.00  0.00    +0.000 HD
ATOM     26  H   UNL     1      48.090   2.604   4.420  0.00  0.00    +0.000 HD
ENDBRANCH  23  24
ENDBRANCH  17  23
ENDBRANCH  16  21
ENDBRANCH  15  16
ENDBRANCH   1  15
TORSDOF 7
ENDMDL
MODEL 6
REMARK VINA RESULT:    -6.855      2.792      6.607
REMARK INTER + INTRA:         -10.136
REMARK INTER:                  -9.572
REMARK INTRA:                  -0.564
REMARK UNBOUND:                -0.676
REMARK  Name = 
REMARK  7 active torsions:
REMARK  status: ('A' for Active; 'I' for Inactive)
REMARK    1  A    between atoms: N_1  and  C_2
REMARK    2  A    between atoms: C_2  and  C_3
REMARK    3  A    between atoms: C_7  and  C_8
REMARK    4  A    between atoms: C_8  and  C_9
REMARK    5  A    between atoms: C_9  and  N_10
REMARK    6  A    between atoms: N_10  and  C_11
REMARK    7  A    between atoms: C_14  and  C_15
REMARK                            x       y       z     vdW  Elec       q    Type
REMARK                         _______ _______ _______ _____ _____    ______ ____
ROOT
ATOM      1  N   UNL     1      43.853   5.740  11.521  0.00  0.00    +0.000 N 
ATOM      2  H   UNL     1      43.142   5.518  12.219  0.00  0.00    +0.000 HD
ENDROOT
BRANCH   1   3
ATOM      3  C   UNL     1      45.090   5.974  12.152  0.00  0.00    +0.000 A 
ATOM      4  C   UNL     1      45.760   7.200  12.081  0.00  0.00    +0.000 A 
ATOM      5  C   UNL     1      46.957   7.411  12.775  0.00  0.00    +0.000 A 
ATOM      6  C   UNL     1      47.502   6.410  13.591  0.00  0.00    +0.000 A 
ATOM      7  C   UNL     1      46.825   5.196  13.711  0.00  0.00    +0.000 A 
ATOM      8  C   UNL     1      45.634   5.000  13.008  0.00  0.00    +0.000 A 
ATOM      9  F   UNL     1      45.006   3.820  13.140  0.00  0.00    +0.000 F 
BRANCH   6  10
ATOM     10  C   UNL     1      48.782   6.717  14.292  0.00  0.00    +0.000 C 
ATOM     11  N   UNL     1      49.621   7.646  13.748  0.00  0.00    +0.000 N 
ATOM     12  O   UNL     1      49.088   6.157  15.337  0.00  0.00    +0.000 OA
ATOM     13  H   UNL     1      49.464   8.154  12.894  0.00  0.00    +0.000 HD
ATOM     14  H   UNL     1      50.482   7.823  14.252  0.00  0.00    +0.000 HD
ENDBRANCH   6  10
ENDBRANCH   1   3
BRANCH   1  15
ATOM     15  C   UNL     1      43.843   4.830  10.372  0.00  0.00    +0.000 C 
BRANCH  15  16
ATOM     16  C   UNL     1      45.060   5.069   9.472  0.00  0.00    +0.000 C 
BRANCH  16  21
ATOM     17  C   UNL     1      46.659   2.679   6.951  0.00  0.00    +0.000 A 
ATOM     18  C   UNL     1      46.350   1.439   7.526  0.00  0.00    +0.000 A 
ATOM     19  C   UNL     1      45.599   1.373   8.700  0.00  0.00    +0.000 A 
ATOM     20  C   UNL     1      45.159   2.543   9.320  0.00  0.00    +0.000 A 
ATOM     21  C   UNL     1      45.469   3.793   8.771  0.00  0.00    +0.000 A 
ATOM     22  C   UNL     1      46.224   3.850   7.590  0.00  0.00    +0.000 A 
BRANCH  17  23
ATOM     23  C   UNL     1      47.479   2.760   5.689  0.00  0.00    +0.000 C 
BRANCH  23  24
ATOM     24  N   UNL     1      48.581   1.807   5.711  0.00  0.00    +0.000 NA
ATOM     25  H   UNL     1      49.135   1.918   4.865  0.00  0.00    +0.000 HD
ATOM     26  H   UNL     1      48.201   0.862   5.686  0.00  0.00    +0.000 HD
ENDBRANCH  23  24
ENDBRANCH  17  23
ENDBRANCH  16  21
ENDBRANCH  15  16
ENDBRANCH   1  15
TORSDOF 7
ENDMDL
MODEL 7
REMARK VINA RESULT:    -6.638      1.926      2.785
REMARK INTER + INTRA:          -9.836
REMARK INTER:                  -9.089
REMARK INTRA:                  -0.747
REMARK UNBOUND:                -0.676
REMARK  Name = 
REMARK  7 active torsions:
REMARK  status: ('A' for Active; 'I' for Inactive)
REMARK    1  A    between atoms: N_1  and  C_2
REMARK    2  A    between atoms: C_2  and  C_3
REMARK    3  A    between atoms: C_7  and  C_8
REMARK    4  A    between atoms: C_8  and  C_9
REMARK    5  A    between atoms: C_9  and  N_10
REMARK    6  A    between atoms: N_10  and  C_11
REMARK    7  A    between atoms: C_14  and  C_15
REMARK                            x       y       z     vdW  Elec       q    Type
REMARK                         _______ _______ _______ _____ _____    ______ ____
ROOT
ATOM      1  N   UNL     1      43.307   4.448  11.045  0.00  0.00    +0.000 N 
ATOM      2  H   UNL     1      42.325   4.308  10.806  0.00  0.00    +0.000 HD
ENDROOT
BRANCH   1   3
ATOM      3  C   UNL     1      44.129   3.958  10.012  0.00  0.00    +0.000 A 
ATOM      4  C   UNL     1      44.898   4.790   9.192  0.00  0.00    +0.000 A 
ATOM      5  C   UNL     1      45.750   4.258   8.218  0.00  0.00    +0.000 A 
ATOM      6  C   UNL     1      45.885   2.872   8.059  0.00  0.00    +0.000 A 
ATOM      7  C   UNL     1      45.161   2.025   8.897  0.00  0.00    +0.000 A 
ATOM      8  C   UNL     1      44.311   2.571   9.861  0.00  0.00    +0.000 A 
ATOM      9  F   UNL     1      43.623   1.731  10.652  0.00  0.00    +0.000 F 
BRANCH   6  10
ATOM     10  C   UNL     1      46.812   2.391   6.995  0.00  0.00    +0.000 C 
ATOM     11  N   UNL     1      47.569   1.280   7.238  0.00  0.00    +0.000 N 
ATOM     12  O   UNL     1      46.904   2.967   5.919  0.00  0.00    +0.000 OA
ATOM     13  H   UNL     1      47.571   0.743   8.088  0.00  0.00    +0.000 HD
ATOM     14  H   UNL     1      48.189   0.987   6.492  0.00  0.00    +0.000 HD
ENDBRANCH   6  10
ENDBRANCH   1   3
BRANCH   1  15
ATOM     15  C   UNL     1      43.594   5.792  11.557  0.00  0.00    +0.000 C 
BRANCH  15  16
ATOM     16  C   UNL     1      44.577   5.734  12.731  0.00  0.00    +0.000 C 
BRANCH  16  21
ATOM     17  C   UNL     1      46.645   8.896  12.143  0.00  0.00    +0.000 A 
ATOM     18  C   UNL     1      47.945   8.373  12.168  0.00  0.00    +0.000 A 
ATOM     19  C   UNL     1      48.151   7.003  12.337  0.00  0.00    +0.000 A 
ATOM     20  C   UNL     1      47.065   6.143  12.495  0.00  0.00    +0.000 A 
ATOM     21  C   UNL     1      45.758   6.646  12.488  0.00  0.00    +0.000 A 
ATOM     22  C   UNL     1      45.560   8.024  12.317  0.00  0.00    +0.000 A 
BRANCH  17  23
ATOM     23  C   UNL     1      46.414  10.376  11.972  0.00  0.00    +0.000 C 
BRANCH  23  24
ATOM     24  N   UNL     1      45.021  10.726  12.217  0.00  0.00    +0.000 NA
ATOM     25  H   UNL     1      44.534  10.796  11.326  0.00  0.00    +0.000 HD
ATOM     26  H   UNL     1      44.983  11.651  12.641  0.00  0.00    +0.000 HD
ENDBRANCH  23  24
ENDBRANCH  17  23
ENDBRANCH  16  21
ENDBRANCH  15  16
ENDBRANCH   1  15
TORSDOF 7
ENDMDL
MODEL 8
REMARK VINA RESULT:    -6.452      2.871      4.824
REMARK INTER + INTRA:          -9.580
REMARK INTER:                  -8.899
REMARK INTRA:                  -0.682
REMARK UNBOUND:                -0.676
REMARK  Name = 
REMARK  7 active torsions:
REMARK  status: ('A' for Active; 'I' for Inactive)
REMARK    1  A    between atoms: N_1  and  C_2
REMARK    2  A    between atoms: C_2  and  C_3
REMARK    3  A    between atoms: C_7  and  C_8
REMARK    4  A    between atoms: C_8  and  C_9
REMARK    5  A    between atoms: C_9  and  N_10
REMARK    6  A    between atoms: N_10  and  C_11
REMARK    7  A    between atoms: C_14  and  C_15
REMARK                            x       y       z     vdW  Elec       q    Type
REMARK                         _______ _______ _______ _____ _____    ______ ____
ROOT
ATOM      1  N   UNL     1      46.969   7.095  13.811  0.00  0.00    +0.000 N 
ATOM      2  H   UNL     1      46.809   8.088  13.635  0.00  0.00    +0.000 HD
ENDROOT
BRANCH   1   3
ATOM      3  C   UNL     1      46.274   6.320  12.864  0.00  0.00    +0.000 A 
ATOM      4  C   UNL     1      46.170   6.677  11.516  0.00  0.00    +0.000 A 
ATOM      5  C   UNL     1      45.523   5.845  10.594  0.00  0.00    +0.000 A 
ATOM      6  C   UNL     1      44.989   4.611  10.990  0.00  0.00    +0.000 A 
ATOM      7  C   UNL     1      45.121   4.216  12.321  0.00  0.00    +0.000 A 
ATOM      8  C   UNL     1      45.766   5.059  13.229  0.00  0.00    +0.000 A 
ATOM      9  F   UNL     1      45.875   4.654  14.505  0.00  0.00    +0.000 F 
BRANCH   6  10
ATOM     10  C   UNL     1      44.314   3.789   9.945  0.00  0.00    +0.000 C 
ATOM     11  N   UNL     1      44.145   4.321   8.699  0.00  0.00    +0.000 N 
ATOM     12  O   UNL     1      43.914   2.657  10.184  0.00  0.00    +0.000 OA
ATOM     13  H   UNL     1      44.431   5.240   8.407  0.00  0.00    +0.000 HD
ATOM     14  H   UNL     1      43.678   3.733   8.019  0.00  0.00    +0.000 HD
ENDBRANCH   6  10
ENDBRANCH   1   3
BRANCH   1  15
ATOM     15  C   UNL     1      48.378   6.767  14.048  0.00  0.00    +0.000 C 
BRANCH  15  16
ATOM     16  C   UNL     1      48.839   7.278  15.416  0.00  0.00    +0.000 C 
BRANCH  16  21
ATOM     17  C   UNL     1      48.862   3.946  17.293  0.00  0.00    +0.000 A 
ATOM     18  C   UNL     1      50.166   3.938  17.805  0.00  0.00    +0.000 A 
ATOM     19  C   UNL     1      51.021   5.017  17.578  0.00  0.00    +0.000 A 
ATOM     20  C   UNL     1      50.589   6.110  16.826  0.00  0.00    +0.000 A 
ATOM     21  C   UNL     1      49.295   6.133  16.292  0.00  0.00    +0.000 A 
ATOM     22  C   UNL     1      48.442   5.044  16.527  0.00  0.00    +0.000 A 
BRANCH  17  23
ATOM     23  C   UNL     1      47.937   2.780  17.525  0.00  0.00    +0.000 C 
BRANCH  23  24
ATOM     24  N   UNL     1      46.545   3.209  17.567  0.00  0.00    +0.000 NA
ATOM     25  H   UNL     1      46.019   2.576  18.165  0.00  0.00    +0.000 HD
ATOM     26  H   UNL     1      46.145   3.123  16.634  0.00  0.00    +0.000 HD
ENDBRANCH  23  24
ENDBRANCH  17  23
ENDBRANCH  16  21
ENDBRANCH  15  16
ENDBRANCH   1  15
TORSDOF 7
ENDMDL
MODEL 9
REMARK VINA RESULT:    -6.423      2.635      6.510
REMARK INTER + INTRA:          -9.540
REMARK INTER:                  -8.980
REMARK INTRA:                  -0.560
REMARK UNBOUND:                -0.676
REMARK  Name = 
REMARK  7 active torsions:
REMARK  status: ('A' for Active; 'I' for Inactive)
REMARK    1  A    between atoms: N_1  and  C_2
REMARK    2  A    between atoms: C_2  and  C_3
REMARK    3  A    between atoms: C_7  and  C_8
REMARK    4  A    between atoms: C_8  and  C_9
REMARK    5  A    between atoms: C_9  and  N_10
REMARK    6  A    between atoms: N_10  and  C_11
REMARK    7  A    between atoms: C_14  and  C_15
REMARK                            x       y       z     vdW  Elec       q    Type
REMARK                         _______ _______ _______ _____ _____    ______ ____
ROOT
ATOM      1  N   UNL     1      43.843   4.525  10.870  0.00  0.00    +0.000 N 
ATOM      2  H   UNL     1      43.086   4.192  11.467  0.00  0.00    +0.000 HD
ENDROOT
BRANCH   1   3
ATOM      3  C   UNL     1      44.930   4.947  11.659  0.00  0.00    +0.000 A 
ATOM      4  C   UNL     1      45.436   6.251  11.622  0.00  0.00    +0.000 A 
ATOM      5  C   UNL     1      46.477   6.647  12.469  0.00  0.00    +0.000 A 
ATOM      6  C   UNL     1      47.021   5.758  13.407  0.00  0.00    +0.000 A 
ATOM      7  C   UNL     1      46.499   4.466  13.491  0.00  0.00    +0.000 A 
ATOM      8  C   UNL     1      45.463   4.085  12.635  0.00  0.00    +0.000 A 
ATOM      9  F   UNL     1      44.983   2.835  12.736  0.00  0.00    +0.000 F 
BRANCH   6  10
ATOM     10  C   UNL     1      48.129   6.261  14.268  0.00  0.00    +0.000 C 
ATOM     11  N   UNL     1      48.031   6.105  15.621  0.00  0.00    +0.000 N 
ATOM     12  O   UNL     1      49.115   6.804  13.787  0.00  0.00    +0.000 OA
ATOM     13  H   UNL     1      47.262   5.680  16.110  0.00  0.00    +0.000 HD
ATOM     14  H   UNL     1      48.802   6.463  16.171  0.00  0.00    +0.000 HD
ENDBRANCH   6  10
ENDBRANCH   1   3
BRANCH   1  15
ATOM     15  C   UNL     1      44.134   3.629   9.746  0.00  0.00    +0.000 C 
BRANCH  15  16
ATOM     16  C   UNL     1      44.911   4.360   8.647  0.00  0.00    +0.000 C 
BRANCH  16  21
ATOM     17  C   UNL     1      46.647   1.134   7.551  0.00  0.00    +0.000 A 
ATOM     18  C   UNL     1      47.307   1.566   6.393  0.00  0.00    +0.000 A 
ATOM     19  C   UNL     1      47.222   2.899   5.989  0.00  0.00    +0.000 A 
ATOM     20  C   UNL     1      46.468   3.811   6.727  0.00  0.00    +0.000 A 
ATOM     21  C   UNL     1      45.789   3.398   7.879  0.00  0.00    +0.000 A 
ATOM     22  C   UNL     1      45.881   2.056   8.279  0.00  0.00    +0.000 A 
BRANCH  17  23
ATOM     23  C   UNL     1      46.725  -0.306   7.989  0.00  0.00    +0.000 C 
BRANCH  23  24
ATOM     24  N   UNL     1      46.565  -1.213   6.859  0.00  0.00    +0.000 NA
ATOM     25  H   UNL     1      47.368  -1.837   6.816  0.00  0.00    +0.000 HD
ATOM     26  H   UNL     1      46.574  -0.671   5.997  0.00  0.00    +0.000 HD
ENDBRANCH  23  24
ENDBRANCH  17  23
ENDBRANCH  16  21
ENDBRANCH  15  16
ENDBRANCH   1  15
TORSDOF 7
ENDMDL
