MODEL 1
REMARK VINA RESULT:    -7.078      0.000      0.000
REMARK INTER + INTRA:         -10.074
REMARK INTER:                  -9.147
REMARK INTRA:                  -0.927
REMARK UNBOUND:                -0.927
REMARK  Name = 
REMARK  5 active torsions:
REMARK  status: ('A' for Active; 'I' for Inactive)
REMARK    1  A    between atoms: C_2  and  C_4
REMARK    2  A    between atoms: C_8  and  S_9
REMARK    3  A    between atoms: S_9  and  C_10
REMARK    4  A    between atoms: C_10  and  C_11
REMARK    5  A    between atoms: C_16  and  C_17
REMARK                            x       y       z     vdW  Elec       q    Type
REMARK                         _______ _______ _______ _____ _____    ______ ____
ROOT
ATOM      1  C   UNL     1      47.767   7.051  12.891  0.00  0.00    +0.000 A 
ATOM      2  C   UNL     1      47.087   8.272  12.846  0.00  0.00    +0.000 A 
ATOM      3  C   UNL     1      45.702   8.285  12.746  0.00  0.00    +0.000 A 
ATOM      4  F   UNL     1      45.054   9.457  12.714  0.00  0.00    +0.000 F 
ATOM      5  C   UNL     1      44.970   7.102  12.760  0.00  0.00    +0.000 A 
ATOM      6  C   UNL     1      45.624   5.864  12.872  0.00  0.00    +0.000 A 
ATOM      7  C   UNL     1      47.023   5.860  12.836  0.00  0.00    +0.000 A 
ENDROOT
BRANCH   6   8
ATOM      8  C   UNL     1      44.796   4.623  13.199  0.00  0.00    +0.000 C 
ATOM      9  C   UNL     1      45.322   3.428  12.372  0.00  0.00    +0.000 C 
ATOM     10  C   UNL     1      44.872   3.516  10.912  0.00  0.00    +0.000 C 
ATOM     11  N   UNL     1      43.411   3.501  10.809  0.00  0.00    +0.000 NA
ATOM     12  C   UNL     1      42.811   4.617  11.537  0.00  0.00    +0.000 C 
ATOM     13  C   UNL     1      43.268   4.707  13.002  0.00  0.00    +0.000 C 
ATOM     14  H   UNL     1      43.062   2.624  11.194  0.00  0.00    +0.000 HD
ENDBRANCH   6   8
BRANCH   1  15
ATOM     15  C   UNL     1      49.257   6.994  13.140  0.00  0.00    +0.000 C 
BRANCH  15  16
ATOM     16  S   UNL     1      49.770   7.930  14.611  0.00  0.00    +0.000 S 
BRANCH  16  21
ATOM     17  C   UNL     1      48.523   5.134  17.243  0.00  0.00    +0.000 A 
ATOM     18  C   UNL     1      49.728   4.594  17.685  0.00  0.00    +0.000 A 
ATOM     19  C   UNL     1      50.895   5.126  17.171  0.00  0.00    +0.000 A 
ATOM     20  N   UNL     1      50.930   6.128  16.267  0.00  0.00    +0.000 NA
ATOM     21  C   UNL     1      49.751   6.628  15.834  0.00  0.00    +0.000 A 
ATOM     22  C   UNL     1      48.530   6.161  16.297  0.00  0.00    +0.000 A 
BRANCH  17  24
ATOM     23  N   UNL     1      46.546   5.360  18.656  0.00  0.00    +0.000 N 
ATOM     24  C   UNL     1      47.213   4.625  17.717  0.00  0.00    +0.000 C 
ATOM     25  O   UNL     1      46.725   3.600  17.259  0.00  0.00    +0.000 OA
ATOM     26  H   UNL     1      45.615   5.049  18.883  0.00  0.00    +0.000 HD
ATOM     27  H   UNL     1      46.781   6.317  18.868  0.00  0.00    +0.000 HD
ENDBRANCH  17  24
ENDBRANCH  16  21
ENDBRANCH  15  16
ENDBRANCH   1  15
TORSDOF 5
ENDMDL
MODEL 2
REMARK VINA RESULT:    -7.025      1.476      1.951
REMARK INTER + INTRA:         -10.005
REMARK INTER:                  -9.070
REMARK INTRA:                  -0.935
REMARK UNBOUND:                -0.927
REMARK  Name = 
REMARK  5 active torsions:
REMARK  status: ('A' for Active; 'I' for Inactive)
REMARK    1  A    between atoms: C_2  and  C_4
REMARK    2  A    between atoms: C_8  and  S_9
REMARK    3  A    between atoms: S_9  and  C_10
REMARK    4  A    between atoms: C_10  and  C_11
REMARK    5  A    between atoms: C_16  and  C_17
REMARK                            x       y       z     vdW  Elec       q    Type
REMARK                         _______ _______ _______ _____ _____    ______ ____
ROOT
ATOM      1  C   UNL     1      47.225   7.108  12.339  0.00  0.00    +0.000 A 
ATOM      2  C   UNL     1      46.636   8.335  12.660  0.00  0.00    +0.000 A 
ATOM      3  C   UNL     1      45.347   8.615  12.226  0.00  0.00    +0.000 A 
ATOM      4  F   UNL     1      44.783   9.787  12.546  0.00  0.00    +0.000 F 
ATOM      5  C   UNL     1      44.601   7.667  11.533  0.00  0.00    +0.000 A 
ATOM      6  C   UNL     1      45.144   6.402  11.254  0.00  0.00    +0.000 A 
ATOM      7  C   UNL     1      46.488   6.182  11.579  0.00  0.00    +0.000 A 
ENDROOT
BRANCH   6   8
ATOM      8  C   UNL     1      44.211   5.289  10.782  0.00  0.00    +0.000 C 
ATOM      9  C   UNL     1      42.936   5.288  11.656  0.00  0.00    +0.000 C 
ATOM     10  C   UNL     1      43.201   4.673  13.031  0.00  0.00    +0.000 C 
ATOM     11  N   UNL     1      43.641   3.282  12.910  0.00  0.00    +0.000 NA
ATOM     12  C   UNL     1      44.866   3.174  12.121  0.00  0.00    +0.000 C 
ATOM     13  C   UNL     1      44.768   3.851  10.745  0.00  0.00    +0.000 C 
ATOM     14  H   UNL     1      42.904   2.740  12.460  0.00  0.00    +0.000 HD
ENDBRANCH   6   8
BRANCH   1  15
ATOM     15  C   UNL     1      48.566   6.710  12.909  0.00  0.00    +0.000 C 
BRANCH  15  16
ATOM     16  S   UNL     1      49.170   7.860  14.180  0.00  0.00    +0.000 S 
BRANCH  16  21
ATOM     17  C   UNL     1      48.111   4.885  16.693  0.00  0.00    +0.000 A 
ATOM     18  C   UNL     1      48.196   5.510  17.935  0.00  0.00    +0.000 A 
ATOM     19  C   UNL     1      48.558   6.843  17.957  0.00  0.00    +0.000 A 
ATOM     20  N   UNL     1      48.838   7.564  16.850  0.00  0.00    +0.000 NA
ATOM     21  C   UNL     1      48.770   6.937  15.655  0.00  0.00    +0.000 A 
ATOM     22  C   UNL     1      48.410   5.603  15.533  0.00  0.00    +0.000 A 
BRANCH  17  24
ATOM     23  N   UNL     1      46.984   2.893  17.543  0.00  0.00    +0.000 N 
ATOM     24  C   UNL     1      47.748   3.453  16.558  0.00  0.00    +0.000 C 
ATOM     25  O   UNL     1      48.088   2.800  15.581  0.00  0.00    +0.000 OA
ATOM     26  H   UNL     1      46.666   1.952  17.377  0.00  0.00    +0.000 HD
ATOM     27  H   UNL     1      46.478   3.442  18.220  0.00  0.00    +0.000 HD
ENDBRANCH  17  24
ENDBRANCH  16  21
ENDBRANCH  15  16
ENDBRANCH   1  15
TORSDOF 5
ENDMDL
MODEL 3
REMARK VINA RESULT:    -6.901      1.680      2.241
REMARK INTER + INTRA:          -9.845
REMARK INTER:                  -9.154
REMARK INTRA:                  -0.691
REMARK UNBOUND:                -0.927
REMARK  Name = 
REMARK  5 active torsions:
REMARK  status: ('A' for Active; 'I' for Inactive)
REMARK    1  A    between atoms: C_2  and  C_4
REMARK    2  A    between atoms: C_8  and  S_9
REMARK    3  A    between atoms: S_9  and  C_10
REMARK    4  A    between atoms: C_10  and  C_11
REMARK    5  A    between atoms: C_16  and  C_17
REMARK                            x       y       z     vdW  Elec       q    Type
REMARK                         _______ _______ _______ _____ _____    ______ ____
ROOT
ATOM      1  C   UNL     1      47.249   7.074  12.492  0.00  0.00    +0.000 A 
ATOM      2  C   UNL     1      46.690   8.316  12.810  0.00  0.00    +0.000 A 
ATOM      3  C   UNL     1      45.424   8.641  12.341  0.00  0.00    +0.000 A 
ATOM      4  F   UNL     1      44.888   9.826  12.657  0.00  0.00    +0.000 F 
ATOM      5  C   UNL     1      44.669   7.724  11.616  0.00  0.00    +0.000 A 
ATOM      6  C   UNL     1      45.180   6.445  11.340  0.00  0.00    +0.000 A 
ATOM      7  C   UNL     1      46.506   6.180  11.701  0.00  0.00    +0.000 A 
ENDROOT
BRANCH   6   8
ATOM      8  C   UNL     1      44.227   5.368  10.827  0.00  0.00    +0.000 C 
ATOM      9  C   UNL     1      42.934   5.387  11.674  0.00  0.00    +0.000 C 
ATOM     10  C   UNL     1      43.153   4.740  13.043  0.00  0.00    +0.000 C 
ATOM     11  N   UNL     1      43.557   3.340  12.906  0.00  0.00    +0.000 NA
ATOM     12  C   UNL     1      44.795   3.212  12.141  0.00  0.00    +0.000 C 
ATOM     13  C   UNL     1      44.745   3.915  10.776  0.00  0.00    +0.000 C 
ATOM     14  H   UNL     1      42.815   2.827  12.431  0.00  0.00    +0.000 HD
ENDBRANCH   6   8
BRANCH   1  15
ATOM     15  C   UNL     1      48.560   6.628  13.098  0.00  0.00    +0.000 C 
BRANCH  15  16
ATOM     16  S   UNL     1      48.841   7.297  14.763  0.00  0.00    +0.000 S 
BRANCH  16  21
ATOM     17  C   UNL     1      48.222   4.813  17.884  0.00  0.00    +0.000 A 
ATOM     18  C   UNL     1      47.582   3.736  17.275  0.00  0.00    +0.000 A 
ATOM     19  C   UNL     1      47.378   3.801  15.910  0.00  0.00    +0.000 A 
ATOM     20  N   UNL     1      47.759   4.845  15.142  0.00  0.00    +0.000 NA
ATOM     21  C   UNL     1      48.362   5.890  15.752  0.00  0.00    +0.000 A 
ATOM     22  C   UNL     1      48.612   5.912  17.116  0.00  0.00    +0.000 A 
BRANCH  17  24
ATOM     23  N   UNL     1      48.526   3.663  20.016  0.00  0.00    +0.000 N 
ATOM     24  C   UNL     1      48.474   4.853  19.345  0.00  0.00    +0.000 C 
ATOM     25  O   UNL     1      48.664   5.911  19.930  0.00  0.00    +0.000 OA
ATOM     26  H   UNL     1      48.801   3.711  20.984  0.00  0.00    +0.000 HD
ATOM     27  H   UNL     1      48.629   2.776  19.547  0.00  0.00    +0.000 HD
ENDBRANCH  17  24
ENDBRANCH  16  21
ENDBRANCH  15  16
ENDBRANCH   1  15
TORSDOF 5
ENDMDL
MODEL 4
REMARK VINA RESULT:    -6.328      4.193      5.877
REMARK INTER + INTRA:          -9.104
REMARK INTER:                  -9.038
REMARK INTRA:                  -0.066
REMARK UNBOUND:                -0.927
REMARK  Name = 
REMARK  5 active torsions:
REMARK  status: ('A' for Active; 'I' for Inactive)
REMARK    1  A    between atoms: C_2  and  C_4
REMARK    2  A    between atoms: C_8  and  S_9
REMARK    3  A    between atoms: S_9  and  C_10
REMARK    4  A    between atoms: C_10  and  C_11
REMARK    5  A    between atoms: C_16  and  C_17
REMARK                            x       y       z     vdW  Elec       q    Type
REMARK                         _______ _______ _______ _____ _____    ______ ____
ROOT
ATOM      1  C   UNL     1      47.313   6.641  12.186  0.00  0.00    +0.000 A 
ATOM      2  C   UNL     1      47.515   5.798  13.283  0.00  0.00    +0.000 A 
ATOM      3  C   UNL     1      46.554   4.851  13.611  0.00  0.00    +0.000 A 
ATOM      4  F   UNL     1      46.756   4.039  14.656  0.00  0.00    +0.000 F 
ATOM      5  C   UNL     1      45.421   4.677  12.822  0.00  0.00    +0.000 A 
ATOM      6  C   UNL     1      45.225   5.465  11.676  0.00  0.00    +0.000 A 
ATOM      7  C   UNL     1      46.132   6.503  11.436  0.00  0.00    +0.000 A 
ENDROOT
BRANCH   6   8
ATOM      8  C   UNL     1      44.154   5.047  10.671  0.00  0.00    +0.000 C 
ATOM      9  C   UNL     1      43.026   4.294  11.413  0.00  0.00    +0.000 C 
ATOM     10  C   UNL     1      43.447   2.867  11.770  0.00  0.00    +0.000 C 
ATOM     11  N   UNL     1      43.762   2.093  10.568  0.00  0.00    +0.000 NA
ATOM     12  C   UNL     1      44.846   2.708   9.805  0.00  0.00    +0.000 C 
ATOM     13  C   UNL     1      44.594   4.186   9.468  0.00  0.00    +0.000 C 
ATOM     14  H   UNL     1      42.930   2.038   9.983  0.00  0.00    +0.000 HD
ENDBRANCH   6   8
BRANCH   1  15
ATOM     15  C   UNL     1      48.395   7.586  11.715  0.00  0.00    +0.000 C 
BRANCH  15  16
ATOM     16  S   UNL     1      48.528   9.083  12.736  0.00  0.00    +0.000 S 
BRANCH  16  21
ATOM     17  C   UNL     1      45.111  10.694  11.314  0.00  0.00    +0.000 A 
ATOM     18  C   UNL     1      45.581  11.807  10.621  0.00  0.00    +0.000 A 
ATOM     19  C   UNL     1      46.947  12.014  10.595  0.00  0.00    +0.000 A 
ATOM     20  N   UNL     1      47.842  11.208  11.205  0.00  0.00    +0.000 NA
ATOM     21  C   UNL     1      47.367  10.143  11.890  0.00  0.00    +0.000 A 
ATOM     22  C   UNL     1      46.013   9.852  11.967  0.00  0.00    +0.000 A 
BRANCH  17  24
ATOM     23  N   UNL     1      43.229   9.186  10.936  0.00  0.00    +0.000 N 
ATOM     24  C   UNL     1      43.663  10.389  11.420  0.00  0.00    +0.000 C 
ATOM     25  O   UNL     1      42.885  11.168  11.954  0.00  0.00    +0.000 OA
ATOM     26  H   UNL     1      42.263   8.960  11.113  0.00  0.00    +0.000 HD
ATOM     27  H   UNL     1      43.855   8.424  10.726  0.00  0.00    +0.000 HD
ENDBRANCH  17  24
ENDBRANCH  16  21
ENDBRANCH  15  16
ENDBRANCH   1  15
TORSDOF 5
ENDMDL
MODEL 5
REMARK VINA RESULT:    -6.081      3.140      7.100
REMARK INTER + INTRA:          -8.785
REMARK INTER:                  -8.298
REMARK INTRA:                  -0.487
REMARK UNBOUND:                -0.927
REMARK  Name = 
REMARK  5 active torsions:
REMARK  status: ('A' for Active; 'I' for Inactive)
REMARK    1  A    between atoms: C_2  and  C_4
REMARK    2  A    between atoms: C_8  and  S_9
REMARK    3  A    between atoms: S_9  and  C_10
REMARK    4  A    between atoms: C_10  and  C_11
REMARK    5  A    between atoms: C_16  and  C_17
REMARK                            x       y       z     vdW  Elec       q    Type
REMARK                         _______ _______ _______ _____ _____    ______ ____
ROOT
ATOM      1  C   UNL     1      48.472   6.484  14.405  0.00  0.00    +0.000 A 
ATOM      2  C   UNL     1      49.606   7.299  14.480  0.00  0.00    +0.000 A 
ATOM      3  C   UNL     1      50.311   7.389  15.672  0.00  0.00    +0.000 A 
ATOM      4  F   UNL     1      51.403   8.162  15.736  0.00  0.00    +0.000 F 
ATOM      5  C   UNL     1      49.951   6.627  16.779  0.00  0.00    +0.000 A 
ATOM      6  C   UNL     1      48.856   5.750  16.711  0.00  0.00    +0.000 A 
ATOM      7  C   UNL     1      48.075   5.770  15.549  0.00  0.00    +0.000 A 
ENDROOT
BRANCH   6   8
ATOM      8  C   UNL     1      48.677   4.710  17.815  0.00  0.00    +0.000 C 
ATOM      9  C   UNL     1      50.064   4.309  18.366  0.00  0.00    +0.000 C 
ATOM     10  C   UNL     1      50.797   3.369  17.406  0.00  0.00    +0.000 C 
ATOM     11  N   UNL     1      50.042   2.132  17.200  0.00  0.00    +0.000 NA
ATOM     12  C   UNL     1      48.716   2.400  16.648  0.00  0.00    +0.000 C 
ATOM     13  C   UNL     1      47.907   3.418  17.467  0.00  0.00    +0.000 C 
ATOM     14  H   UNL     1      49.942   1.653  18.094  0.00  0.00    +0.000 HD
ENDBRANCH   6   8
BRANCH   1  15
ATOM     15  C   UNL     1      47.762   6.250  13.092  0.00  0.00    +0.000 C 
BRANCH  15  16
ATOM     16  S   UNL     1      46.273   7.273  12.895  0.00  0.00    +0.000 S 
BRANCH  16  21
ATOM     17  C   UNL     1      44.687   4.754  10.169  0.00  0.00    +0.000 A 
ATOM     18  C   UNL     1      43.558   4.280  10.834  0.00  0.00    +0.000 A 
ATOM     19  C   UNL     1      43.309   4.771  12.101  0.00  0.00    +0.000 A 
ATOM     20  N   UNL     1      44.096   5.673  12.726  0.00  0.00    +0.000 NA
ATOM     21  C   UNL     1      45.197   6.108  12.074  0.00  0.00    +0.000 A 
ATOM     22  C   UNL     1      45.526   5.676  10.798  0.00  0.00    +0.000 A 
BRANCH  17  24
ATOM     23  N   UNL     1      44.288   3.299   8.249  0.00  0.00    +0.000 N 
ATOM     24  C   UNL     1      45.057   4.279   8.813  0.00  0.00    +0.000 C 
ATOM     25  O   UNL     1      45.996   4.770   8.201  0.00  0.00    +0.000 OA
ATOM     26  H   UNL     1      44.497   3.069   7.291  0.00  0.00    +0.000 HD
ATOM     27  H   UNL     1      43.376   3.051   8.599  0.00  0.00    +0.000 HD
ENDBRANCH  17  24
ENDBRANCH  16  21
ENDBRANCH  15  16
ENDBRANCH   1  15
TORSDOF 5
ENDMDL
MODEL 6
REMARK VINA RESULT:    -5.893      2.414      6.470
REMARK INTER + INTRA:          -8.542
REMARK INTER:                  -7.724
REMARK INTRA:                  -0.818
REMARK UNBOUND:                -0.927
REMARK  Name = 
REMARK  5 active torsions:
REMARK  status: ('A' for Active; 'I' for Inactive)
REMARK    1  A    between atoms: C_2  and  C_4
REMARK    2  A    between atoms: C_8  and  S_9
REMARK    3  A    between atoms: S_9  and  C_10
REMARK    4  A    between atoms: C_10  and  C_11
REMARK    5  A    between atoms: C_16  and  C_17
REMARK                            x       y       z     vdW  Elec       q    Type
REMARK                         _______ _______ _______ _____ _____    ______ ____
ROOT
ATOM      1  C   UNL     1      48.918   7.309  15.270  0.00  0.00    +0.000 A 
ATOM      2  C   UNL     1      48.505   8.492  15.892  0.00  0.00    +0.000 A 
ATOM      3  C   UNL     1      48.494   8.573  17.278  0.00  0.00    +0.000 A 
ATOM      4  F   UNL     1      48.109   9.711  17.869  0.00  0.00    +0.000 F 
ATOM      5  C   UNL     1      48.955   7.520  18.063  0.00  0.00    +0.000 A 
ATOM      6  C   UNL     1      49.437   6.345  17.462  0.00  0.00    +0.000 A 
ATOM      7  C   UNL     1      49.317   6.226  16.073  0.00  0.00    +0.000 A 
ENDROOT
BRANCH   6   8
ATOM      8  C   UNL     1      50.217   5.350  18.318  0.00  0.00    +0.000 C 
ATOM      9  C   UNL     1      49.985   3.921  17.776  0.00  0.00    +0.000 C 
ATOM     10  C   UNL     1      48.604   3.391  18.168  0.00  0.00    +0.000 C 
ATOM     11  N   UNL     1      48.457   3.329  19.623  0.00  0.00    +0.000 NA
ATOM     12  C   UNL     1      48.628   4.644  20.236  0.00  0.00    +0.000 C 
ATOM     13  C   UNL     1      49.940   5.337  19.837  0.00  0.00    +0.000 C 
ATOM     14  H   UNL     1      49.156   2.689  19.999  0.00  0.00    +0.000 HD
ENDBRANCH   6   8
BRANCH   1  15
ATOM     15  C   UNL     1      49.078   7.228  13.769  0.00  0.00    +0.000 C 
BRANCH  15  16
ATOM     16  S   UNL     1      47.948   8.334  12.872  0.00  0.00    +0.000 S 
BRANCH  16  21
ATOM     17  C   UNL     1      45.762   4.961  12.501  0.00  0.00    +0.000 A 
ATOM     18  C   UNL     1      44.623   5.423  11.847  0.00  0.00    +0.000 A 
ATOM     19  C   UNL     1      44.574   6.765  11.519  0.00  0.00    +0.000 A 
ATOM     20  N   UNL     1      45.559   7.644  11.802  0.00  0.00    +0.000 NA
ATOM     21  C   UNL     1      46.649   7.182  12.455  0.00  0.00    +0.000 A 
ATOM     22  C   UNL     1      46.789   5.852  12.819  0.00  0.00    +0.000 A 
BRANCH  17  24
ATOM     23  N   UNL     1      44.971   2.651  12.475  0.00  0.00    +0.000 N 
ATOM     24  C   UNL     1      45.910   3.544  12.914  0.00  0.00    +0.000 C 
ATOM     25  O   UNL     1      46.857   3.174  13.594  0.00  0.00    +0.000 OA
ATOM     26  H   UNL     1      45.151   1.682  12.682  0.00  0.00    +0.000 HD
ATOM     27  H   UNL     1      44.334   2.855  11.722  0.00  0.00    +0.000 HD
ENDBRANCH  17  24
ENDBRANCH  16  21
ENDBRANCH  15  16
ENDBRANCH   1  15
TORSDOF 5
ENDMDL
MODEL 7
REMARK VINA RESULT:    -5.735      2.912      6.783
REMARK INTER + INTRA:          -8.338
REMARK INTER:                  -7.681
REMARK INTRA:                  -0.656
REMARK UNBOUND:                -0.927
REMARK  Name = 
REMARK  5 active torsions:
REMARK  status: ('A' for Active; 'I' for Inactive)
REMARK    1  A    between atoms: C_2  and  C_4
REMARK    2  A    between atoms: C_8  and  S_9
REMARK    3  A    between atoms: S_9  and  C_10
REMARK    4  A    between atoms: C_10  and  C_11
REMARK    5  A    between atoms: C_16  and  C_17
REMARK                            x       y       z     vdW  Elec       q    Type
REMARK                         _______ _______ _______ _____ _____    ______ ____
ROOT
ATOM      1  C   UNL     1      48.897   7.303  15.642  0.00  0.00    +0.000 A 
ATOM      2  C   UNL     1      48.597   8.501  16.299  0.00  0.00    +0.000 A 
ATOM      3  C   UNL     1      48.671   8.564  17.684  0.00  0.00    +0.000 A 
ATOM      4  F   UNL     1      48.394   9.716  18.307  0.00  0.00    +0.000 F 
ATOM      5  C   UNL     1      49.106   7.473  18.430  0.00  0.00    +0.000 A 
ATOM      6  C   UNL     1      49.477   6.278  17.791  0.00  0.00    +0.000 A 
ATOM      7  C   UNL     1      49.270   6.186  16.410  0.00  0.00    +0.000 A 
ENDROOT
BRANCH   6   8
ATOM      8  C   UNL     1      50.239   5.223  18.590  0.00  0.00    +0.000 C 
ATOM      9  C   UNL     1      49.887   3.820  18.046  0.00  0.00    +0.000 C 
ATOM     10  C   UNL     1      48.500   3.371  18.508  0.00  0.00    +0.000 C 
ATOM     11  N   UNL     1      48.429   3.296  19.968  0.00  0.00    +0.000 NA
ATOM     12  C   UNL     1      48.717   4.589  20.586  0.00  0.00    +0.000 C 
ATOM     13  C   UNL     1      50.046   5.205  20.122  0.00  0.00    +0.000 C 
ATOM     14  H   UNL     1      49.107   2.609  20.297  0.00  0.00    +0.000 HD
ENDBRANCH   6   8
BRANCH   1  15
ATOM     15  C   UNL     1      48.965   7.232  14.134  0.00  0.00    +0.000 C 
BRANCH  15  16
ATOM     16  S   UNL     1      47.572   8.068  13.318  0.00  0.00    +0.000 S 
BRANCH  16  21
ATOM     17  C   UNL     1      44.393   5.807  12.284  0.00  0.00    +0.000 A 
ATOM     18  C   UNL     1      44.842   4.522  12.580  0.00  0.00    +0.000 A 
ATOM     19  C   UNL     1      46.110   4.395  13.112  0.00  0.00    +0.000 A 
ATOM     20  N   UNL     1      46.933   5.438  13.353  0.00  0.00    +0.000 NA
ATOM     21  C   UNL     1      46.489   6.676  13.042  0.00  0.00    +0.000 A 
ATOM     22  C   UNL     1      45.229   6.903  12.509  0.00  0.00    +0.000 A 
BRANCH  17  24
ATOM     23  N   UNL     1      42.845   7.254  11.072  0.00  0.00    +0.000 N 
ATOM     24  C   UNL     1      43.055   6.055  11.694  0.00  0.00    +0.000 C 
ATOM     25  O   UNL     1      42.176   5.204  11.727  0.00  0.00    +0.000 OA
ATOM     26  H   UNL     1      41.966   7.356  10.590  0.00  0.00    +0.000 HD
ATOM     27  H   UNL     1      43.598   7.868  10.801  0.00  0.00    +0.000 HD
ENDBRANCH  17  24
ENDBRANCH  16  21
ENDBRANCH  15  16
ENDBRANCH   1  15
TORSDOF 5
ENDMDL
MODEL 8
REMARK VINA RESULT:    -5.719      1.887      2.583
REMARK INTER + INTRA:          -8.317
REMARK INTER:                  -7.553
REMARK INTRA:                  -0.764
REMARK UNBOUND:                -0.927
REMARK  Name = 
REMARK  5 active torsions:
REMARK  status: ('A' for Active; 'I' for Inactive)
REMARK    1  A    between atoms: C_2  and  C_4
REMARK    2  A    between atoms: C_8  and  S_9
REMARK    3  A    between atoms: S_9  and  C_10
REMARK    4  A    between atoms: C_10  and  C_11
REMARK    5  A    between atoms: C_16  and  C_17
REMARK                            x       y       z     vdW  Elec       q    Type
REMARK                         _______ _______ _______ _____ _____    ______ ____
ROOT
ATOM      1  C   UNL     1      48.673   7.596  14.139  0.00  0.00    +0.000 A 
ATOM      2  C   UNL     1      49.704   7.771  13.212  0.00  0.00    +0.000 A 
ATOM      3  C   UNL     1      49.469   7.524  11.866  0.00  0.00    +0.000 A 
ATOM      4  F   UNL     1      50.457   7.704  10.980  0.00  0.00    +0.000 F 
ATOM      5  C   UNL     1      48.202   7.171  11.411  0.00  0.00    +0.000 A 
ATOM      6  C   UNL     1      47.132   7.053  12.313  0.00  0.00    +0.000 A 
ATOM      7  C   UNL     1      47.414   7.172  13.679  0.00  0.00    +0.000 A 
ENDROOT
BRANCH   6   8
ATOM      8  C   UNL     1      45.711   6.976  11.761  0.00  0.00    +0.000 C 
ATOM      9  C   UNL     1      44.752   6.519  12.883  0.00  0.00    +0.000 C 
ATOM     10  C   UNL     1      44.879   5.017  13.150  0.00  0.00    +0.000 C 
ATOM     11  N   UNL     1      44.546   4.239  11.955  0.00  0.00    +0.000 NA
ATOM     12  C   UNL     1      45.421   4.577  10.835  0.00  0.00    +0.000 C 
ATOM     13  C   UNL     1      45.466   6.081  10.527  0.00  0.00    +0.000 C 
ATOM     14  H   UNL     1      43.579   4.431  11.695  0.00  0.00    +0.000 HD
ENDBRANCH   6   8
BRANCH   1  15
ATOM     15  C   UNL     1      48.848   7.988  15.588  0.00  0.00    +0.000 C 
BRANCH  15  16
ATOM     16  S   UNL     1      50.488   7.566  16.248  0.00  0.00    +0.000 S 
BRANCH  16  21
ATOM     17  C   UNL     1      48.677   4.062  17.107  0.00  0.00    +0.000 A 
ATOM     18  C   UNL     1      49.730   3.309  17.619  0.00  0.00    +0.000 A 
ATOM     19  C   UNL     1      50.969   3.915  17.704  0.00  0.00    +0.000 A 
ATOM     20  N   UNL     1      51.212   5.186  17.315  0.00  0.00    +0.000 NA
ATOM     21  C   UNL     1      50.183   5.897  16.802  0.00  0.00    +0.000 A 
ATOM     22  C   UNL     1      48.904   5.374  16.683  0.00  0.00    +0.000 A 
BRANCH  17  24
ATOM     23  N   UNL     1      46.883   2.607  17.895  0.00  0.00    +0.000 N 
ATOM     24  C   UNL     1      47.312   3.503  16.956  0.00  0.00    +0.000 C 
ATOM     25  O   UNL     1      46.576   3.855  16.043  0.00  0.00    +0.000 OA
ATOM     26  H   UNL     1      45.919   2.322  17.829  0.00  0.00    +0.000 HD
ATOM     27  H   UNL     1      47.343   2.485  18.784  0.00  0.00    +0.000 HD
ENDBRANCH  17  24
ENDBRANCH  16  21
ENDBRANCH  15  16
ENDBRANCH   1  15
TORSDOF 5
ENDMDL
MODEL 9
REMARK VINA RESULT:    -5.661      2.763      6.895
REMARK INTER + INTRA:          -8.243
REMARK INTER:                  -7.668
REMARK INTRA:                  -0.575
REMARK UNBOUND:                -0.927
REMARK  Name = 
REMARK  5 active torsions:
REMARK  status: ('A' for Active; 'I' for Inactive)
REMARK    1  A    between atoms: C_2  and  C_4
REMARK    2  A    between atoms: C_8  and  S_9
REMARK    3  A    between atoms: S_9  and  C_10
REMARK    4  A    between atoms: C_10  and  C_11
REMARK    5  A    between atoms: C_16  and  C_17
REMARK                            x       y       z     vdW  Elec       q    Type
REMARK                         _______ _______ _______ _____ _____    ______ ____
ROOT
ATOM      1  C   UNL     1      47.827   7.041  13.869  0.00  0.00    +0.000 A 
ATOM      2  C   UNL     1      48.015   8.409  14.089  0.00  0.00    +0.000 A 
ATOM      3  C   UNL     1      48.518   8.848  15.306  0.00  0.00    +0.000 A 
ATOM      4  F   UNL     1      48.707  10.158  15.508  0.00  0.00    +0.000 F 
ATOM      5  C   UNL     1      48.905   7.944  16.291  0.00  0.00    +0.000 A 
ATOM      6  C   UNL     1      48.789   6.562  16.071  0.00  0.00    +0.000 A 
ATOM      7  C   UNL     1      48.157   6.139  14.896  0.00  0.00    +0.000 A 
ENDROOT
BRANCH   6   8
ATOM      8  C   UNL     1      49.503   5.604  17.022  0.00  0.00    +0.000 C 
ATOM      9  C   UNL     1      48.753   4.253  17.041  0.00  0.00    +0.000 C 
ATOM     10  C   UNL     1      47.467   4.338  17.867  0.00  0.00    +0.000 C 
ATOM     11  N   UNL     1      47.756   4.689  19.258  0.00  0.00    +0.000 NA
ATOM     12  C   UNL     1      48.443   5.976  19.354  0.00  0.00    +0.000 C 
ATOM     13  C   UNL     1      49.705   6.060  18.483  0.00  0.00    +0.000 C 
ATOM     14  H   UNL     1      48.344   3.964  19.667  0.00  0.00    +0.000 HD
ENDBRANCH   6   8
BRANCH   1  15
ATOM     15  C   UNL     1      47.416   6.515  12.513  0.00  0.00    +0.000 C 
BRANCH  15  16
ATOM     16  S   UNL     1      45.763   7.073  12.003  0.00  0.00    +0.000 S 
BRANCH  16  21
ATOM     17  C   UNL     1      44.447   3.559  10.515  0.00  0.00    +0.000 A 
ATOM     18  C   UNL     1      43.707   3.051  11.579  0.00  0.00    +0.000 A 
ATOM     19  C   UNL     1      43.619   3.822  12.722  0.00  0.00    +0.000 A 
ATOM     20  N   UNL     1      44.211   5.028  12.863  0.00  0.00    +0.000 NA
ATOM     21  C   UNL     1      44.941   5.497  11.827  0.00  0.00    +0.000 A 
ATOM     22  C   UNL     1      45.082   4.797  10.639  0.00  0.00    +0.000 A 
BRANCH  17  24
ATOM     23  N   UNL     1      45.062   3.493   8.153  0.00  0.00    +0.000 N 
ATOM     24  C   UNL     1      44.621   2.805   9.249  0.00  0.00    +0.000 C 
ATOM     25  O   UNL     1      44.412   1.601   9.191  0.00  0.00    +0.000 OA
ATOM     26  H   UNL     1      45.271   2.940   7.337  0.00  0.00    +0.000 HD
ATOM     27  H   UNL     1      45.482   4.408   8.215  0.00  0.00    +0.000 HD
ENDBRANCH  17  24
ENDBRANCH  16  21
ENDBRANCH  15  16
ENDBRANCH   1  15
TORSDOF 5
ENDMDL
