MODEL 1
REMARK VINA RESULT:    -7.961      0.000      0.000
REMARK INTER + INTRA:         -10.267
REMARK INTER:                  -9.590
REMARK INTRA:                  -0.677
REMARK UNBOUND:                -0.677
REMARK  Name = 
REMARK  4 active torsions:
REMARK  status: ('A' for Active; 'I' for Inactive)
REMARK    1  A    between atoms: O_1  and  C_2
REMARK    2  A    between atoms: C_2  and  C_3
REMARK    3  A    between atoms: C_7  and  O_8
REMARK    4  A    between atoms: O_8  and  C_9
REMARK                            x       y       z     vdW  Elec       q    Type
REMARK                         _______ _______ _______ _____ _____    ______ ____
ROOT
ATOM      1  C   UNL     1      45.357   5.606  12.247  0.00  0.00    +0.000 A 
ATOM      2  C   UNL     1      44.431   5.048  13.150  0.00  0.00    +0.000 A 
ATOM      3  C   UNL     1      43.401   4.213  12.715  0.00  0.00    +0.000 A 
ATOM      4  C   UNL     1      43.265   3.930  11.359  0.00  0.00    +0.000 A 
ATOM      5  C   UNL     1      44.122   4.528  10.435  0.00  0.00    +0.000 A 
ATOM      6  C   UNL     1      45.174   5.339  10.877  0.00  0.00    +0.000 A 
ENDROOT
BRANCH   1   7
ATOM      7  C   UNL     1      46.502   6.484  12.769  0.00  0.00    +0.000 C 
ATOM      8  C   UNL     1      47.447   6.904  11.623  0.00  0.00    +0.000 C 
ATOM      9  C   UNL     1      48.688   7.626  12.145  0.00  0.00    +0.000 C 
ATOM     10  N   UNL     1      49.396   6.810  13.131  0.00  0.00    +0.000 NA
ATOM     11  C   UNL     1      48.534   6.541  14.285  0.00  0.00    +0.000 C 
ATOM     12  C   UNL     1      47.289   5.758  13.875  0.00  0.00    +0.000 C 
ATOM     13  H   UNL     1      50.223   7.317  13.448  0.00  0.00    +0.000 HD
BRANCH   7  14
ATOM     14  O   UNL     1      45.973   7.690  13.348  0.00  0.00    +0.000 OA
ATOM     15  H   UNL     1      46.736   8.249  13.582  0.00  0.00    +0.000 HD
ENDBRANCH   7  14
ENDBRANCH   1   7
BRANCH   5  16
ATOM     16  O   UNL     1      44.034   4.299   9.079  0.00  0.00    +0.000 OA
BRANCH  16  17
ATOM     17  C   UNL     1      45.071   3.594   8.474  0.00  0.00    +0.000 A 
ATOM     18  C   UNL     1      45.168   2.246   8.786  0.00  0.00    +0.000 A 
ATOM     19  C   UNL     1      46.184   1.503   8.186  0.00  0.00    +0.000 A 
ATOM     20  C   UNL     1      47.061   2.133   7.309  0.00  0.00    +0.000 A 
ATOM     21  C   UNL     1      46.899   3.489   7.077  0.00  0.00    +0.000 A 
ATOM     22  N   UNL     1      45.931   4.233   7.649  0.00  0.00    +0.000 NA
ENDBRANCH  16  17
ENDBRANCH   5  16
TORSDOF 4
ENDMDL
MODEL 2
REMARK VINA RESULT:    -7.242      1.835      2.436
REMARK INTER + INTRA:          -9.400
REMARK INTER:                  -8.808
REMARK INTRA:                  -0.593
REMARK UNBOUND:                -0.677
REMARK  Name = 
REMARK  4 active torsions:
REMARK  status: ('A' for Active; 'I' for Inactive)
REMARK    1  A    between atoms: O_1  and  C_2
REMARK    2  A    between atoms: C_2  and  C_3
REMARK    3  A    between atoms: C_7  and  O_8
REMARK    4  A    between atoms: O_8  and  C_9
REMARK                            x       y       z     vdW  Elec       q    Type
REMARK                         _______ _______ _______ _____ _____    ______ ____
ROOT
ATOM      1  C   UNL     1      45.459   4.493  12.897  0.00  0.00    +0.000 A 
ATOM      2  C   UNL     1      44.370   5.360  13.115  0.00  0.00    +0.000 A 
ATOM      3  C   UNL     1      43.183   5.235  12.394  0.00  0.00    +0.000 A 
ATOM      4  C   UNL     1      43.063   4.246  11.423  0.00  0.00    +0.000 A 
ATOM      5  C   UNL     1      44.149   3.420  11.135  0.00  0.00    +0.000 A 
ATOM      6  C   UNL     1      45.328   3.526  11.882  0.00  0.00    +0.000 A 
ENDROOT
BRANCH   1   7
ATOM      7  C   UNL     1      46.732   4.634  13.742  0.00  0.00    +0.000 C 
ATOM      8  C   UNL     1      46.457   4.292  15.222  0.00  0.00    +0.000 C 
ATOM      9  C   UNL     1      47.662   4.598  16.109  0.00  0.00    +0.000 C 
ATOM     10  N   UNL     1      48.081   5.992  15.965  0.00  0.00    +0.000 NA
ATOM     11  C   UNL     1      48.482   6.266  14.583  0.00  0.00    +0.000 C 
ATOM     12  C   UNL     1      47.318   6.052  13.618  0.00  0.00    +0.000 C 
ATOM     13  H   UNL     1      48.879   6.163  16.579  0.00  0.00    +0.000 HD
BRANCH   7  14
ATOM     14  O   UNL     1      47.737   3.718  13.274  0.00  0.00    +0.000 OA
ATOM     15  H   UNL     1      48.569   4.220  13.211  0.00  0.00    +0.000 HD
ENDBRANCH   7  14
ENDBRANCH   1   7
BRANCH   5  16
ATOM     16  O   UNL     1      44.100   2.428  10.179  0.00  0.00    +0.000 OA
BRANCH  16  17
ATOM     17  C   UNL     1      45.016   2.493   9.134  0.00  0.00    +0.000 A 
ATOM     18  C   UNL     1      45.124   3.711   8.478  0.00  0.00    +0.000 A 
ATOM     19  C   UNL     1      46.043   3.818   7.437  0.00  0.00    +0.000 A 
ATOM     20  C   UNL     1      46.810   2.711   7.087  0.00  0.00    +0.000 A 
ATOM     21  C   UNL     1      46.615   1.531   7.784  0.00  0.00    +0.000 A 
ATOM     22  N   UNL     1      45.728   1.396   8.790  0.00  0.00    +0.000 NA
ENDBRANCH  16  17
ENDBRANCH   5  16
TORSDOF 4
ENDMDL
MODEL 3
REMARK VINA RESULT:    -6.810      1.948      2.410
REMARK INTER + INTRA:          -8.880
REMARK INTER:                  -8.384
REMARK INTRA:                  -0.497
REMARK UNBOUND:                -0.677
REMARK  Name = 
REMARK  4 active torsions:
REMARK  status: ('A' for Active; 'I' for Inactive)
REMARK    1  A    between atoms: O_1  and  C_2
REMARK    2  A    between atoms: C_2  and  C_3
REMARK    3  A    between atoms: C_7  and  O_8
REMARK    4  A    between atoms: O_8  and  C_9
REMARK                            x       y       z     vdW  Elec       q    Type
REMARK                         _______ _______ _______ _____ _____    ______ ____
ROOT
ATOM      1  C   UNL     1      46.131   6.873  12.541  0.00  0.00    +0.000 A 
ATOM      2  C   UNL     1      46.492   5.974  13.564  0.00  0.00    +0.000 A 
ATOM      3  C   UNL     1      46.204   4.612  13.472  0.00  0.00    +0.000 A 
ATOM      4  C   UNL     1      45.533   4.119  12.357  0.00  0.00    +0.000 A 
ATOM      5  C   UNL     1      45.100   4.997  11.363  0.00  0.00    +0.000 A 
ATOM      6  C   UNL     1      45.417   6.358  11.442  0.00  0.00    +0.000 A 
ENDROOT
BRANCH   1   7
ATOM      7  C   UNL     1      46.504   8.357  12.659  0.00  0.00    +0.000 C 
ATOM      8  C   UNL     1      45.470   9.248  11.937  0.00  0.00    +0.000 C 
ATOM      9  C   UNL     1      45.914  10.708  11.888  0.00  0.00    +0.000 C 
ATOM     10  N   UNL     1      47.234  10.837  11.271  0.00  0.00    +0.000 NA
ATOM     11  C   UNL     1      48.237  10.106  12.050  0.00  0.00    +0.000 C 
ATOM     12  C   UNL     1      47.916   8.614  12.102  0.00  0.00    +0.000 C 
ATOM     13  H   UNL     1      47.493  11.824  11.245  0.00  0.00    +0.000 HD
BRANCH   7  14
ATOM     14  O   UNL     1      46.515   8.753  14.041  0.00  0.00    +0.000 OA
ATOM     15  H   UNL     1      45.636   8.542  14.402  0.00  0.00    +0.000 HD
ENDBRANCH   7  14
ENDBRANCH   1   7
BRANCH   5  16
ATOM     16  O   UNL     1      44.421   4.576  10.240  0.00  0.00    +0.000 OA
BRANCH  16  17
ATOM     17  C   UNL     1      45.137   3.870   9.278  0.00  0.00    +0.000 A 
ATOM     18  C   UNL     1      45.109   2.486   9.376  0.00  0.00    +0.000 A 
ATOM     19  C   UNL     1      45.801   1.746   8.420  0.00  0.00    +0.000 A 
ATOM     20  C   UNL     1      46.496   2.410   7.415  0.00  0.00    +0.000 A 
ATOM     21  C   UNL     1      46.486   3.795   7.413  0.00  0.00    +0.000 A 
ATOM     22  N   UNL     1      45.832   4.537   8.329  0.00  0.00    +0.000 NA
ENDBRANCH  16  17
ENDBRANCH   5  16
TORSDOF 4
ENDMDL
MODEL 4
REMARK VINA RESULT:    -6.614      1.169      5.896
REMARK INTER + INTRA:          -8.645
REMARK INTER:                  -7.993
REMARK INTRA:                  -0.652
REMARK UNBOUND:                -0.677
REMARK  Name = 
REMARK  4 active torsions:
REMARK  status: ('A' for Active; 'I' for Inactive)
REMARK    1  A    between atoms: O_1  and  C_2
REMARK    2  A    between atoms: C_2  and  C_3
REMARK    3  A    between atoms: C_7  and  O_8
REMARK    4  A    between atoms: O_8  and  C_9
REMARK                            x       y       z     vdW  Elec       q    Type
REMARK                         _______ _______ _______ _____ _____    ______ ____
ROOT
ATOM      1  C   UNL     1      44.668   4.152  10.047  0.00  0.00    +0.000 A 
ATOM      2  C   UNL     1      43.670   3.536  10.827  0.00  0.00    +0.000 A 
ATOM      3  C   UNL     1      43.185   4.131  11.992  0.00  0.00    +0.000 A 
ATOM      4  C   UNL     1      43.701   5.352  12.413  0.00  0.00    +0.000 A 
ATOM      5  C   UNL     1      44.742   5.949  11.700  0.00  0.00    +0.000 A 
ATOM      6  C   UNL     1      45.204   5.366  10.514  0.00  0.00    +0.000 A 
ENDROOT
BRANCH   1   7
ATOM      7  C   UNL     1      45.145   3.487   8.748  0.00  0.00    +0.000 C 
ATOM      8  C   UNL     1      45.679   2.064   9.017  0.00  0.00    +0.000 C 
ATOM      9  C   UNL     1      46.321   1.454   7.772  0.00  0.00    +0.000 C 
ATOM     10  N   UNL     1      47.379   2.317   7.248  0.00  0.00    +0.000 NA
ATOM     11  C   UNL     1      46.830   3.619   6.858  0.00  0.00    +0.000 C 
ATOM     12  C   UNL     1      46.220   4.343   8.056  0.00  0.00    +0.000 C 
ATOM     13  H   UNL     1      47.792   1.874   6.427  0.00  0.00    +0.000 HD
BRANCH   7  14
ATOM     14  O   UNL     1      44.046   3.362   7.828  0.00  0.00    +0.000 OA
ATOM     15  H   UNL     1      43.257   3.709   8.282  0.00  0.00    +0.000 HD
ENDBRANCH   7  14
ENDBRANCH   1   7
BRANCH   5  16
ATOM     16  O   UNL     1      45.305   7.151  12.069  0.00  0.00    +0.000 OA
BRANCH  16  17
ATOM     17  C   UNL     1      46.602   7.130  12.573  0.00  0.00    +0.000 A 
ATOM     18  C   UNL     1      47.529   7.942  11.935  0.00  0.00    +0.000 A 
ATOM     19  C   UNL     1      48.834   7.960  12.423  0.00  0.00    +0.000 A 
ATOM     20  C   UNL     1      49.164   7.165  13.516  0.00  0.00    +0.000 A 
ATOM     21  C   UNL     1      48.177   6.369  14.071  0.00  0.00    +0.000 A 
ATOM     22  N   UNL     1      46.909   6.326  13.616  0.00  0.00    +0.000 NA
ENDBRANCH  16  17
ENDBRANCH   5  16
TORSDOF 4
ENDMDL
MODEL 5
REMARK VINA RESULT:    -6.459      1.689      6.085
REMARK INTER + INTRA:          -8.458
REMARK INTER:                  -8.133
REMARK INTRA:                  -0.325
REMARK UNBOUND:                -0.677
REMARK  Name = 
REMARK  4 active torsions:
REMARK  status: ('A' for Active; 'I' for Inactive)
REMARK    1  A    between atoms: O_1  and  C_2
REMARK    2  A    between atoms: C_2  and  C_3
REMARK    3  A    between atoms: C_7  and  O_8
REMARK    4  A    between atoms: O_8  and  C_9
REMARK                            x       y       z     vdW  Elec       q    Type
REMARK                         _______ _______ _______ _____ _____    ______ ____
ROOT
ATOM      1  C   UNL     1      44.709   4.000  10.277  0.00  0.00    +0.000 A 
ATOM      2  C   UNL     1      43.619   4.888  10.366  0.00  0.00    +0.000 A 
ATOM      3  C   UNL     1      43.234   5.451  11.583  0.00  0.00    +0.000 A 
ATOM      4  C   UNL     1      43.924   5.124  12.746  0.00  0.00    +0.000 A 
ATOM      5  C   UNL     1      44.961   4.191  12.700  0.00  0.00    +0.000 A 
ATOM      6  C   UNL     1      45.366   3.653  11.473  0.00  0.00    +0.000 A 
ENDROOT
BRANCH   1   7
ATOM      7  C   UNL     1      45.129   3.437   8.913  0.00  0.00    +0.000 C 
ATOM      8  C   UNL     1      45.682   2.002   9.051  0.00  0.00    +0.000 C 
ATOM      9  C   UNL     1      46.270   1.491   7.738  0.00  0.00    +0.000 C 
ATOM     10  N   UNL     1      47.299   2.399   7.232  0.00  0.00    +0.000 NA
ATOM     11  C   UNL     1      46.726   3.721   6.964  0.00  0.00    +0.000 C 
ATOM     12  C   UNL     1      46.168   4.350   8.238  0.00  0.00    +0.000 C 
ATOM     13  H   UNL     1      47.676   2.021   6.362  0.00  0.00    +0.000 HD
BRANCH   7  14
ATOM     14  O   UNL     1      43.990   3.371   8.037  0.00  0.00    +0.000 OA
ATOM     15  H   UNL     1      43.469   2.594   8.310  0.00  0.00    +0.000 HD
ENDBRANCH   7  14
ENDBRANCH   1   7
BRANCH   5  16
ATOM     16  O   UNL     1      45.677   3.815  13.816  0.00  0.00    +0.000 OA
BRANCH  16  17
ATOM     17  C   UNL     1      46.651   4.692  14.284  0.00  0.00    +0.000 A 
ATOM     18  C   UNL     1      47.162   4.433  15.548  0.00  0.00    +0.000 A 
ATOM     19  C   UNL     1      48.151   5.280  16.044  0.00  0.00    +0.000 A 
ATOM     20  C   UNL     1      48.586   6.348  15.266  0.00  0.00    +0.000 A 
ATOM     21  C   UNL     1      48.000   6.540  14.026  0.00  0.00    +0.000 A 
ATOM     22  N   UNL     1      47.036   5.743  13.526  0.00  0.00    +0.000 NA
ENDBRANCH  16  17
ENDBRANCH   5  16
TORSDOF 4
ENDMDL
MODEL 6
REMARK VINA RESULT:    -6.294      2.246      6.754
REMARK INTER + INTRA:          -8.259
REMARK INTER:                  -7.716
REMARK INTRA:                  -0.543
REMARK UNBOUND:                -0.677
REMARK  Name = 
REMARK  4 active torsions:
REMARK  status: ('A' for Active; 'I' for Inactive)
REMARK    1  A    between atoms: O_1  and  C_2
REMARK    2  A    between atoms: C_2  and  C_3
REMARK    3  A    between atoms: C_7  and  O_8
REMARK    4  A    between atoms: O_8  and  C_9
REMARK                            x       y       z     vdW  Elec       q    Type
REMARK                         _______ _______ _______ _____ _____    ______ ____
ROOT
ATOM      1  C   UNL     1      45.608   6.162  11.729  0.00  0.00    +0.000 A 
ATOM      2  C   UNL     1      45.201   7.502  11.874  0.00  0.00    +0.000 A 
ATOM      3  C   UNL     1      45.879   8.384  12.716  0.00  0.00    +0.000 A 
ATOM      4  C   UNL     1      46.975   7.937  13.447  0.00  0.00    +0.000 A 
ATOM      5  C   UNL     1      47.356   6.597  13.379  0.00  0.00    +0.000 A 
ATOM      6  C   UNL     1      46.695   5.723  12.509  0.00  0.00    +0.000 A 
ENDROOT
BRANCH   1   7
ATOM      7  C   UNL     1      44.863   5.235  10.758  0.00  0.00    +0.000 C 
ATOM      8  C   UNL     1      44.685   3.826  11.363  0.00  0.00    +0.000 C 
ATOM      9  C   UNL     1      44.108   2.841  10.349  0.00  0.00    +0.000 C 
ATOM     10  N   UNL     1      44.929   2.789   9.139  0.00  0.00    +0.000 NA
ATOM     11  C   UNL     1      44.969   4.103   8.492  0.00  0.00    +0.000 C 
ATOM     12  C   UNL     1      45.597   5.151   9.408  0.00  0.00    +0.000 C 
ATOM     13  H   UNL     1      44.521   2.115   8.491  0.00  0.00    +0.000 HD
BRANCH   7  14
ATOM     14  O   UNL     1      43.548   5.754  10.495  0.00  0.00    +0.000 OA
ATOM     15  H   UNL     1      42.983   5.484  11.241  0.00  0.00    +0.000 HD
ENDBRANCH   7  14
ENDBRANCH   1   7
BRANCH   5  16
ATOM     16  O   UNL     1      48.425   6.088  14.086  0.00  0.00    +0.000 OA
BRANCH  16  17
ATOM     17  C   UNL     1      48.193   5.658  15.389  0.00  0.00    +0.000 A 
ATOM     18  C   UNL     1      48.697   6.458  16.405  0.00  0.00    +0.000 A 
ATOM     19  C   UNL     1      48.469   6.068  17.723  0.00  0.00    +0.000 A 
ATOM     20  C   UNL     1      47.757   4.899  17.975  0.00  0.00    +0.000 A 
ATOM     21  C   UNL     1      47.314   4.154  16.895  0.00  0.00    +0.000 A 
ATOM     22  N   UNL     1      47.527   4.503  15.611  0.00  0.00    +0.000 NA
ENDBRANCH  16  17
ENDBRANCH   5  16
TORSDOF 4
ENDMDL
MODEL 7
REMARK VINA RESULT:    -6.111      3.445      7.248
REMARK INTER + INTRA:          -8.039
REMARK INTER:                  -7.667
REMARK INTRA:                  -0.371
REMARK UNBOUND:                -0.677
REMARK  Name = 
REMARK  4 active torsions:
REMARK  status: ('A' for Active; 'I' for Inactive)
REMARK    1  A    between atoms: O_1  and  C_2
REMARK    2  A    between atoms: C_2  and  C_3
REMARK    3  A    between atoms: C_7  and  O_8
REMARK    4  A    between atoms: O_8  and  C_9
REMARK                            x       y       z     vdW  Elec       q    Type
REMARK                         _______ _______ _______ _____ _____    ______ ____
ROOT
ATOM      1  C   UNL     1      46.315   4.943  13.513  0.00  0.00    +0.000 A 
ATOM      2  C   UNL     1      47.094   6.080  13.221  0.00  0.00    +0.000 A 
ATOM      3  C   UNL     1      48.092   6.523  14.089  0.00  0.00    +0.000 A 
ATOM      4  C   UNL     1      48.324   5.845  15.281  0.00  0.00    +0.000 A 
ATOM      5  C   UNL     1      47.520   4.760  15.631  0.00  0.00    +0.000 A 
ATOM      6  C   UNL     1      46.541   4.297  14.744  0.00  0.00    +0.000 A 
ENDROOT
BRANCH   1   7
ATOM      7  C   UNL     1      45.257   4.461  12.512  0.00  0.00    +0.000 C 
ATOM      8  C   UNL     1      45.618   4.888  11.074  0.00  0.00    +0.000 C 
ATOM      9  C   UNL     1      44.494   4.576  10.089  0.00  0.00    +0.000 C 
ATOM     10  N   UNL     1      43.236   5.190  10.514  0.00  0.00    +0.000 NA
ATOM     11  C   UNL     1      42.826   4.665  11.819  0.00  0.00    +0.000 C 
ATOM     12  C   UNL     1      43.862   4.987  12.894  0.00  0.00    +0.000 C 
ATOM     13  H   UNL     1      42.512   4.971   9.829  0.00  0.00    +0.000 HD
BRANCH   7  14
ATOM     14  O   UNL     1      45.186   3.025  12.524  0.00  0.00    +0.000 OA
ATOM     15  H   UNL     1      44.244   2.788  12.452  0.00  0.00    +0.000 HD
ENDBRANCH   7  14
ENDBRANCH   1   7
BRANCH   5  16
ATOM     16  O   UNL     1      47.690   4.052  16.801  0.00  0.00    +0.000 OA
BRANCH  16  17
ATOM     17  C   UNL     1      48.968   3.583  17.094  0.00  0.00    +0.000 A 
ATOM     18  C   UNL     1      49.786   4.431  17.826  0.00  0.00    +0.000 A 
ATOM     19  C   UNL     1      51.067   3.990  18.152  0.00  0.00    +0.000 A 
ATOM     20  C   UNL     1      51.481   2.730  17.732  0.00  0.00    +0.000 A 
ATOM     21  C   UNL     1      50.601   1.964  16.985  0.00  0.00    +0.000 A 
ATOM     22  N   UNL     1      49.361   2.369  16.648  0.00  0.00    +0.000 NA
ENDBRANCH  16  17
ENDBRANCH   5  16
TORSDOF 4
ENDMDL
MODEL 8
REMARK VINA RESULT:    -6.104      3.899      6.624
REMARK INTER + INTRA:          -8.029
REMARK INTER:                  -7.422
REMARK INTRA:                  -0.608
REMARK UNBOUND:                -0.677
REMARK  Name = 
REMARK  4 active torsions:
REMARK  status: ('A' for Active; 'I' for Inactive)
REMARK    1  A    between atoms: O_1  and  C_2
REMARK    2  A    between atoms: C_2  and  C_3
REMARK    3  A    between atoms: C_7  and  O_8
REMARK    4  A    between atoms: O_8  and  C_9
REMARK                            x       y       z     vdW  Elec       q    Type
REMARK                         _______ _______ _______ _____ _____    ______ ____
ROOT
ATOM      1  C   UNL     1      45.153   6.515  11.368  0.00  0.00    +0.000 A 
ATOM      2  C   UNL     1      46.546   6.449  11.564  0.00  0.00    +0.000 A 
ATOM      3  C   UNL     1      47.271   7.548  12.027  0.00  0.00    +0.000 A 
ATOM      4  C   UNL     1      46.617   8.747  12.289  0.00  0.00    +0.000 A 
ATOM      5  C   UNL     1      45.250   8.864  12.035  0.00  0.00    +0.000 A 
ATOM      6  C   UNL     1      44.520   7.751  11.602  0.00  0.00    +0.000 A 
ENDROOT
BRANCH   1   7
ATOM      7  C   UNL     1      44.385   5.271  10.901  0.00  0.00    +0.000 C 
ATOM      8  C   UNL     1      44.199   4.266  12.058  0.00  0.00    +0.000 C 
ATOM      9  C   UNL     1      43.598   2.948  11.574  0.00  0.00    +0.000 C 
ATOM     10  N   UNL     1      44.403   2.365  10.501  0.00  0.00    +0.000 NA
ATOM     11  C   UNL     1      44.449   3.267   9.348  0.00  0.00    +0.000 C 
ATOM     12  C   UNL     1      45.100   4.599   9.715  0.00  0.00    +0.000 C 
ATOM     13  H   UNL     1      43.979   1.482  10.212  0.00  0.00    +0.000 HD
BRANCH   7  14
ATOM     14  O   UNL     1      43.073   5.645  10.447  0.00  0.00    +0.000 OA
ATOM     15  H   UNL     1      42.841   5.038   9.722  0.00  0.00    +0.000 HD
ENDBRANCH   7  14
ENDBRANCH   1   7
BRANCH   5  16
ATOM     16  O   UNL     1      44.545  10.026  12.262  0.00  0.00    +0.000 OA
BRANCH  16  17
ATOM     17  C   UNL     1      43.868  10.592  11.186  0.00  0.00    +0.000 A 
ATOM     18  C   UNL     1      42.485  10.637  11.278  0.00  0.00    +0.000 A 
ATOM     19  C   UNL     1      41.774  11.213  10.227  0.00  0.00    +0.000 A 
ATOM     20  C   UNL     1      42.466  11.712   9.129  0.00  0.00    +0.000 A 
ATOM     21  C   UNL     1      43.847  11.601   9.116  0.00  0.00    +0.000 A 
ATOM     22  N   UNL     1      44.559  11.042  10.114  0.00  0.00    +0.000 NA
ENDBRANCH  16  17
ENDBRANCH   5  16
TORSDOF 4
ENDMDL
MODEL 9
REMARK VINA RESULT:    -5.943      1.997      6.364
REMARK INTER + INTRA:          -7.836
REMARK INTER:                  -7.257
REMARK INTRA:                  -0.579
REMARK UNBOUND:                -0.677
REMARK  Name = 
REMARK  4 active torsions:
REMARK  status: ('A' for Active; 'I' for Inactive)
REMARK    1  A    between atoms: O_1  and  C_2
REMARK    2  A    between atoms: C_2  and  C_3
REMARK    3  A    between atoms: C_7  and  O_8
REMARK    4  A    between atoms: O_8  and  C_9
REMARK                            x       y       z     vdW  Elec       q    Type
REMARK                         _______ _______ _______ _____ _____    ______ ____
ROOT
ATOM      1  C   UNL     1      45.221   6.273  11.648  0.00  0.00    +0.000 A 
ATOM      2  C   UNL     1      44.710   7.584  11.707  0.00  0.00    +0.000 A 
ATOM      3  C   UNL     1      45.442   8.628  12.274  0.00  0.00    +0.000 A 
ATOM      4  C   UNL     1      46.701   8.379  12.811  0.00  0.00    +0.000 A 
ATOM      5  C   UNL     1      47.202   7.077  12.832  0.00  0.00    +0.000 A 
ATOM      6  C   UNL     1      46.480   6.038  12.234  0.00  0.00    +0.000 A 
ENDROOT
BRANCH   1   7
ATOM      7  C   UNL     1      44.404   5.161  10.977  0.00  0.00    +0.000 C 
ATOM      8  C   UNL     1      44.036   4.055  11.989  0.00  0.00    +0.000 C 
ATOM      9  C   UNL     1      43.379   2.857  11.307  0.00  0.00    +0.000 C 
ATOM     10  N   UNL     1      44.230   2.326  10.241  0.00  0.00    +0.000 NA
ATOM     11  C   UNL     1      44.451   3.343   9.210  0.00  0.00    +0.000 C 
ATOM     12  C   UNL     1      45.168   4.564   9.782  0.00  0.00    +0.000 C 
ATOM     13  H   UNL     1      43.766   1.522   9.817  0.00  0.00    +0.000 HD
BRANCH   7  14
ATOM     14  O   UNL     1      43.171   5.698  10.466  0.00  0.00    +0.000 OA
ATOM     15  H   UNL     1      43.168   6.649  10.677  0.00  0.00    +0.000 HD
ENDBRANCH   7  14
ENDBRANCH   1   7
BRANCH   5  16
ATOM     16  O   UNL     1      48.436   6.761  13.358  0.00  0.00    +0.000 OA
BRANCH  16  17
ATOM     17  C   UNL     1      49.527   7.523  12.951  0.00  0.00    +0.000 A 
ATOM     18  C   UNL     1      49.854   7.467  11.604  0.00  0.00    +0.000 A 
ATOM     19  C   UNL     1      50.930   8.230  11.156  0.00  0.00    +0.000 A 
ATOM     20  C   UNL     1      51.638   9.010  12.065  0.00  0.00    +0.000 A 
ATOM     21  C   UNL     1      51.252   8.983  13.395  0.00  0.00    +0.000 A 
ATOM     22  N   UNL     1      50.221   8.249  13.857  0.00  0.00    +0.000 NA
ENDBRANCH  16  17
ENDBRANCH   5  16
TORSDOF 4
ENDMDL
