MODEL 1
REMARK VINA RESULT:    -8.449      0.000      0.000
REMARK INTER + INTRA:         -13.087
REMARK INTER:                 -12.153
REMARK INTRA:                  -0.934
REMARK UNBOUND:                -0.934
REMARK  Name = 
REMARK  8 active torsions:
REMARK  status: ('A' for Active; 'I' for Inactive)
REMARK    1  A    between atoms: N_1  and  C_2
REMARK    2  A    between atoms: C_2  and  C_3
REMARK    3  A    between atoms: C_2  and  C_18
REMARK    4  A    between atoms: C_3  and  C_4
REMARK    5  A    between atoms: C_7  and  C_8
REMARK    6  A    between atoms: C_8  and  N_9
REMARK    7  A    between atoms: N_9  and  C_10
REMARK    8  A    between atoms: C_18  and  C_20
REMARK                            x       y       z     vdW  Elec       q    Type
REMARK                         _______ _______ _______ _____ _____    ______ ____
ROOT
ATOM      1  C   UNL     1      47.374   4.170  14.878  0.00  0.00    +0.000 C 
ENDROOT
BRANCH   1   2
ATOM      2  N   UNL     1      47.611   2.805  14.338  0.00  0.00    +0.000 NA
ATOM      3  H   UNL     1      48.450   2.417  14.762  0.00  0.00    +0.000 HD
ATOM      4  H   UNL     1      47.815   2.909  13.338  0.00  0.00    +0.000 HD
ENDBRANCH   1   2
BRANCH   1   5
ATOM      5  C   UNL     1      47.539   4.170  16.405  0.00  0.00    +0.000 C 
ATOM      6  O   UNL     1      46.570   3.866  17.113  0.00  0.00    +0.000 OA
BRANCH   5   7
ATOM      7  C   UNL     1      48.825   4.507  17.056  0.00  0.00    +0.000 A 
ATOM      8  C   UNL     1      48.997   5.799  17.544  0.00  0.00    +0.000 A 
ATOM      9  S   UNL     1      50.457   6.037  18.383  0.00  0.00    +0.000 S 
ATOM     10  C   UNL     1      50.918   4.420  18.133  0.00  0.00    +0.000 A 
ATOM     11  N   UNL     1      52.067   3.942  18.684  0.00  0.00    +0.000 NA
ATOM     12  C   UNL     1      52.284   2.690  18.465  0.00  0.00    +0.000 A 
ATOM     13  N   UNL     1      51.479   1.882  17.709  0.00  0.00    +0.000 N 
ATOM     14  C   UNL     1      50.405   2.367  17.001  0.00  0.00    +0.000 A 
ATOM     15  O   UNL     1      49.898   1.688  16.117  0.00  0.00    +0.000 OA
ATOM     16  C   UNL     1      50.013   3.726  17.344  0.00  0.00    +0.000 A 
ATOM     17  H   UNL     1      51.757   0.937  17.494  0.00  0.00    +0.000 HD
ENDBRANCH   5   7
ENDBRANCH   1   5
BRANCH   1  18
ATOM     18  C   UNL     1      46.002   4.761  14.491  0.00  0.00    +0.000 C 
BRANCH  18  19
ATOM     19  C   UNL     1      45.584   4.600  13.048  0.00  0.00    +0.000 A 
ATOM     20  C   UNL     1      44.855   3.473  12.635  0.00  0.00    +0.000 A 
ATOM     21  C   UNL     1      44.454   3.336  11.306  0.00  0.00    +0.000 A 
ATOM     22  C   UNL     1      44.773   4.321  10.363  0.00  0.00    +0.000 A 
ATOM     23  C   UNL     1      45.506   5.441  10.774  0.00  0.00    +0.000 A 
ATOM     24  C   UNL     1      45.907   5.578  12.103  0.00  0.00    +0.000 A 
BRANCH  22  25
ATOM     25  C   UNL     1      44.358   4.173   8.920  0.00  0.00    +0.000 C 
BRANCH  25  26
ATOM     26  N   UNL     1      45.480   4.397   8.007  0.00  0.00    +0.000 NA
ATOM     27  H   UNL     1      46.255   4.807   8.529  0.00  0.00    +0.000 HD
BRANCH  26  28
ATOM     28  C   UNL     1      45.916   3.165   7.335  0.00  0.00    +0.000 C 
ATOM     29  C   UNL     1      46.182   2.010   8.310  0.00  0.00    +0.000 C 
ATOM     30  C   UNL     1      46.782   0.817   7.583  0.00  0.00    +0.000 C 
ATOM     31  O   UNL     1      47.969   1.190   6.888  0.00  0.00    +0.000 OA
ATOM     32  C   UNL     1      47.715   2.178   5.890  0.00  0.00    +0.000 C 
ATOM     33  C   UNL     1      47.187   3.458   6.523  0.00  0.00    +0.000 C 
ENDBRANCH  26  28
ENDBRANCH  25  26
ENDBRANCH  22  25
ENDBRANCH  18  19
ENDBRANCH   1  18
TORSDOF 8
ENDMDL
MODEL 2
REMARK VINA RESULT:    -7.929      1.372      1.864
REMARK INTER + INTRA:         -12.339
REMARK INTER:                 -11.925
REMARK INTRA:                  -0.415
REMARK UNBOUND:                -0.934
REMARK  Name = 
REMARK  8 active torsions:
REMARK  status: ('A' for Active; 'I' for Inactive)
REMARK    1  A    between atoms: N_1  and  C_2
REMARK    2  A    between atoms: C_2  and  C_3
REMARK    3  A    between atoms: C_2  and  C_18
REMARK    4  A    between atoms: C_3  and  C_4
REMARK    5  A    between atoms: C_7  and  C_8
REMARK    6  A    between atoms: C_8  and  N_9
REMARK    7  A    between atoms: N_9  and  C_10
REMARK    8  A    between atoms: C_18  and  C_20
REMARK                            x       y       z     vdW  Elec       q    Type
REMARK                         _______ _______ _______ _____ _____    ______ ____
ROOT
ATOM      1  C   UNL     1      47.844   4.326  16.111  0.00  0.00    +0.000 C 
ENDROOT
BRANCH   1   2
ATOM      2  N   UNL     1      46.613   3.725  16.690  0.00  0.00    +0.000 NA
ATOM      3  H   UNL     1      46.664   3.768  17.705  0.00  0.00    +0.000 HD
ATOM      4  H   UNL     1      46.618   2.730  16.442  0.00  0.00    +0.000 HD
ENDBRANCH   1   2
BRANCH   1   5
ATOM      5  C   UNL     1      48.692   4.967  17.221  0.00  0.00    +0.000 C 
ATOM      6  O   UNL     1      48.183   5.840  17.935  0.00  0.00    +0.000 OA
BRANCH   5   7
ATOM      7  C   UNL     1      50.093   4.561  17.472  0.00  0.00    +0.000 A 
ATOM      8  C   UNL     1      50.991   5.531  17.907  0.00  0.00    +0.000 A 
ATOM      9  S   UNL     1      52.535   4.928  18.287  0.00  0.00    +0.000 S 
ATOM     10  C   UNL     1      52.066   3.343  17.890  0.00  0.00    +0.000 A 
ATOM     11  N   UNL     1      52.927   2.307  18.074  0.00  0.00    +0.000 NA
ATOM     12  C   UNL     1      52.440   1.149  17.783  0.00  0.00    +0.000 A 
ATOM     13  N   UNL     1      51.184   0.937  17.283  0.00  0.00    +0.000 N 
ATOM     14  C   UNL     1      50.349   1.969  16.928  0.00  0.00    +0.000 A 
ATOM     15  O   UNL     1      49.374   1.751  16.220  0.00  0.00    +0.000 OA
ATOM     16  C   UNL     1      50.773   3.283  17.389  0.00  0.00    +0.000 A 
ATOM     17  H   UNL     1      50.900   0.017  16.983  0.00  0.00    +0.000 HD
ENDBRANCH   5   7
ENDBRANCH   1   5
BRANCH   1  18
ATOM     18  C   UNL     1      47.567   5.352  14.992  0.00  0.00    +0.000 C 
BRANCH  18  19
ATOM     19  C   UNL     1      46.601   4.924  13.913  0.00  0.00    +0.000 A 
ATOM     20  C   UNL     1      45.725   5.852  13.328  0.00  0.00    +0.000 A 
ATOM     21  C   UNL     1      44.847   5.459  12.317  0.00  0.00    +0.000 A 
ATOM     22  C   UNL     1      44.826   4.132  11.871  0.00  0.00    +0.000 A 
ATOM     23  C   UNL     1      45.697   3.205  12.459  0.00  0.00    +0.000 A 
ATOM     24  C   UNL     1      46.574   3.599  13.470  0.00  0.00    +0.000 A 
BRANCH  22  25
ATOM     25  C   UNL     1      43.870   3.693  10.791  0.00  0.00    +0.000 C 
BRANCH  25  26
ATOM     26  N   UNL     1      44.087   4.425   9.542  0.00  0.00    +0.000 NA
ATOM     27  H   UNL     1      44.625   5.269   9.743  0.00  0.00    +0.000 HD
BRANCH  26  28
ATOM     28  C   UNL     1      44.773   3.616   8.525  0.00  0.00    +0.000 C 
ATOM     29  C   UNL     1      45.184   2.228   9.037  0.00  0.00    +0.000 C 
ATOM     30  C   UNL     1      46.027   1.500   8.002  0.00  0.00    +0.000 C 
ATOM     31  O   UNL     1      47.166   2.274   7.638  0.00  0.00    +0.000 OA
ATOM     32  C   UNL     1      46.798   3.520   7.046  0.00  0.00    +0.000 C 
ATOM     33  C   UNL     1      46.016   4.374   8.034  0.00  0.00    +0.000 C 
ENDBRANCH  26  28
ENDBRANCH  25  26
ENDBRANCH  22  25
ENDBRANCH  18  19
ENDBRANCH   1  18
TORSDOF 8
ENDMDL
MODEL 3
REMARK VINA RESULT:    -7.784      2.392      3.128
REMARK INTER + INTRA:         -12.131
REMARK INTER:                 -10.790
REMARK INTRA:                  -1.341
REMARK UNBOUND:                -0.934
REMARK  Name = 
REMARK  8 active torsions:
REMARK  status: ('A' for Active; 'I' for Inactive)
REMARK    1  A    between atoms: N_1  and  C_2
REMARK    2  A    between atoms: C_2  and  C_3
REMARK    3  A    between atoms: C_2  and  C_18
REMARK    4  A    between atoms: C_3  and  C_4
REMARK    5  A    between atoms: C_7  and  C_8
REMARK    6  A    between atoms: C_8  and  N_9
REMARK    7  A    between atoms: N_9  and  C_10
REMARK    8  A    between atoms: C_18  and  C_20
REMARK                            x       y       z     vdW  Elec       q    Type
REMARK                         _______ _______ _______ _____ _____    ______ ____
ROOT
ATOM      1  C   UNL     1      47.427   8.034  14.673  0.00  0.00    +0.000 C 
ENDROOT
BRANCH   1   2
ATOM      2  N   UNL     1      47.697   9.210  15.540  0.00  0.00    +0.000 NA
ATOM      3  H   UNL     1      46.970   9.280  16.248  0.00  0.00    +0.000 HD
ATOM      4  H   UNL     1      47.608  10.046  14.951  0.00  0.00    +0.000 HD
ENDBRANCH   1   2
BRANCH   1   5
ATOM      5  C   UNL     1      48.672   7.138  14.593  0.00  0.00    +0.000 C 
ATOM      6  O   UNL     1      49.375   7.177  13.576  0.00  0.00    +0.000 OA
BRANCH   5   7
ATOM      7  C   UNL     1      49.067   6.242  15.703  0.00  0.00    +0.000 A 
ATOM      8  C   UNL     1      50.228   6.541  16.409  0.00  0.00    +0.000 A 
ATOM      9  S   UNL     1      50.514   5.521  17.740  0.00  0.00    +0.000 S 
ATOM     10  C   UNL     1      49.094   4.640  17.430  0.00  0.00    +0.000 A 
ATOM     11  N   UNL     1      48.706   3.647  18.275  0.00  0.00    +0.000 NA
ATOM     12  C   UNL     1      47.588   3.085  17.961  0.00  0.00    +0.000 A 
ATOM     13  N   UNL     1      46.845   3.396  16.854  0.00  0.00    +0.000 N 
ATOM     14  C   UNL     1      47.288   4.272  15.893  0.00  0.00    +0.000 A 
ATOM     15  O   UNL     1      46.748   4.298  14.794  0.00  0.00    +0.000 OA
ATOM     16  C   UNL     1      48.452   5.059  16.274  0.00  0.00    +0.000 A 
ATOM     17  H   UNL     1      46.032   2.851  16.613  0.00  0.00    +0.000 HD
ENDBRANCH   5   7
ENDBRANCH   1   5
BRANCH   1  18
ATOM     18  C   UNL     1      46.947   8.406  13.254  0.00  0.00    +0.000 C 
BRANCH  18  19
ATOM     19  C   UNL     1      46.233   7.323  12.480  0.00  0.00    +0.000 A 
ATOM     20  C   UNL     1      46.741   6.864  11.255  0.00  0.00    +0.000 A 
ATOM     21  C   UNL     1      46.091   5.850  10.552  0.00  0.00    +0.000 A 
ATOM     22  C   UNL     1      44.919   5.274  11.059  0.00  0.00    +0.000 A 
ATOM     23  C   UNL     1      44.409   5.737  12.278  0.00  0.00    +0.000 A 
ATOM     24  C   UNL     1      45.059   6.751  12.980  0.00  0.00    +0.000 A 
BRANCH  22  25
ATOM     25  C   UNL     1      44.199   4.189  10.298  0.00  0.00    +0.000 C 
BRANCH  25  26
ATOM     26  N   UNL     1      44.212   4.436   8.855  0.00  0.00    +0.000 NA
ATOM     27  H   UNL     1      44.695   5.317   8.675  0.00  0.00    +0.000 HD
BRANCH  26  28
ATOM     28  C   UNL     1      44.846   3.346   8.100  0.00  0.00    +0.000 C 
ATOM     29  C   UNL     1      45.263   2.164   8.986  0.00  0.00    +0.000 C 
ATOM     30  C   UNL     1      46.054   1.142   8.184  0.00  0.00    +0.000 C 
ATOM     31  O   UNL     1      47.185   1.748   7.564  0.00  0.00    +0.000 OA
ATOM     32  C   UNL     1      46.805   2.769   6.642  0.00  0.00    +0.000 C 
ATOM     33  C   UNL     1      46.074   3.896   7.360  0.00  0.00    +0.000 C 
ENDBRANCH  26  28
ENDBRANCH  25  26
ENDBRANCH  22  25
ENDBRANCH  18  19
ENDBRANCH   1  18
TORSDOF 8
ENDMDL
MODEL 4
REMARK VINA RESULT:    -7.604      2.213      2.552
REMARK INTER + INTRA:         -11.873
REMARK INTER:                 -11.037
REMARK INTRA:                  -0.836
REMARK UNBOUND:                -0.934
REMARK  Name = 
REMARK  8 active torsions:
REMARK  status: ('A' for Active; 'I' for Inactive)
REMARK    1  A    between atoms: N_1  and  C_2
REMARK    2  A    between atoms: C_2  and  C_3
REMARK    3  A    between atoms: C_2  and  C_18
REMARK    4  A    between atoms: C_3  and  C_4
REMARK    5  A    between atoms: C_7  and  C_8
REMARK    6  A    between atoms: C_8  and  N_9
REMARK    7  A    between atoms: N_9  and  C_10
REMARK    8  A    between atoms: C_18  and  C_20
REMARK                            x       y       z     vdW  Elec       q    Type
REMARK                         _______ _______ _______ _____ _____    ______ ____
ROOT
ATOM      1  C   UNL     1      48.570   6.847  14.166  0.00  0.00    +0.000 C 
ENDROOT
BRANCH   1   2
ATOM      2  N   UNL     1      49.284   6.533  12.901  0.00  0.00    +0.000 NA
ATOM      3  H   UNL     1      50.146   7.070  12.860  0.00  0.00    +0.000 HD
ATOM      4  H   UNL     1      48.696   6.872  12.131  0.00  0.00    +0.000 HD
ENDBRANCH   1   2
BRANCH   1   5
ATOM      5  C   UNL     1      49.572   6.959  15.325  0.00  0.00    +0.000 C 
ATOM      6  O   UNL     1      50.775   7.091  15.067  0.00  0.00    +0.000 OA
BRANCH   5   7
ATOM      7  C   UNL     1      49.141   6.931  16.741  0.00  0.00    +0.000 A 
ATOM      8  C   UNL     1      48.526   8.064  17.264  0.00  0.00    +0.000 A 
ATOM      9  S   UNL     1      47.959   7.874  18.856  0.00  0.00    +0.000 S 
ATOM     10  C   UNL     1      48.508   6.266  18.911  0.00  0.00    +0.000 A 
ATOM     11  N   UNL     1      48.259   5.493  20.002  0.00  0.00    +0.000 NA
ATOM     12  C   UNL     1      48.683   4.279  19.905  0.00  0.00    +0.000 A 
ATOM     13  N   UNL     1      49.372   3.780  18.833  0.00  0.00    +0.000 N 
ATOM     14  C   UNL     1      49.787   4.572  17.790  0.00  0.00    +0.000 A 
ATOM     15  O   UNL     1      50.641   4.164  17.013  0.00  0.00    +0.000 OA
ATOM     16  C   UNL     1      49.195   5.902  17.762  0.00  0.00    +0.000 A 
ATOM     17  H   UNL     1      49.761   2.850  18.862  0.00  0.00    +0.000 HD
ENDBRANCH   5   7
ENDBRANCH   1   5
BRANCH   1  18
ATOM     18  C   UNL     1      47.458   5.837  14.519  0.00  0.00    +0.000 C 
BRANCH  18  19
ATOM     19  C   UNL     1      46.603   5.350  13.372  0.00  0.00    +0.000 A 
ATOM     20  C   UNL     1      46.276   3.991  13.250  0.00  0.00    +0.000 A 
ATOM     21  C   UNL     1      45.471   3.547  12.201  0.00  0.00    +0.000 A 
ATOM     22  C   UNL     1      44.976   4.452  11.253  0.00  0.00    +0.000 A 
ATOM     23  C   UNL     1      45.309   5.807  11.373  0.00  0.00    +0.000 A 
ATOM     24  C   UNL     1      46.114   6.250  12.421  0.00  0.00    +0.000 A 
BRANCH  22  25
ATOM     25  C   UNL     1      44.119   3.979  10.106  0.00  0.00    +0.000 C 
BRANCH  25  26
ATOM     26  N   UNL     1      44.616   4.467   8.819  0.00  0.00    +0.000 NA
ATOM     27  H   UNL     1      45.295   5.210   8.986  0.00  0.00    +0.000 HD
BRANCH  26  28
ATOM     28  C   UNL     1      45.221   3.402   8.006  0.00  0.00    +0.000 C 
ATOM     29  C   UNL     1      45.506   2.123   8.806  0.00  0.00    +0.000 C 
ATOM     30  C   UNL     1      46.274   1.118   7.961  0.00  0.00    +0.000 C 
ATOM     31  O   UNL     1      47.476   1.692   7.458  0.00  0.00    +0.000 OA
ATOM     32  C   UNL     1      47.221   2.811   6.610  0.00  0.00    +0.000 C 
ATOM     33  C   UNL     1      46.524   3.923   7.384  0.00  0.00    +0.000 C 
ENDBRANCH  26  28
ENDBRANCH  25  26
ENDBRANCH  22  25
ENDBRANCH  18  19
ENDBRANCH   1  18
TORSDOF 8
ENDMDL
MODEL 5
REMARK VINA RESULT:    -7.163      2.109      3.319
REMARK INTER + INTRA:         -11.237
REMARK INTER:                  -9.992
REMARK INTRA:                  -1.246
REMARK UNBOUND:                -0.934
REMARK  Name = 
REMARK  8 active torsions:
REMARK  status: ('A' for Active; 'I' for Inactive)
REMARK    1  A    between atoms: N_1  and  C_2
REMARK    2  A    between atoms: C_2  and  C_3
REMARK    3  A    between atoms: C_2  and  C_18
REMARK    4  A    between atoms: C_3  and  C_4
REMARK    5  A    between atoms: C_7  and  C_8
REMARK    6  A    between atoms: C_8  and  N_9
REMARK    7  A    between atoms: N_9  and  C_10
REMARK    8  A    between atoms: C_18  and  C_20
REMARK                            x       y       z     vdW  Elec       q    Type
REMARK                         _______ _______ _______ _____ _____    ______ ____
ROOT
ATOM      1  C   UNL     1      47.694   3.803  16.007  0.00  0.00    +0.000 C 
ENDROOT
BRANCH   1   2
ATOM      2  N   UNL     1      46.568   3.516  16.934  0.00  0.00    +0.000 NA
ATOM      3  H   UNL     1      46.919   3.013  17.745  0.00  0.00    +0.000 HD
ATOM      4  H   UNL     1      45.934   2.871  16.447  0.00  0.00    +0.000 HD
ENDBRANCH   1   2
BRANCH   1   5
ATOM      5  C   UNL     1      49.000   3.969  16.799  0.00  0.00    +0.000 C 
ATOM      6  O   UNL     1      49.663   2.963  17.081  0.00  0.00    +0.000 OA
BRANCH   5   7
ATOM      7  C   UNL     1      49.500   5.297  17.220  0.00  0.00    +0.000 A 
ATOM      8  C   UNL     1      50.800   5.651  16.874  0.00  0.00    +0.000 A 
ATOM      9  S   UNL     1      51.223   7.243  17.296  0.00  0.00    +0.000 S 
ATOM     10  C   UNL     1      49.682   7.528  17.954  0.00  0.00    +0.000 A 
ATOM     11  N   UNL     1      49.356   8.761  18.427  0.00  0.00    +0.000 NA
ATOM     12  C   UNL     1      48.144   8.867  18.855  0.00  0.00    +0.000 A 
ATOM     13  N   UNL     1      47.242   7.839  18.894  0.00  0.00    +0.000 N 
ATOM     14  C   UNL     1      47.585   6.545  18.582  0.00  0.00    +0.000 A 
ATOM     15  O   UNL     1      46.850   5.621  18.910  0.00  0.00    +0.000 OA
ATOM     16  C   UNL     1      48.880   6.397  17.933  0.00  0.00    +0.000 A 
ATOM     17  H   UNL     1      46.342   7.962  19.332  0.00  0.00    +0.000 HD
ENDBRANCH   5   7
ENDBRANCH   1   5
BRANCH   1  18
ATOM     18  C   UNL     1      47.458   5.032  15.105  0.00  0.00    +0.000 C 
BRANCH  18  19
ATOM     19  C   UNL     1      46.620   4.806  13.868  0.00  0.00    +0.000 A 
ATOM     20  C   UNL     1      46.182   5.891  13.093  0.00  0.00    +0.000 A 
ATOM     21  C   UNL     1      45.425   5.679  11.940  0.00  0.00    +0.000 A 
ATOM     22  C   UNL     1      45.091   4.380  11.539  0.00  0.00    +0.000 A 
ATOM     23  C   UNL     1      45.524   3.298  12.317  0.00  0.00    +0.000 A 
ATOM     24  C   UNL     1      46.280   3.511  13.469  0.00  0.00    +0.000 A 
BRANCH  22  25
ATOM     25  C   UNL     1      44.259   4.141  10.304  0.00  0.00    +0.000 C 
BRANCH  25  26
ATOM     26  N   UNL     1      44.962   4.552   9.087  0.00  0.00    +0.000 NA
ATOM     27  H   UNL     1      45.406   5.456   9.251  0.00  0.00    +0.000 HD
BRANCH  26  28
ATOM     28  C   UNL     1      45.963   3.567   8.652  0.00  0.00    +0.000 C 
ATOM     29  C   UNL     1      46.577   3.898   7.285  0.00  0.00    +0.000 C 
ATOM     30  C   UNL     1      47.481   2.769   6.812  0.00  0.00    +0.000 C 
ATOM     31  O   UNL     1      46.773   1.534   6.776  0.00  0.00    +0.000 OA
ATOM     32  C   UNL     1      46.300   1.150   8.066  0.00  0.00    +0.000 C 
ATOM     33  C   UNL     1      45.311   2.177   8.603  0.00  0.00    +0.000 C 
ENDBRANCH  26  28
ENDBRANCH  25  26
ENDBRANCH  22  25
ENDBRANCH  18  19
ENDBRANCH   1  18
TORSDOF 8
ENDMDL
MODEL 6
REMARK VINA RESULT:    -7.136      3.133      8.988
REMARK INTER + INTRA:         -11.199
REMARK INTER:                 -10.197
REMARK INTRA:                  -1.002
REMARK UNBOUND:                -0.934
REMARK  Name = 
REMARK  8 active torsions:
REMARK  status: ('A' for Active; 'I' for Inactive)
REMARK    1  A    between atoms: N_1  and  C_2
REMARK    2  A    between atoms: C_2  and  C_3
REMARK    3  A    between atoms: C_2  and  C_18
REMARK    4  A    between atoms: C_3  and  C_4
REMARK    5  A    between atoms: C_7  and  C_8
REMARK    6  A    between atoms: C_8  and  N_9
REMARK    7  A    between atoms: N_9  and  C_10
REMARK    8  A    between atoms: C_18  and  C_20
REMARK                            x       y       z     vdW  Elec       q    Type
REMARK                         _______ _______ _______ _____ _____    ______ ____
ROOT
ATOM      1  C   UNL     1      46.009   7.577  12.030  0.00  0.00    +0.000 C 
ENDROOT
BRANCH   1   2
ATOM      2  N   UNL     1      45.763   8.292  13.309  0.00  0.00    +0.000 NA
ATOM      3  H   UNL     1      46.105   9.247  13.232  0.00  0.00    +0.000 HD
ATOM      4  H   UNL     1      46.339   7.836  14.025  0.00  0.00    +0.000 HD
ENDBRANCH   1   2
BRANCH   1   5
ATOM      5  C   UNL     1      44.694   7.004  11.481  0.00  0.00    +0.000 C 
ATOM      6  O   UNL     1      43.820   7.785  11.082  0.00  0.00    +0.000 OA
BRANCH   5   7
ATOM      7  C   UNL     1      44.444   5.547  11.401  0.00  0.00    +0.000 A 
ATOM      8  C   UNL     1      43.809   4.929  12.473  0.00  0.00    +0.000 A 
ATOM      9  S   UNL     1      43.459   3.284  12.220  0.00  0.00    +0.000 S 
ATOM     10  C   UNL     1      44.139   3.331  10.662  0.00  0.00    +0.000 A 
ATOM     11  N   UNL     1      44.088   2.235   9.859  0.00  0.00    +0.000 NA
ATOM     12  C   UNL     1      44.593   2.409   8.685  0.00  0.00    +0.000 A 
ATOM     13  N   UNL     1      45.183   3.567   8.257  0.00  0.00    +0.000 N 
ATOM     14  C   UNL     1      45.402   4.635   9.092  0.00  0.00    +0.000 A 
ATOM     15  O   UNL     1      46.184   5.518   8.765  0.00  0.00    +0.000 OA
ATOM     16  C   UNL     1      44.706   4.563  10.369  0.00  0.00    +0.000 A 
ATOM     17  H   UNL     1      45.647   3.605   7.362  0.00  0.00    +0.000 HD
ENDBRANCH   5   7
ENDBRANCH   1   5
BRANCH   1  18
ATOM     18  C   UNL     1      47.072   6.462  12.136  0.00  0.00    +0.000 C 
BRANCH  18  19
ATOM     19  C   UNL     1      47.476   6.051  13.533  0.00  0.00    +0.000 A 
ATOM     20  C   UNL     1      46.919   4.911  14.133  0.00  0.00    +0.000 A 
ATOM     21  C   UNL     1      47.309   4.523  15.415  0.00  0.00    +0.000 A 
ATOM     22  C   UNL     1      48.262   5.265  16.123  0.00  0.00    +0.000 A 
ATOM     23  C   UNL     1      48.812   6.406  15.526  0.00  0.00    +0.000 A 
ATOM     24  C   UNL     1      48.422   6.794  14.245  0.00  0.00    +0.000 A 
BRANCH  22  25
ATOM     25  C   UNL     1      48.676   4.862  17.516  0.00  0.00    +0.000 C 
BRANCH  25  26
ATOM     26  N   UNL     1      50.109   5.063  17.736  0.00  0.00    +0.000 NA
ATOM     27  H   UNL     1      50.237   5.789  18.441  0.00  0.00    +0.000 HD
BRANCH  26  28
ATOM     28  C   UNL     1      50.796   3.830  18.148  0.00  0.00    +0.000 C 
ATOM     29  C   UNL     1      52.324   3.975  18.176  0.00  0.00    +0.000 C 
ATOM     30  C   UNL     1      52.988   2.634  18.450  0.00  0.00    +0.000 C 
ATOM     31  O   UNL     1      52.579   1.661  17.493  0.00  0.00    +0.000 OA
ATOM     32  C   UNL     1      51.172   1.425  17.539  0.00  0.00    +0.000 C 
ATOM     33  C   UNL     1      50.403   2.694  17.193  0.00  0.00    +0.000 C 
ENDBRANCH  26  28
ENDBRANCH  25  26
ENDBRANCH  22  25
ENDBRANCH  18  19
ENDBRANCH   1  18
TORSDOF 8
ENDMDL
MODEL 7
REMARK VINA RESULT:    -7.135      3.633      9.584
REMARK INTER + INTRA:         -11.197
REMARK INTER:                 -10.133
REMARK INTRA:                  -1.063
REMARK UNBOUND:                -0.934
REMARK  Name = 
REMARK  8 active torsions:
REMARK  status: ('A' for Active; 'I' for Inactive)
REMARK    1  A    between atoms: N_1  and  C_2
REMARK    2  A    between atoms: C_2  and  C_3
REMARK    3  A    between atoms: C_2  and  C_18
REMARK    4  A    between atoms: C_3  and  C_4
REMARK    5  A    between atoms: C_7  and  C_8
REMARK    6  A    between atoms: C_8  and  N_9
REMARK    7  A    between atoms: N_9  and  C_10
REMARK    8  A    between atoms: C_18  and  C_20
REMARK                            x       y       z     vdW  Elec       q    Type
REMARK                         _______ _______ _______ _____ _____    ______ ____
ROOT
ATOM      1  C   UNL     1      46.015   7.605  12.024  0.00  0.00    +0.000 C 
ENDROOT
BRANCH   1   2
ATOM      2  N   UNL     1      45.769   8.301  13.314  0.00  0.00    +0.000 NA
ATOM      3  H   UNL     1      46.382   9.110  13.381  0.00  0.00    +0.000 HD
ATOM      4  H   UNL     1      46.055   7.659  14.062  0.00  0.00    +0.000 HD
ENDBRANCH   1   2
BRANCH   1   5
ATOM      5  C   UNL     1      44.698   7.041  11.468  0.00  0.00    +0.000 C 
ATOM      6  O   UNL     1      43.832   7.827  11.064  0.00  0.00    +0.000 OA
BRANCH   5   7
ATOM      7  C   UNL     1      44.440   5.586  11.385  0.00  0.00    +0.000 A 
ATOM      8  C   UNL     1      43.785   4.972  12.449  0.00  0.00    +0.000 A 
ATOM      9  S   UNL     1      43.428   3.330  12.191  0.00  0.00    +0.000 S 
ATOM     10  C   UNL     1      44.130   3.371  10.644  0.00  0.00    +0.000 A 
ATOM     11  N   UNL     1      44.084   2.275   9.841  0.00  0.00    +0.000 NA
ATOM     12  C   UNL     1      44.607   2.444   8.674  0.00  0.00    +0.000 A 
ATOM     13  N   UNL     1      45.211   3.597   8.253  0.00  0.00    +0.000 N 
ATOM     14  C   UNL     1      45.425   4.665   9.091  0.00  0.00    +0.000 A 
ATOM     15  O   UNL     1      46.217   5.543   8.774  0.00  0.00    +0.000 OA
ATOM     16  C   UNL     1      44.710   4.598  10.358  0.00  0.00    +0.000 A 
ATOM     17  H   UNL     1      45.687   3.632   7.365  0.00  0.00    +0.000 HD
ENDBRANCH   5   7
ENDBRANCH   1   5
BRANCH   1  18
ATOM     18  C   UNL     1      47.077   6.488  12.113  0.00  0.00    +0.000 C 
BRANCH  18  19
ATOM     19  C   UNL     1      47.364   5.944  13.492  0.00  0.00    +0.000 A 
ATOM     20  C   UNL     1      48.254   6.606  14.352  0.00  0.00    +0.000 A 
ATOM     21  C   UNL     1      48.503   6.112  15.633  0.00  0.00    +0.000 A 
ATOM     22  C   UNL     1      47.868   4.947  16.080  0.00  0.00    +0.000 A 
ATOM     23  C   UNL     1      46.985   4.283  15.219  0.00  0.00    +0.000 A 
ATOM     24  C   UNL     1      46.737   4.777  13.939  0.00  0.00    +0.000 A 
BRANCH  22  25
ATOM     25  C   UNL     1      48.144   4.395  17.457  0.00  0.00    +0.000 C 
BRANCH  25  26
ATOM     26  N   UNL     1      47.078   4.733  18.401  0.00  0.00    +0.000 NA
ATOM     27  H   UNL     1      46.697   3.871  18.792  0.00  0.00    +0.000 HD
BRANCH  26  28
ATOM     28  C   UNL     1      47.538   5.619  19.481  0.00  0.00    +0.000 C 
ATOM     29  C   UNL     1      47.447   7.107  19.117  0.00  0.00    +0.000 C 
ATOM     30  C   UNL     1      48.082   7.966  20.199  0.00  0.00    +0.000 C 
ATOM     31  O   UNL     1      49.431   7.573  20.432  0.00  0.00    +0.000 OA
ATOM     32  C   UNL     1      49.523   6.225  20.891  0.00  0.00    +0.000 C 
ATOM     33  C   UNL     1      48.988   5.262  19.839  0.00  0.00    +0.000 C 
ENDBRANCH  26  28
ENDBRANCH  25  26
ENDBRANCH  22  25
ENDBRANCH  18  19
ENDBRANCH   1  18
TORSDOF 8
ENDMDL
MODEL 8
REMARK VINA RESULT:    -6.610      4.330      9.458
REMARK INTER + INTRA:         -10.442
REMARK INTER:                  -9.268
REMARK INTRA:                  -1.174
REMARK UNBOUND:                -0.934
REMARK  Name = 
REMARK  8 active torsions:
REMARK  status: ('A' for Active; 'I' for Inactive)
REMARK    1  A    between atoms: N_1  and  C_2
REMARK    2  A    between atoms: C_2  and  C_3
REMARK    3  A    between atoms: C_2  and  C_18
REMARK    4  A    between atoms: C_3  and  C_4
REMARK    5  A    between atoms: C_7  and  C_8
REMARK    6  A    between atoms: C_8  and  N_9
REMARK    7  A    between atoms: N_9  and  C_10
REMARK    8  A    between atoms: C_18  and  C_20
REMARK                            x       y       z     vdW  Elec       q    Type
REMARK                         _______ _______ _______ _____ _____    ______ ____
ROOT
ATOM      1  C   UNL     1      47.169   7.732  11.977  0.00  0.00    +0.000 C 
ENDROOT
BRANCH   1   2
ATOM      2  N   UNL     1      47.288   8.858  12.940  0.00  0.00    +0.000 NA
ATOM      3  H   UNL     1      46.362   9.223  13.148  0.00  0.00    +0.000 HD
ATOM      4  H   UNL     1      47.794   9.612  12.461  0.00  0.00    +0.000 HD
ENDBRANCH   1   2
BRANCH   1   5
ATOM      5  C   UNL     1      45.703   7.285  11.865  0.00  0.00    +0.000 C 
ATOM      6  O   UNL     1      44.828   7.952  12.432  0.00  0.00    +0.000 OA
BRANCH   5   7
ATOM      7  C   UNL     1      45.303   6.092  11.086  0.00  0.00    +0.000 A 
ATOM      8  C   UNL     1      45.824   5.937   9.805  0.00  0.00    +0.000 A 
ATOM      9  S   UNL     1      45.400   4.471   9.055  0.00  0.00    +0.000 S 
ATOM     10  C   UNL     1      44.506   3.979  10.414  0.00  0.00    +0.000 A 
ATOM     11  N   UNL     1      43.935   2.745  10.449  0.00  0.00    +0.000 NA
ATOM     12  C   UNL     1      43.325   2.469  11.552  0.00  0.00    +0.000 A 
ATOM     13  N   UNL     1      43.197   3.332  12.606  0.00  0.00    +0.000 N 
ATOM     14  C   UNL     1      43.614   4.640  12.542  0.00  0.00    +0.000 A 
ATOM     15  O   UNL     1      43.221   5.448  13.374  0.00  0.00    +0.000 OA
ATOM     16  C   UNL     1      44.456   4.957  11.397  0.00  0.00    +0.000 A 
ATOM     17  H   UNL     1      42.623   3.091  13.399  0.00  0.00    +0.000 HD
ENDBRANCH   5   7
ENDBRANCH   1   5
BRANCH   1  18
ATOM     18  C   UNL     1      48.068   6.525  12.318  0.00  0.00    +0.000 C 
BRANCH  18  19
ATOM     19  C   UNL     1      47.936   5.962  13.713  0.00  0.00    +0.000 A 
ATOM     20  C   UNL     1      48.623   6.546  14.789  0.00  0.00    +0.000 A 
ATOM     21  C   UNL     1      48.484   6.035  16.080  0.00  0.00    +0.000 A 
ATOM     22  C   UNL     1      47.656   4.932  16.323  0.00  0.00    +0.000 A 
ATOM     23  C   UNL     1      46.976   4.347  15.247  0.00  0.00    +0.000 A 
ATOM     24  C   UNL     1      47.116   4.857  13.957  0.00  0.00    +0.000 A 
BRANCH  22  25
ATOM     25  C   UNL     1      47.513   4.364  17.712  0.00  0.00    +0.000 C 
BRANCH  25  26
ATOM     26  N   UNL     1      46.612   5.168  18.539  0.00  0.00    +0.000 NA
ATOM     27  H   UNL     1      45.870   4.568  18.900  0.00  0.00    +0.000 HD
BRANCH  26  28
ATOM     28  C   UNL     1      47.308   5.836  19.648  0.00  0.00    +0.000 C 
ATOM     29  C   UNL     1      47.598   7.318  19.370  0.00  0.00    +0.000 C 
ATOM     30  C   UNL     1      48.457   7.916  20.474  0.00  0.00    +0.000 C 
ATOM     31  O   UNL     1      49.663   7.175  20.636  0.00  0.00    +0.000 OA
ATOM     32  C   UNL     1      49.412   5.822  21.016  0.00  0.00    +0.000 C 
ATOM     33  C   UNL     1      48.624   5.097  19.932  0.00  0.00    +0.000 C 
ENDBRANCH  26  28
ENDBRANCH  25  26
ENDBRANCH  22  25
ENDBRANCH  18  19
ENDBRANCH   1  18
TORSDOF 8
ENDMDL
MODEL 9
REMARK VINA RESULT:    -6.475      3.408      4.361
REMARK INTER + INTRA:         -10.248
REMARK INTER:                  -8.892
REMARK INTRA:                  -1.357
REMARK UNBOUND:                -0.934
REMARK  Name = 
REMARK  8 active torsions:
REMARK  status: ('A' for Active; 'I' for Inactive)
REMARK    1  A    between atoms: N_1  and  C_2
REMARK    2  A    between atoms: C_2  and  C_3
REMARK    3  A    between atoms: C_2  and  C_18
REMARK    4  A    between atoms: C_3  and  C_4
REMARK    5  A    between atoms: C_7  and  C_8
REMARK    6  A    between atoms: C_8  and  N_9
REMARK    7  A    between atoms: N_9  and  C_10
REMARK    8  A    between atoms: C_18  and  C_20
REMARK                            x       y       z     vdW  Elec       q    Type
REMARK                         _______ _______ _______ _____ _____    ______ ____
ROOT
ATOM      1  C   UNL     1      48.845   9.691  14.305  0.00  0.00    +0.000 C 
ENDROOT
BRANCH   1   2
ATOM      2  N   UNL     1      49.392  11.073  14.340  0.00  0.00    +0.000 NA
ATOM      3  H   UNL     1      50.198  11.131  13.722  0.00  0.00    +0.000 HD
ATOM      4  H   UNL     1      49.745  11.233  15.290  0.00  0.00    +0.000 HD
ENDBRANCH   1   2
BRANCH   1   5
ATOM      5  C   UNL     1      49.603   8.797  15.298  0.00  0.00    +0.000 C 
ATOM      6  O   UNL     1      50.688   8.309  14.957  0.00  0.00    +0.000 OA
BRANCH   5   7
ATOM      7  C   UNL     1      49.084   8.513  16.654  0.00  0.00    +0.000 A 
ATOM      8  C   UNL     1      49.026   9.560  17.569  0.00  0.00    +0.000 A 
ATOM      9  S   UNL     1      48.295   9.151  19.049  0.00  0.00    +0.000 S 
ATOM     10  C   UNL     1      48.021   7.557  18.527  0.00  0.00    +0.000 A 
ATOM     11  N   UNL     1      47.342   6.684  19.318  0.00  0.00    +0.000 NA
ATOM     12  C   UNL     1      47.154   5.521  18.793  0.00  0.00    +0.000 A 
ATOM     13  N   UNL     1      47.623   5.138  17.566  0.00  0.00    +0.000 N 
ATOM     14  C   UNL     1      48.453   5.933  16.813  0.00  0.00    +0.000 A 
ATOM     15  O   UNL     1      49.082   5.450  15.880  0.00  0.00    +0.000 OA
ATOM     16  C   UNL     1      48.557   7.311  17.272  0.00  0.00    +0.000 A 
ATOM     17  H   UNL     1      47.527   4.183  17.256  0.00  0.00    +0.000 HD
ENDBRANCH   5   7
ENDBRANCH   1   5
BRANCH   1  18
ATOM     18  C   UNL     1      48.855   9.055  12.899  0.00  0.00    +0.000 C 
BRANCH  18  19
ATOM     19  C   UNL     1      47.765   8.050  12.609  0.00  0.00    +0.000 A 
ATOM     20  C   UNL     1      46.515   8.469  12.128  0.00  0.00    +0.000 A 
ATOM     21  C   UNL     1      45.517   7.538  11.842  0.00  0.00    +0.000 A 
ATOM     22  C   UNL     1      45.746   6.169  12.031  0.00  0.00    +0.000 A 
ATOM     23  C   UNL     1      46.992   5.753  12.517  0.00  0.00    +0.000 A 
ATOM     24  C   UNL     1      47.990   6.684  12.803  0.00  0.00    +0.000 A 
BRANCH  22  25
ATOM     25  C   UNL     1      44.668   5.157  11.741  0.00  0.00    +0.000 C 
BRANCH  25  26
ATOM     26  N   UNL     1      44.025   5.401  10.448  0.00  0.00    +0.000 NA
ATOM     27  H   UNL     1      44.371   6.283  10.069  0.00  0.00    +0.000 HD
BRANCH  26  28
ATOM     28  C   UNL     1      44.253   4.312   9.488  0.00  0.00    +0.000 C 
ATOM     29  C   UNL     1      44.348   2.933  10.155  0.00  0.00    +0.000 C 
ATOM     30  C   UNL     1      44.743   1.870   9.141  0.00  0.00    +0.000 C 
ATOM     31  O   UNL     1      45.962   2.215   8.492  0.00  0.00    +0.000 OA
ATOM     32  C   UNL     1      45.852   3.438   7.763  0.00  0.00    +0.000 C 
ATOM     33  C   UNL     1      45.541   4.596   8.702  0.00  0.00    +0.000 C 
ENDBRANCH  26  28
ENDBRANCH  25  26
ENDBRANCH  22  25
ENDBRANCH  18  19
ENDBRANCH   1  18
TORSDOF 8
ENDMDL
