MODEL 1
REMARK VINA RESULT:    -8.081      0.000      0.000
REMARK INTER + INTRA:         -11.634
REMARK INTER:                 -10.679
REMARK INTRA:                  -0.955
REMARK UNBOUND:                -0.955
REMARK  Name = 
REMARK  6 active torsions:
REMARK  status: ('A' for Active; 'I' for Inactive)
REMARK    1  A    between atoms: C_2  and  C_4
REMARK    2  A    between atoms: C_8  and  C_9
REMARK    3  A    between atoms: C_9  and  C_10
REMARK    4  A    between atoms: C_10  and  C_11
REMARK    5  A    between atoms: C_16  and  N_17
REMARK    6  A    between atoms: C_21  and  N_22
REMARK                            x       y       z     vdW  Elec       q    Type
REMARK                         _______ _______ _______ _____ _____    ______ ____
ROOT
ATOM      1  C   UNL     1      46.294   5.838  12.073  0.00  0.00    +0.000 A 
ATOM      2  C   UNL     1      47.143   6.800  11.522  0.00  0.00    +0.000 A 
ATOM      3  C   UNL     1      48.242   7.250  12.244  0.00  0.00    +0.000 A 
ATOM      4  F   UNL     1      49.032   8.194  11.716  0.00  0.00    +0.000 F 
ATOM      5  C   UNL     1      48.512   6.771  13.525  0.00  0.00    +0.000 A 
ATOM      6  C   UNL     1      47.684   5.813  14.116  0.00  0.00    +0.000 A 
ATOM      7  C   UNL     1      46.611   5.333  13.344  0.00  0.00    +0.000 A 
ENDROOT
BRANCH   6   8
ATOM      8  N   UNL     1      47.852   5.422  15.432  0.00  0.00    +0.000 N 
ATOM      9  C   UNL     1      48.798   6.122  16.300  0.00  0.00    +0.000 C 
ATOM     10  C   UNL     1      49.620   5.086  17.061  0.00  0.00    +0.000 C 
ATOM     11  C   UNL     1      48.720   4.133  17.844  0.00  0.00    +0.000 C 
ATOM     12  C   UNL     1      47.681   3.466  16.925  0.00  0.00    +0.000 C 
ATOM     13  C   UNL     1      46.903   4.527  16.104  0.00  0.00    +0.000 C 
BRANCH  12  14
ATOM     14  N   UNL     1      46.791   2.617  17.731  0.00  0.00    +0.000 NA
ATOM     15  H   UNL     1      46.787   1.669  17.356  0.00  0.00    +0.000 HD
ATOM     16  H   UNL     1      45.833   2.957  17.636  0.00  0.00    +0.000 HD
ENDBRANCH  12  14
ENDBRANCH   6   8
BRANCH   1  17
ATOM     17  C   UNL     1      45.084   5.370  11.295  0.00  0.00    +0.000 C 
BRANCH  17  18
ATOM     18  C   UNL     1      45.201   5.494   9.765  0.00  0.00    +0.000 C 
BRANCH  18  23
ATOM     19  C   UNL     1      46.472   2.815   7.374  0.00  0.00    +0.000 A 
ATOM     20  C   UNL     1      45.941   1.653   7.945  0.00  0.00    +0.000 A 
ATOM     21  C   UNL     1      45.139   1.742   9.086  0.00  0.00    +0.000 A 
ATOM     22  C   UNL     1      44.879   2.986   9.665  0.00  0.00    +0.000 A 
ATOM     23  C   UNL     1      45.420   4.153   9.111  0.00  0.00    +0.000 A 
ATOM     24  C   UNL     1      46.213   4.060   7.961  0.00  0.00    +0.000 A 
BRANCH  19  26
ATOM     25  N   UNL     1      48.665   2.430   6.380  0.00  0.00    +0.000 N 
ATOM     26  C   UNL     1      47.356   2.775   6.181  0.00  0.00    +0.000 C 
ATOM     27  O   UNL     1      46.930   2.996   5.050  0.00  0.00    +0.000 OA
ATOM     28  H   UNL     1      49.224   2.309   5.544  0.00  0.00    +0.000 HD
ATOM     29  H   UNL     1      48.984   1.988   7.227  0.00  0.00    +0.000 HD
ENDBRANCH  19  26
ENDBRANCH  18  23
ENDBRANCH  17  18
ENDBRANCH   1  17
TORSDOF 6
ENDMDL
MODEL 2
REMARK VINA RESULT:    -7.607      2.910      7.861
REMARK INTER + INTRA:         -11.008
REMARK INTER:                 -10.027
REMARK INTRA:                  -0.981
REMARK UNBOUND:                -0.955
REMARK  Name = 
REMARK  6 active torsions:
REMARK  status: ('A' for Active; 'I' for Inactive)
REMARK    1  A    between atoms: C_2  and  C_4
REMARK    2  A    between atoms: C_8  and  C_9
REMARK    3  A    between atoms: C_9  and  C_10
REMARK    4  A    between atoms: C_10  and  C_11
REMARK    5  A    between atoms: C_16  and  N_17
REMARK    6  A    between atoms: C_21  and  N_22
REMARK                            x       y       z     vdW  Elec       q    Type
REMARK                         _______ _______ _______ _____ _____    ______ ____
ROOT
ATOM      1  C   UNL     1      45.421   6.452  11.804  0.00  0.00    +0.000 A 
ATOM      2  C   UNL     1      44.329   6.178  12.630  0.00  0.00    +0.000 A 
ATOM      3  C   UNL     1      43.536   5.063  12.383  0.00  0.00    +0.000 A 
ATOM      4  F   UNL     1      42.474   4.827  13.165  0.00  0.00    +0.000 F 
ATOM      5  C   UNL     1      43.799   4.210  11.312  0.00  0.00    +0.000 A 
ATOM      6  C   UNL     1      44.877   4.452  10.457  0.00  0.00    +0.000 A 
ATOM      7  C   UNL     1      45.697   5.555  10.761  0.00  0.00    +0.000 A 
ENDROOT
BRANCH   6   8
ATOM      8  N   UNL     1      45.079   3.703   9.313  0.00  0.00    +0.000 N 
ATOM      9  C   UNL     1      44.638   2.309   9.251  0.00  0.00    +0.000 C 
ATOM     10  C   UNL     1      45.761   1.469   8.650  0.00  0.00    +0.000 C 
ATOM     11  C   UNL     1      46.176   2.002   7.280  0.00  0.00    +0.000 C 
ATOM     12  C   UNL     1      46.561   3.490   7.353  0.00  0.00    +0.000 C 
ATOM     13  C   UNL     1      45.441   4.320   8.033  0.00  0.00    +0.000 C 
BRANCH  12  14
ATOM     14  N   UNL     1      46.881   3.977   6.003  0.00  0.00    +0.000 NA
ATOM     15  H   UNL     1      47.681   4.608   6.046  0.00  0.00    +0.000 HD
ATOM     16  H   UNL     1      46.102   4.541   5.661  0.00  0.00    +0.000 HD
ENDBRANCH  12  14
ENDBRANCH   6   8
BRANCH   1  17
ATOM     17  C   UNL     1      46.266   7.681  12.060  0.00  0.00    +0.000 C 
BRANCH  17  18
ATOM     18  C   UNL     1      47.760   7.408  12.309  0.00  0.00    +0.000 C 
BRANCH  18  23
ATOM     19  C   UNL     1      47.908   5.213  15.420  0.00  0.00    +0.000 A 
ATOM     20  C   UNL     1      48.588   6.044  16.318  0.00  0.00    +0.000 A 
ATOM     21  C   UNL     1      48.966   7.331  15.926  0.00  0.00    +0.000 A 
ATOM     22  C   UNL     1      48.681   7.783  14.637  0.00  0.00    +0.000 A 
ATOM     23  C   UNL     1      48.016   6.954  13.725  0.00  0.00    +0.000 A 
ATOM     24  C   UNL     1      47.628   5.670  14.126  0.00  0.00    +0.000 A 
BRANCH  19  26
ATOM     25  N   UNL     1      46.911   3.634  16.988  0.00  0.00    +0.000 N 
ATOM     26  C   UNL     1      47.511   3.827  15.773  0.00  0.00    +0.000 C 
ATOM     27  O   UNL     1      47.669   2.889  14.996  0.00  0.00    +0.000 OA
ATOM     28  H   UNL     1      46.557   2.702  17.164  0.00  0.00    +0.000 HD
ATOM     29  H   UNL     1      46.526   4.394  17.525  0.00  0.00    +0.000 HD
ENDBRANCH  19  26
ENDBRANCH  18  23
ENDBRANCH  17  18
ENDBRANCH   1  17
TORSDOF 6
ENDMDL
MODEL 3
REMARK VINA RESULT:    -7.525      2.686      3.913
REMARK INTER + INTRA:         -10.899
REMARK INTER:                  -9.809
REMARK INTRA:                  -1.090
REMARK UNBOUND:                -0.955
REMARK  Name = 
REMARK  6 active torsions:
REMARK  status: ('A' for Active; 'I' for Inactive)
REMARK    1  A    between atoms: C_2  and  C_4
REMARK    2  A    between atoms: C_8  and  C_9
REMARK    3  A    between atoms: C_9  and  C_10
REMARK    4  A    between atoms: C_10  and  C_11
REMARK    5  A    between atoms: C_16  and  N_17
REMARK    6  A    between atoms: C_21  and  N_22
REMARK                            x       y       z     vdW  Elec       q    Type
REMARK                         _______ _______ _______ _____ _____    ______ ____
ROOT
ATOM      1  C   UNL     1      45.246   5.043  11.872  0.00  0.00    +0.000 A 
ATOM      2  C   UNL     1      45.644   4.118  12.839  0.00  0.00    +0.000 A 
ATOM      3  C   UNL     1      46.708   4.413  13.685  0.00  0.00    +0.000 A 
ATOM      4  F   UNL     1      47.098   3.505  14.589  0.00  0.00    +0.000 F 
ATOM      5  C   UNL     1      47.404   5.617  13.580  0.00  0.00    +0.000 A 
ATOM      6  C   UNL     1      47.043   6.567  12.621  0.00  0.00    +0.000 A 
ATOM      7  C   UNL     1      45.929   6.269  11.815  0.00  0.00    +0.000 A 
ENDROOT
BRANCH   6   8
ATOM      8  N   UNL     1      47.798   7.705  12.408  0.00  0.00    +0.000 N 
ATOM      9  C   UNL     1      48.846   7.720  11.387  0.00  0.00    +0.000 C 
ATOM     10  C   UNL     1      50.098   8.358  11.981  0.00  0.00    +0.000 C 
ATOM     11  C   UNL     1      49.802   9.755  12.522  0.00  0.00    +0.000 C 
ATOM     12  C   UNL     1      48.645   9.727  13.537  0.00  0.00    +0.000 C 
ATOM     13  C   UNL     1      47.404   9.012  12.944  0.00  0.00    +0.000 C 
BRANCH  12  14
ATOM     14  N   UNL     1      48.347  11.100  13.973  0.00  0.00    +0.000 NA
ATOM     15  H   UNL     1      48.239  11.704  13.159  0.00  0.00    +0.000 HD
ATOM     16  H   UNL     1      49.150  11.467  14.485  0.00  0.00    +0.000 HD
ENDBRANCH  12  14
ENDBRANCH   6   8
BRANCH   1  17
ATOM     17  C   UNL     1      44.106   4.709  10.937  0.00  0.00    +0.000 C 
BRANCH  17  18
ATOM     18  C   UNL     1      44.412   4.889   9.439  0.00  0.00    +0.000 C 
BRANCH  18  23
ATOM     19  C   UNL     1      46.514   2.612   7.224  0.00  0.00    +0.000 A 
ATOM     20  C   UNL     1      46.251   1.356   7.782  0.00  0.00    +0.000 A 
ATOM     21  C   UNL     1      45.363   1.243   8.855  0.00  0.00    +0.000 A 
ATOM     22  C   UNL     1      44.749   2.382   9.380  0.00  0.00    +0.000 A 
ATOM     23  C   UNL     1      45.018   3.646   8.839  0.00  0.00    +0.000 A 
ATOM     24  C   UNL     1      45.900   3.752   7.756  0.00  0.00    +0.000 A 
BRANCH  19  26
ATOM     25  N   UNL     1      48.797   2.568   6.369  0.00  0.00    +0.000 N 
ATOM     26  C   UNL     1      47.473   2.793   6.105  0.00  0.00    +0.000 C 
ATOM     27  O   UNL     1      47.101   3.089   4.972  0.00  0.00    +0.000 OA
ATOM     28  H   UNL     1      49.419   2.596   5.570  0.00  0.00    +0.000 HD
ATOM     29  H   UNL     1      49.107   2.073   7.189  0.00  0.00    +0.000 HD
ENDBRANCH  19  26
ENDBRANCH  18  23
ENDBRANCH  17  18
ENDBRANCH   1  17
TORSDOF 6
ENDMDL
MODEL 4
REMARK VINA RESULT:    -7.519      1.769      2.595
REMARK INTER + INTRA:         -10.891
REMARK INTER:                 -10.438
REMARK INTRA:                  -0.453
REMARK UNBOUND:                -0.955
REMARK  Name = 
REMARK  6 active torsions:
REMARK  status: ('A' for Active; 'I' for Inactive)
REMARK    1  A    between atoms: C_2  and  C_4
REMARK    2  A    between atoms: C_8  and  C_9
REMARK    3  A    between atoms: C_9  and  C_10
REMARK    4  A    between atoms: C_10  and  C_11
REMARK    5  A    between atoms: C_16  and  N_17
REMARK    6  A    between atoms: C_21  and  N_22
REMARK                            x       y       z     vdW  Elec       q    Type
REMARK                         _______ _______ _______ _____ _____    ______ ____
ROOT
ATOM      1  C   UNL     1      44.393   5.076  11.948  0.00  0.00    +0.000 A 
ATOM      2  C   UNL     1      44.337   6.411  11.544  0.00  0.00    +0.000 A 
ATOM      3  C   UNL     1      45.255   7.327  12.045  0.00  0.00    +0.000 A 
ATOM      4  F   UNL     1      45.172   8.611  11.672  0.00  0.00    +0.000 F 
ATOM      5  C   UNL     1      46.233   6.944  12.962  0.00  0.00    +0.000 A 
ATOM      6  C   UNL     1      46.320   5.619  13.398  0.00  0.00    +0.000 A 
ATOM      7  C   UNL     1      45.415   4.701  12.834  0.00  0.00    +0.000 A 
ENDROOT
BRANCH   6   8
ATOM      8  N   UNL     1      47.190   5.242  14.404  0.00  0.00    +0.000 N 
ATOM      9  C   UNL     1      47.215   3.862  14.886  0.00  0.00    +0.000 C 
ATOM     10  C   UNL     1      47.233   3.877  16.411  0.00  0.00    +0.000 C 
ATOM     11  C   UNL     1      48.410   4.692  16.942  0.00  0.00    +0.000 C 
ATOM     12  C   UNL     1      48.409   6.118  16.362  0.00  0.00    +0.000 C 
ATOM     13  C   UNL     1      48.318   6.088  14.814  0.00  0.00    +0.000 C 
BRANCH  12  14
ATOM     14  N   UNL     1      49.598   6.839  16.840  0.00  0.00    +0.000 NA
ATOM     15  H   UNL     1      50.121   7.205  16.045  0.00  0.00    +0.000 HD
ATOM     16  H   UNL     1      50.223   6.178  17.303  0.00  0.00    +0.000 HD
ENDBRANCH  12  14
ENDBRANCH   6   8
BRANCH   1  17
ATOM     17  C   UNL     1      43.376   4.088  11.422  0.00  0.00    +0.000 C 
BRANCH  17  18
ATOM     18  C   UNL     1      43.965   2.789  10.841  0.00  0.00    +0.000 C 
BRANCH  18  23
ATOM     19  C   UNL     1      46.348   2.236   7.921  0.00  0.00    +0.000 A 
ATOM     20  C   UNL     1      46.389   3.512   7.347  0.00  0.00    +0.000 A 
ATOM     21  C   UNL     1      45.673   4.562   7.929  0.00  0.00    +0.000 A 
ATOM     22  C   UNL     1      44.904   4.336   9.073  0.00  0.00    +0.000 A 
ATOM     23  C   UNL     1      44.842   3.059   9.645  0.00  0.00    +0.000 A 
ATOM     24  C   UNL     1      45.572   2.014   9.065  0.00  0.00    +0.000 A 
BRANCH  19  26
ATOM     25  N   UNL     1      46.679  -0.171   7.726  0.00  0.00    +0.000 N 
ATOM     26  C   UNL     1      47.063   1.080   7.326  0.00  0.00    +0.000 C 
ATOM     27  O   UNL     1      47.937   1.225   6.474  0.00  0.00    +0.000 OA
ATOM     28  H   UNL     1      47.107  -0.945   7.233  0.00  0.00    +0.000 HD
ATOM     29  H   UNL     1      45.808  -0.341   8.203  0.00  0.00    +0.000 HD
ENDBRANCH  19  26
ENDBRANCH  18  23
ENDBRANCH  17  18
ENDBRANCH   1  17
TORSDOF 6
ENDMDL
MODEL 5
REMARK VINA RESULT:    -7.369      3.983      7.736
REMARK INTER + INTRA:         -10.693
REMARK INTER:                  -9.978
REMARK INTRA:                  -0.715
REMARK UNBOUND:                -0.955
REMARK  Name = 
REMARK  6 active torsions:
REMARK  status: ('A' for Active; 'I' for Inactive)
REMARK    1  A    between atoms: C_2  and  C_4
REMARK    2  A    between atoms: C_8  and  C_9
REMARK    3  A    between atoms: C_9  and  C_10
REMARK    4  A    between atoms: C_10  and  C_11
REMARK    5  A    between atoms: C_16  and  N_17
REMARK    6  A    between atoms: C_21  and  N_22
REMARK                            x       y       z     vdW  Elec       q    Type
REMARK                         _______ _______ _______ _____ _____    ______ ____
ROOT
ATOM      1  C   UNL     1      45.192   4.813  12.696  0.00  0.00    +0.000 A 
ATOM      2  C   UNL     1      43.894   5.304  12.851  0.00  0.00    +0.000 A 
ATOM      3  C   UNL     1      42.943   5.073  11.864  0.00  0.00    +0.000 A 
ATOM      4  F   UNL     1      41.709   5.574  12.011  0.00  0.00    +0.000 F 
ATOM      5  C   UNL     1      43.260   4.368  10.703  0.00  0.00    +0.000 A 
ATOM      6  C   UNL     1      44.548   3.865  10.505  0.00  0.00    +0.000 A 
ATOM      7  C   UNL     1      45.478   4.064  11.543  0.00  0.00    +0.000 A 
ENDROOT
BRANCH   6   8
ATOM      8  N   UNL     1      44.923   3.282   9.309  0.00  0.00    +0.000 N 
ATOM      9  C   UNL     1      44.693   1.857   9.074  0.00  0.00    +0.000 C 
ATOM     10  C   UNL     1      45.959   1.250   8.476  0.00  0.00    +0.000 C 
ATOM     11  C   UNL     1      46.373   1.983   7.202  0.00  0.00    +0.000 C 
ATOM     12  C   UNL     1      46.534   3.493   7.454  0.00  0.00    +0.000 C 
ATOM     13  C   UNL     1      45.268   4.082   8.129  0.00  0.00    +0.000 C 
BRANCH  12  14
ATOM     14  N   UNL     1      46.860   4.166   6.188  0.00  0.00    +0.000 NA
ATOM     15  H   UNL     1      47.642   4.805   6.329  0.00  0.00    +0.000 HD
ATOM     16  H   UNL     1      46.071   4.751   5.911  0.00  0.00    +0.000 HD
ENDBRANCH  12  14
ENDBRANCH   6   8
BRANCH   1  17
ATOM     17  C   UNL     1      46.232   5.089  13.759  0.00  0.00    +0.000 C 
BRANCH  17  18
ATOM     18  C   UNL     1      47.572   5.639  13.238  0.00  0.00    +0.000 C 
BRANCH  18  23
ATOM     19  C   UNL     1      46.161   9.036  12.244  0.00  0.00    +0.000 A 
ATOM     20  C   UNL     1      47.268   9.869  12.444  0.00  0.00    +0.000 A 
ATOM     21  C   UNL     1      48.484   9.323  12.865  0.00  0.00    +0.000 A 
ATOM     22  C   UNL     1      48.592   7.952  13.102  0.00  0.00    +0.000 A 
ATOM     23  C   UNL     1      47.486   7.111  12.922  0.00  0.00    +0.000 A 
ATOM     24  C   UNL     1      46.273   7.661  12.488  0.00  0.00    +0.000 A 
BRANCH  19  26
ATOM     25  N   UNL     1      43.988   8.705  11.190  0.00  0.00    +0.000 N 
ATOM     26  C   UNL     1      44.839   9.566  11.828  0.00  0.00    +0.000 C 
ATOM     27  O   UNL     1      44.493  10.718  12.081  0.00  0.00    +0.000 OA
ATOM     28  H   UNL     1      43.056   9.057  11.007  0.00  0.00    +0.000 HD
ATOM     29  H   UNL     1      44.120   7.707  11.205  0.00  0.00    +0.000 HD
ENDBRANCH  19  26
ENDBRANCH  18  23
ENDBRANCH  17  18
ENDBRANCH   1  17
TORSDOF 6
ENDMDL
MODEL 6
REMARK VINA RESULT:    -7.342      3.377      7.819
REMARK INTER + INTRA:         -10.658
REMARK INTER:                  -9.384
REMARK INTRA:                  -1.274
REMARK UNBOUND:                -0.955
REMARK  Name = 
REMARK  6 active torsions:
REMARK  status: ('A' for Active; 'I' for Inactive)
REMARK    1  A    between atoms: C_2  and  C_4
REMARK    2  A    between atoms: C_8  and  C_9
REMARK    3  A    between atoms: C_9  and  C_10
REMARK    4  A    between atoms: C_10  and  C_11
REMARK    5  A    between atoms: C_16  and  N_17
REMARK    6  A    between atoms: C_21  and  N_22
REMARK                            x       y       z     vdW  Elec       q    Type
REMARK                         _______ _______ _______ _____ _____    ______ ____
ROOT
ATOM      1  C   UNL     1      44.636   6.475  11.504  0.00  0.00    +0.000 A 
ATOM      2  C   UNL     1      44.043   5.849  12.602  0.00  0.00    +0.000 A 
ATOM      3  C   UNL     1      43.857   4.471  12.596  0.00  0.00    +0.000 A 
ATOM      4  F   UNL     1      43.260   3.885  13.643  0.00  0.00    +0.000 F 
ATOM      5  C   UNL     1      44.238   3.693  11.504  0.00  0.00    +0.000 A 
ATOM      6  C   UNL     1      44.829   4.281  10.383  0.00  0.00    +0.000 A 
ATOM      7  C   UNL     1      45.058   5.669  10.436  0.00  0.00    +0.000 A 
ENDROOT
BRANCH   6   8
ATOM      8  N   UNL     1      45.092   3.555   9.236  0.00  0.00    +0.000 N 
ATOM      9  C   UNL     1      44.730   2.140   9.154  0.00  0.00    +0.000 C 
ATOM     10  C   UNL     1      45.907   1.368   8.566  0.00  0.00    +0.000 C 
ATOM     11  C   UNL     1      46.318   1.936   7.210  0.00  0.00    +0.000 C 
ATOM     12  C   UNL     1      46.620   3.443   7.303  0.00  0.00    +0.000 C 
ATOM     13  C   UNL     1      45.444   4.204   7.968  0.00  0.00    +0.000 C 
BRANCH  12  14
ATOM     14  N   UNL     1      46.937   3.960   5.964  0.00  0.00    +0.000 NA
ATOM     15  H   UNL     1      46.385   3.464   5.264  0.00  0.00    +0.000 HD
ATOM     16  H   UNL     1      47.912   3.747   5.748  0.00  0.00    +0.000 HD
ENDBRANCH  12  14
ENDBRANCH   6   8
BRANCH   1  17
ATOM     17  C   UNL     1      44.814   7.978  11.503  0.00  0.00    +0.000 C 
BRANCH  17  18
ATOM     18  C   UNL     1      45.479   8.560  12.764  0.00  0.00    +0.000 C 
BRANCH  18  23
ATOM     19  C   UNL     1      48.759   7.199  14.142  0.00  0.00    +0.000 A 
ATOM     20  C   UNL     1      49.601   7.315  13.029  0.00  0.00    +0.000 A 
ATOM     21  C   UNL     1      49.113   7.870  11.842  0.00  0.00    +0.000 A 
ATOM     22  C   UNL     1      47.786   8.293  11.760  0.00  0.00    +0.000 A 
ATOM     23  C   UNL     1      46.931   8.166  12.862  0.00  0.00    +0.000 A 
ATOM     24  C   UNL     1      47.427   7.621  14.053  0.00  0.00    +0.000 A 
BRANCH  19  26
ATOM     25  N   UNL     1      48.260   6.042  16.229  0.00  0.00    +0.000 N 
ATOM     26  C   UNL     1      49.215   6.589  15.416  0.00  0.00    +0.000 C 
ATOM     27  O   UNL     1      50.404   6.531  15.719  0.00  0.00    +0.000 OA
ATOM     28  H   UNL     1      48.602   5.542  17.040  0.00  0.00    +0.000 HD
ATOM     29  H   UNL     1      47.331   5.830  15.903  0.00  0.00    +0.000 HD
ENDBRANCH  19  26
ENDBRANCH  18  23
ENDBRANCH  17  18
ENDBRANCH   1  17
TORSDOF 6
ENDMDL
MODEL 7
REMARK VINA RESULT:    -7.194      2.028      2.811
REMARK INTER + INTRA:         -10.463
REMARK INTER:                  -9.441
REMARK INTRA:                  -1.022
REMARK UNBOUND:                -0.955
REMARK  Name = 
REMARK  6 active torsions:
REMARK  status: ('A' for Active; 'I' for Inactive)
REMARK    1  A    between atoms: C_2  and  C_4
REMARK    2  A    between atoms: C_8  and  C_9
REMARK    3  A    between atoms: C_9  and  C_10
REMARK    4  A    between atoms: C_10  and  C_11
REMARK    5  A    between atoms: C_16  and  N_17
REMARK    6  A    between atoms: C_21  and  N_22
REMARK                            x       y       z     vdW  Elec       q    Type
REMARK                         _______ _______ _______ _____ _____    ______ ____
ROOT
ATOM      1  C   UNL     1      47.974   6.898  12.785  0.00  0.00    +0.000 A 
ATOM      2  C   UNL     1      49.016   7.819  12.660  0.00  0.00    +0.000 A 
ATOM      3  C   UNL     1      49.911   7.999  13.709  0.00  0.00    +0.000 A 
ATOM      4  F   UNL     1      50.889   8.907  13.588  0.00  0.00    +0.000 F 
ATOM      5  C   UNL     1      49.785   7.286  14.900  0.00  0.00    +0.000 A 
ATOM      6  C   UNL     1      48.752   6.360  15.069  0.00  0.00    +0.000 A 
ATOM      7  C   UNL     1      47.893   6.155  13.973  0.00  0.00    +0.000 A 
ENDROOT
BRANCH   6   8
ATOM      8  N   UNL     1      48.525   5.740  16.283  0.00  0.00    +0.000 N 
ATOM      9  C   UNL     1      49.268   6.148  17.475  0.00  0.00    +0.000 C 
ATOM     10  C   UNL     1      49.754   4.896  18.199  0.00  0.00    +0.000 C 
ATOM     11  C   UNL     1      48.590   3.967  18.537  0.00  0.00    +0.000 C 
ATOM     12  C   UNL     1      47.775   3.612  17.280  0.00  0.00    +0.000 C 
ATOM     13  C   UNL     1      47.350   4.893  16.516  0.00  0.00    +0.000 C 
BRANCH  12  14
ATOM     14  N   UNL     1      46.626   2.780  17.664  0.00  0.00    +0.000 NA
ATOM     15  H   UNL     1      46.811   1.806  17.424  0.00  0.00    +0.000 HD
ATOM     16  H   UNL     1      45.816   3.054  17.106  0.00  0.00    +0.000 HD
ENDBRANCH  12  14
ENDBRANCH   6   8
BRANCH   1  17
ATOM     17  C   UNL     1      46.987   6.724  11.653  0.00  0.00    +0.000 C 
BRANCH  17  18
ATOM     18  C   UNL     1      45.504   6.780  12.062  0.00  0.00    +0.000 C 
BRANCH  18  23
ATOM     19  C   UNL     1      44.357   3.528  10.443  0.00  0.00    +0.000 A 
ATOM     20  C   UNL     1      43.649   2.927  11.491  0.00  0.00    +0.000 A 
ATOM     21  C   UNL     1      43.512   3.594  12.711  0.00  0.00    +0.000 A 
ATOM     22  C   UNL     1      44.092   4.851  12.893  0.00  0.00    +0.000 A 
ATOM     23  C   UNL     1      44.817   5.453  11.857  0.00  0.00    +0.000 A 
ATOM     24  C   UNL     1      44.941   4.787  10.632  0.00  0.00    +0.000 A 
BRANCH  19  26
ATOM     25  N   UNL     1      44.360   3.595   8.006  0.00  0.00    +0.000 N 
ATOM     26  C   UNL     1      44.559   2.851   9.138  0.00  0.00    +0.000 C 
ATOM     27  O   UNL     1      44.934   1.684   9.063  0.00  0.00    +0.000 OA
ATOM     28  H   UNL     1      44.603   3.145   7.132  0.00  0.00    +0.000 HD
ATOM     29  H   UNL     1      44.319   4.601   8.022  0.00  0.00    +0.000 HD
ENDBRANCH  19  26
ENDBRANCH  18  23
ENDBRANCH  17  18
ENDBRANCH   1  17
TORSDOF 6
ENDMDL
MODEL 8
REMARK VINA RESULT:    -7.193      4.243      8.303
REMARK INTER + INTRA:         -10.460
REMARK INTER:                  -9.543
REMARK INTRA:                  -0.918
REMARK UNBOUND:                -0.955
REMARK  Name = 
REMARK  6 active torsions:
REMARK  status: ('A' for Active; 'I' for Inactive)
REMARK    1  A    between atoms: C_2  and  C_4
REMARK    2  A    between atoms: C_8  and  C_9
REMARK    3  A    between atoms: C_9  and  C_10
REMARK    4  A    between atoms: C_10  and  C_11
REMARK    5  A    between atoms: C_16  and  N_17
REMARK    6  A    between atoms: C_21  and  N_22
REMARK                            x       y       z     vdW  Elec       q    Type
REMARK                         _______ _______ _______ _____ _____    ______ ____
ROOT
ATOM      1  C   UNL     1      47.616   4.786  15.683  0.00  0.00    +0.000 A 
ATOM      2  C   UNL     1      48.445   5.889  15.470  0.00  0.00    +0.000 A 
ATOM      3  C   UNL     1      48.288   6.663  14.326  0.00  0.00    +0.000 A 
ATOM      4  F   UNL     1      49.109   7.701  14.119  0.00  0.00    +0.000 F 
ATOM      5  C   UNL     1      47.322   6.354  13.368  0.00  0.00    +0.000 A 
ATOM      6  C   UNL     1      46.477   5.255  13.540  0.00  0.00    +0.000 A 
ATOM      7  C   UNL     1      46.618   4.520  14.732  0.00  0.00    +0.000 A 
ENDROOT
BRANCH   6   8
ATOM      8  N   UNL     1      45.605   4.848  12.546  0.00  0.00    +0.000 N 
ATOM      9  C   UNL     1      45.266   5.747  11.443  0.00  0.00    +0.000 C 
ATOM     10  C   UNL     1      43.756   5.708  11.229  0.00  0.00    +0.000 C 
ATOM     11  C   UNL     1      43.270   4.283  10.979  0.00  0.00    +0.000 C 
ATOM     12  C   UNL     1      43.704   3.338  12.114  0.00  0.00    +0.000 C 
ATOM     13  C   UNL     1      45.230   3.441  12.369  0.00  0.00    +0.000 C 
BRANCH  12  14
ATOM     14  N   UNL     1      43.280   1.967  11.796  0.00  0.00    +0.000 NA
ATOM     15  H   UNL     1      42.437   1.736  12.321  0.00  0.00    +0.000 HD
ATOM     16  H   UNL     1      43.995   1.314  12.120  0.00  0.00    +0.000 HD
ENDBRANCH  12  14
ENDBRANCH   6   8
BRANCH   1  17
ATOM     17  C   UNL     1      47.806   3.930  16.916  0.00  0.00    +0.000 C 
BRANCH  17  18
ATOM     18  C   UNL     1      48.616   2.638  16.697  0.00  0.00    +0.000 C 
BRANCH  18  23
ATOM     19  C   UNL     1      52.169   1.735  17.732  0.00  0.00    +0.000 A 
ATOM     20  C   UNL     1      52.616   2.940  18.286  0.00  0.00    +0.000 A 
ATOM     21  C   UNL     1      51.751   4.036  18.358  0.00  0.00    +0.000 A 
ATOM     22  C   UNL     1      50.449   3.935  17.865  0.00  0.00    +0.000 A 
ATOM     23  C   UNL     1      49.998   2.739  17.293  0.00  0.00    +0.000 A 
ATOM     24  C   UNL     1      50.864   1.640  17.234  0.00  0.00    +0.000 A 
BRANCH  19  26
ATOM     25  N   UNL     1      52.833  -0.498  18.453  0.00  0.00    +0.000 N 
ATOM     26  C   UNL     1      53.055   0.550  17.602  0.00  0.00    +0.000 C 
ATOM     27  O   UNL     1      53.926   0.483  16.739  0.00  0.00    +0.000 OA
ATOM     28  H   UNL     1      53.378  -1.333  18.280  0.00  0.00    +0.000 HD
ATOM     29  H   UNL     1      51.979  -0.594  18.979  0.00  0.00    +0.000 HD
ENDBRANCH  19  26
ENDBRANCH  18  23
ENDBRANCH  17  18
ENDBRANCH   1  17
TORSDOF 6
ENDMDL
MODEL 9
REMARK VINA RESULT:    -6.956      3.570      7.871
REMARK INTER + INTRA:         -10.148
REMARK INTER:                  -9.125
REMARK INTRA:                  -1.023
REMARK UNBOUND:                -0.955
REMARK  Name = 
REMARK  6 active torsions:
REMARK  status: ('A' for Active; 'I' for Inactive)
REMARK    1  A    between atoms: C_2  and  C_4
REMARK    2  A    between atoms: C_8  and  C_9
REMARK    3  A    between atoms: C_9  and  C_10
REMARK    4  A    between atoms: C_10  and  C_11
REMARK    5  A    between atoms: C_16  and  N_17
REMARK    6  A    between atoms: C_21  and  N_22
REMARK                            x       y       z     vdW  Elec       q    Type
REMARK                         _______ _______ _______ _____ _____    ______ ____
ROOT
ATOM      1  C   UNL     1      46.908   8.088  13.188  0.00  0.00    +0.000 A 
ATOM      2  C   UNL     1      46.184   9.179  12.704  0.00  0.00    +0.000 A 
ATOM      3  C   UNL     1      45.124   8.974  11.829  0.00  0.00    +0.000 A 
ATOM      4  F   UNL     1      44.456  10.031  11.348  0.00  0.00    +0.000 F 
ATOM      5  C   UNL     1      44.771   7.693  11.406  0.00  0.00    +0.000 A 
ATOM      6  C   UNL     1      45.474   6.574  11.861  0.00  0.00    +0.000 A 
ATOM      7  C   UNL     1      46.507   6.803  12.789  0.00  0.00    +0.000 A 
ENDROOT
BRANCH   6   8
ATOM      8  N   UNL     1      45.232   5.311  11.355  0.00  0.00    +0.000 N 
ATOM      9  C   UNL     1      45.544   4.997   9.961  0.00  0.00    +0.000 C 
ATOM     10  C   UNL     1      44.364   4.243   9.355  0.00  0.00    +0.000 C 
ATOM     11  C   UNL     1      44.033   2.992  10.166  0.00  0.00    +0.000 C 
ATOM     12  C   UNL     1      43.784   3.335  11.646  0.00  0.00    +0.000 C 
ATOM     13  C   UNL     1      44.959   4.163  12.228  0.00  0.00    +0.000 C 
BRANCH  12  14
ATOM     14  N   UNL     1      43.544   2.096  12.399  0.00  0.00    +0.000 NA
ATOM     15  H   UNL     1      43.572   2.290  13.400  0.00  0.00    +0.000 HD
ATOM     16  H   UNL     1      44.310   1.445  12.221  0.00  0.00    +0.000 HD
ENDBRANCH  12  14
ENDBRANCH   6   8
BRANCH   1  17
ATOM     17  C   UNL     1      48.078   8.316  14.120  0.00  0.00    +0.000 C 
BRANCH  17  18
ATOM     18  C   UNL     1      48.847   7.047  14.529  0.00  0.00    +0.000 C 
BRANCH  18  23
ATOM     19  C   UNL     1      47.981   5.011  17.630  0.00  0.00    +0.000 A 
ATOM     20  C   UNL     1      48.226   5.936  18.651  0.00  0.00    +0.000 A 
ATOM     21  C   UNL     1      48.638   7.233  18.332  0.00  0.00    +0.000 A 
ATOM     22  C   UNL     1      48.819   7.602  16.998  0.00  0.00    +0.000 A 
ATOM     23  C   UNL     1      48.592   6.679  15.969  0.00  0.00    +0.000 A 
ATOM     24  C   UNL     1      48.169   5.385  16.294  0.00  0.00    +0.000 A 
BRANCH  19  26
ATOM     25  N   UNL     1      48.233   2.956  18.919  0.00  0.00    +0.000 N 
ATOM     26  C   UNL     1      47.574   3.611  17.914  0.00  0.00    +0.000 C 
ATOM     27  O   UNL     1      46.654   3.068  17.308  0.00  0.00    +0.000 OA
ATOM     28  H   UNL     1      47.871   2.043  19.164  0.00  0.00    +0.000 HD
ATOM     29  H   UNL     1      48.791   3.440  19.603  0.00  0.00    +0.000 HD
ENDBRANCH  19  26
ENDBRANCH  18  23
ENDBRANCH  17  18
ENDBRANCH   1  17
TORSDOF 6
ENDMDL
