MODEL 1
REMARK VINA RESULT:    -7.319      0.000      0.000
REMARK INTER + INTRA:          -8.849
REMARK INTER:                  -8.603
REMARK INTRA:                  -0.246
REMARK UNBOUND:                -0.246
REMARK  Name = 
REMARK  5 active torsions:
REMARK  status: ('A' for Active; 'I' for Inactive)
REMARK    1  A    between atoms: C_1  and  C_2
REMARK    2  A    between atoms: C_2  and  C_3
REMARK    3  A    between atoms: C_2  and  N_9
REMARK    4  A    between atoms: N_9  and  C_10
REMARK    5  A    between atoms: C_11  and  C_13
REMARK                            x       y       z     vdW  Elec       q    Type
REMARK                         _______ _______ _______ _____ _____    ______ ____
ROOT
ATOM      1  N   UNL     1      45.247   5.102  12.821  0.00  0.00    +0.000 N 
ATOM      2  C   UNL     1      44.986   6.533  12.844  0.00  0.00    +0.000 C 
ATOM      3  C   UNL     1      46.428   4.520  13.338  0.00  0.00    +0.000 C 
ATOM      4  O   UNL     1      46.586   3.299  13.345  0.00  0.00    +0.000 OA
ENDROOT
BRANCH   3   5
ATOM      5  C   UNL     1      47.483   5.385  13.925  0.00  0.00    +0.000 A 
ATOM      6  C   UNL     1      48.217   6.338  13.237  0.00  0.00    +0.000 A 
ATOM      7  S   UNL     1      49.337   7.197  14.196  0.00  0.00    +0.000 S 
ATOM      8  C   UNL     1      48.758   6.458  15.610  0.00  0.00    +0.000 A 
ATOM      9  N   UNL     1      49.217   6.849  16.828  0.00  0.00    +0.000 NA
ATOM     10  C   UNL     1      48.643   6.255  17.820  0.00  0.00    +0.000 A 
ATOM     11  N   UNL     1      47.682   5.285  17.700  0.00  0.00    +0.000 N 
ATOM     12  C   UNL     1      47.277   4.771  16.483  0.00  0.00    +0.000 A 
ATOM     13  O   UNL     1      46.593   3.756  16.434  0.00  0.00    +0.000 OA
ATOM     14  C   UNL     1      47.806   5.490  15.339  0.00  0.00    +0.000 A 
ATOM     15  H   UNL     1      47.319   4.816  18.516  0.00  0.00    +0.000 HD
ENDBRANCH   3   5
BRANCH   1  17
ATOM     16  C   UNL     1      42.809   4.729  12.336  0.00  0.00    +0.000 C 
ATOM     17  C   UNL     1      44.245   4.214  12.171  0.00  0.00    +0.000 C 
BRANCH  17  18
ATOM     18  C   UNL     1      44.593   3.917  10.710  0.00  0.00    +0.000 A 
ATOM     19  C   UNL     1      45.211   4.860   9.870  0.00  0.00    +0.000 A 
ATOM     20  C   UNL     1      45.613   4.531   8.575  0.00  0.00    +0.000 A 
ATOM     21  C   UNL     1      45.337   3.269   8.066  0.00  0.00    +0.000 A 
ATOM     22  C   UNL     1      44.662   2.340   8.854  0.00  0.00    +0.000 A 
ATOM     23  C   UNL     1      44.307   2.653  10.171  0.00  0.00    +0.000 A 
ENDBRANCH  17  18
ENDBRANCH   1  17
TORSDOF 3
ENDMDL
MODEL 2
REMARK VINA RESULT:    -6.490      3.604      6.559
REMARK INTER + INTRA:          -7.874
REMARK INTER:                  -7.269
REMARK INTRA:                  -0.605
REMARK UNBOUND:                -0.246
REMARK  Name = 
REMARK  5 active torsions:
REMARK  status: ('A' for Active; 'I' for Inactive)
REMARK    1  A    between atoms: C_1  and  C_2
REMARK    2  A    between atoms: C_2  and  C_3
REMARK    3  A    between atoms: C_2  and  N_9
REMARK    4  A    between atoms: N_9  and  C_10
REMARK    5  A    between atoms: C_11  and  C_13
REMARK                            x       y       z     vdW  Elec       q    Type
REMARK                         _______ _______ _______ _____ _____    ______ ____
ROOT
ATOM      1  N   UNL     1      46.679   7.294  12.421  0.00  0.00    +0.000 N 
ATOM      2  C   UNL     1      47.571   6.163  12.622  0.00  0.00    +0.000 C 
ATOM      3  C   UNL     1      45.547   7.249  11.574  0.00  0.00    +0.000 C 
ATOM      4  O   UNL     1      44.789   8.213  11.472  0.00  0.00    +0.000 OA
ENDROOT
BRANCH   3   5
ATOM      5  C   UNL     1      45.234   6.004  10.824  0.00  0.00    +0.000 A 
ATOM      6  C   UNL     1      45.740   5.666   9.579  0.00  0.00    +0.000 A 
ATOM      7  S   UNL     1      45.217   4.152   8.991  0.00  0.00    +0.000 S 
ATOM      8  C   UNL     1      44.437   3.803  10.458  0.00  0.00    +0.000 A 
ATOM      9  N   UNL     1      43.881   2.582  10.666  0.00  0.00    +0.000 NA
ATOM     10  C   UNL     1      43.383   2.427  11.848  0.00  0.00    +0.000 A 
ATOM     11  N   UNL     1      43.363   3.394  12.819  0.00  0.00    +0.000 N 
ATOM     12  C   UNL     1      43.804   4.686  12.606  0.00  0.00    +0.000 A 
ATOM     13  O   UNL     1      43.556   5.569  13.420  0.00  0.00    +0.000 OA
ATOM     14  C   UNL     1      44.480   4.872  11.337  0.00  0.00    +0.000 A 
ATOM     15  H   UNL     1      42.901   3.228  13.701  0.00  0.00    +0.000 HD
ENDBRANCH   3   5
BRANCH   1  17
ATOM     16  C   UNL     1      47.761   8.372  14.417  0.00  0.00    +0.000 C 
ATOM     17  C   UNL     1      47.007   8.578  13.096  0.00  0.00    +0.000 C 
BRANCH  17  18
ATOM     18  C   UNL     1      47.723   9.560  12.164  0.00  0.00    +0.000 A 
ATOM     19  C   UNL     1      47.095  10.701  11.636  0.00  0.00    +0.000 A 
ATOM     20  C   UNL     1      47.798  11.636  10.875  0.00  0.00    +0.000 A 
ATOM     21  C   UNL     1      49.131  11.408  10.562  0.00  0.00    +0.000 A 
ATOM     22  C   UNL     1      49.757  10.248  11.013  0.00  0.00    +0.000 A 
ATOM     23  C   UNL     1      49.066   9.338  11.821  0.00  0.00    +0.000 A 
ENDBRANCH  17  18
ENDBRANCH   1  17
TORSDOF 3
ENDMDL
MODEL 3
REMARK VINA RESULT:    -6.443      3.420      7.061
REMARK INTER + INTRA:          -7.819
REMARK INTER:                  -7.372
REMARK INTRA:                  -0.447
REMARK UNBOUND:                -0.246
REMARK  Name = 
REMARK  5 active torsions:
REMARK  status: ('A' for Active; 'I' for Inactive)
REMARK    1  A    between atoms: C_1  and  C_2
REMARK    2  A    between atoms: C_2  and  C_3
REMARK    3  A    between atoms: C_2  and  N_9
REMARK    4  A    between atoms: N_9  and  C_10
REMARK    5  A    between atoms: C_11  and  C_13
REMARK                            x       y       z     vdW  Elec       q    Type
REMARK                         _______ _______ _______ _____ _____    ______ ____
ROOT
ATOM      1  N   UNL     1      46.526   6.822  12.325  0.00  0.00    +0.000 N 
ATOM      2  C   UNL     1      47.296   5.776  12.978  0.00  0.00    +0.000 C 
ATOM      3  C   UNL     1      45.328   6.575  11.613  0.00  0.00    +0.000 C 
ATOM      4  O   UNL     1      44.680   7.497  11.119  0.00  0.00    +0.000 OA
ENDROOT
BRANCH   3   5
ATOM      5  C   UNL     1      44.812   5.187  11.494  0.00  0.00    +0.000 A 
ATOM      6  C   UNL     1      44.038   4.532  12.439  0.00  0.00    +0.000 A 
ATOM      7  S   UNL     1      43.572   2.951  11.999  0.00  0.00    +0.000 S 
ATOM      8  C   UNL     1      44.234   3.141  10.447  0.00  0.00    +0.000 A 
ATOM      9  N   UNL     1      44.065   2.177   9.505  0.00  0.00    +0.000 NA
ATOM     10  C   UNL     1      44.557   2.481   8.351  0.00  0.00    +0.000 A 
ATOM     11  N   UNL     1      45.231   3.641   8.069  0.00  0.00    +0.000 N 
ATOM     12  C   UNL     1      45.533   4.589   9.028  0.00  0.00    +0.000 A 
ATOM     13  O   UNL     1      46.328   5.488   8.782  0.00  0.00    +0.000 OA
ATOM     14  C   UNL     1      44.897   4.349  10.309  0.00  0.00    +0.000 A 
ATOM     15  H   UNL     1      45.646   3.788   7.161  0.00  0.00    +0.000 HD
ENDBRANCH   3   5
BRANCH   1  17
ATOM     16  C   UNL     1      46.435   9.049  13.487  0.00  0.00    +0.000 C 
ATOM     17  C   UNL     1      47.055   8.212  12.360  0.00  0.00    +0.000 C 
BRANCH  17  18
ATOM     18  C   UNL     1      48.586   8.251  12.380  0.00  0.00    +0.000 A 
ATOM     19  C   UNL     1      49.369   7.872  11.275  0.00  0.00    +0.000 A 
ATOM     20  C   UNL     1      50.757   8.017  11.281  0.00  0.00    +0.000 A 
ATOM     21  C   UNL     1      51.399   8.474  12.424  0.00  0.00    +0.000 A 
ATOM     22  C   UNL     1      50.651   8.789  13.556  0.00  0.00    +0.000 A 
ATOM     23  C   UNL     1      49.255   8.694  13.532  0.00  0.00    +0.000 A 
ENDBRANCH  17  18
ENDBRANCH   1  17
TORSDOF 3
ENDMDL
MODEL 4
REMARK VINA RESULT:    -6.168      1.411      2.005
REMARK INTER + INTRA:          -7.496
REMARK INTER:                  -7.383
REMARK INTRA:                  -0.113
REMARK UNBOUND:                -0.246
REMARK  Name = 
REMARK  5 active torsions:
REMARK  status: ('A' for Active; 'I' for Inactive)
REMARK    1  A    between atoms: C_1  and  C_2
REMARK    2  A    between atoms: C_2  and  C_3
REMARK    3  A    between atoms: C_2  and  N_9
REMARK    4  A    between atoms: N_9  and  C_10
REMARK    5  A    between atoms: C_11  and  C_13
REMARK                            x       y       z     vdW  Elec       q    Type
REMARK                         _______ _______ _______ _____ _____    ______ ____
ROOT
ATOM      1  N   UNL     1      45.943   5.975  12.773  0.00  0.00    +0.000 N 
ATOM      2  C   UNL     1      45.550   7.365  12.606  0.00  0.00    +0.000 C 
ATOM      3  C   UNL     1      47.266   5.572  13.072  0.00  0.00    +0.000 C 
ATOM      4  O   UNL     1      47.545   4.388  13.255  0.00  0.00    +0.000 OA
ENDROOT
BRANCH   3   5
ATOM      5  C   UNL     1      48.335   6.594  13.212  0.00  0.00    +0.000 A 
ATOM      6  C   UNL     1      48.767   7.450  12.211  0.00  0.00    +0.000 A 
ATOM      7  S   UNL     1      49.992   8.537  12.690  0.00  0.00    +0.000 S 
ATOM      8  C   UNL     1      49.868   8.032  14.306  0.00  0.00    +0.000 A 
ATOM      9  N   UNL     1      50.573   8.666  15.279  0.00  0.00    +0.000 NA
ATOM     10  C   UNL     1      50.332   8.228  16.470  0.00  0.00    +0.000 A 
ATOM     11  N   UNL     1      49.481   7.194  16.765  0.00  0.00    +0.000 N 
ATOM     12  C   UNL     1      48.843   6.444  15.797  0.00  0.00    +0.000 A 
ATOM     13  O   UNL     1      48.281   5.396  16.094  0.00  0.00    +0.000 OA
ATOM     14  C   UNL     1      48.988   6.974  14.454  0.00  0.00    +0.000 A 
ATOM     15  H   UNL     1      49.387   6.860  17.712  0.00  0.00    +0.000 HD
ENDBRANCH   3   5
BRANCH   1  17
ATOM     16  C   UNL     1      43.503   5.395  12.940  0.00  0.00    +0.000 C 
ATOM     17  C   UNL     1      44.913   4.922  12.563  0.00  0.00    +0.000 C 
BRANCH  17  18
ATOM     18  C   UNL     1      44.969   4.326  11.153  0.00  0.00    +0.000 A 
ATOM     19  C   UNL     1      44.533   3.021  10.863  0.00  0.00    +0.000 A 
ATOM     20  C   UNL     1      44.495   2.538   9.554  0.00  0.00    +0.000 A 
ATOM     21  C   UNL     1      44.967   3.326   8.514  0.00  0.00    +0.000 A 
ATOM     22  C   UNL     1      45.472   4.597   8.785  0.00  0.00    +0.000 A 
ATOM     23  C   UNL     1      45.459   5.100  10.090  0.00  0.00    +0.000 A 
ENDBRANCH  17  18
ENDBRANCH   1  17
TORSDOF 3
ENDMDL
MODEL 5
REMARK VINA RESULT:    -5.880      4.171      6.811
REMARK INTER + INTRA:          -7.158
REMARK INTER:                  -6.301
REMARK INTRA:                  -0.857
REMARK UNBOUND:                -0.246
REMARK  Name = 
REMARK  5 active torsions:
REMARK  status: ('A' for Active; 'I' for Inactive)
REMARK    1  A    between atoms: C_1  and  C_2
REMARK    2  A    between atoms: C_2  and  C_3
REMARK    3  A    between atoms: C_2  and  N_9
REMARK    4  A    between atoms: N_9  and  C_10
REMARK    5  A    between atoms: C_11  and  C_13
REMARK                            x       y       z     vdW  Elec       q    Type
REMARK                         _______ _______ _______ _____ _____    ______ ____
ROOT
ATOM      1  N   UNL     1      48.201   8.495  12.400  0.00  0.00    +0.000 N 
ATOM      2  C   UNL     1      48.900   7.662  11.435  0.00  0.00    +0.000 C 
ATOM      3  C   UNL     1      47.121   8.032  13.188  0.00  0.00    +0.000 C 
ATOM      4  O   UNL     1      46.591   8.757  14.030  0.00  0.00    +0.000 OA
ENDROOT
BRANCH   3   5
ATOM      5  C   UNL     1      46.640   6.635  13.035  0.00  0.00    +0.000 A 
ATOM      6  C   UNL     1      47.158   5.529  13.691  0.00  0.00    +0.000 A 
ATOM      7  S   UNL     1      46.371   4.059  13.329  0.00  0.00    +0.000 S 
ATOM      8  C   UNL     1      45.187   4.868  12.419  0.00  0.00    +0.000 A 
ATOM      9  N   UNL     1      44.121   4.188  11.920  0.00  0.00    +0.000 NA
ATOM     10  C   UNL     1      43.263   4.935  11.310  0.00  0.00    +0.000 A 
ATOM     11  N   UNL     1      43.395   6.287  11.126  0.00  0.00    +0.000 N 
ATOM     12  C   UNL     1      44.520   6.993  11.507  0.00  0.00    +0.000 A 
ATOM     13  O   UNL     1      44.692   8.143  11.119  0.00  0.00    +0.000 OA
ATOM     14  C   UNL     1      45.455   6.221  12.302  0.00  0.00    +0.000 A 
ATOM     15  H   UNL     1      42.717   6.801  10.584  0.00  0.00    +0.000 HD
ENDBRANCH   3   5
BRANCH   1  17
ATOM     16  C   UNL     1      50.123  10.088  12.691  0.00  0.00    +0.000 C 
ATOM     17  C   UNL     1      48.607   9.921  12.523  0.00  0.00    +0.000 C 
BRANCH  17  18
ATOM     18  C   UNL     1      48.049  10.785  11.389  0.00  0.00    +0.000 A 
ATOM     19  C   UNL     1      46.684  11.106  11.280  0.00  0.00    +0.000 A 
ATOM     20  C   UNL     1      46.216  11.981  10.299  0.00  0.00    +0.000 A 
ATOM     21  C   UNL     1      47.095  12.495   9.356  0.00  0.00    +0.000 A 
ATOM     22  C   UNL     1      48.440  12.136   9.399  0.00  0.00    +0.000 A 
ATOM     23  C   UNL     1      48.918  11.301  10.415  0.00  0.00    +0.000 A 
ENDBRANCH  17  18
ENDBRANCH   1  17
TORSDOF 3
ENDMDL
MODEL 6
REMARK VINA RESULT:    -5.784      2.761      6.770
REMARK INTER + INTRA:          -7.044
REMARK INTER:                  -6.573
REMARK INTRA:                  -0.471
REMARK UNBOUND:                -0.246
REMARK  Name = 
REMARK  5 active torsions:
REMARK  status: ('A' for Active; 'I' for Inactive)
REMARK    1  A    between atoms: C_1  and  C_2
REMARK    2  A    between atoms: C_2  and  C_3
REMARK    3  A    between atoms: C_2  and  N_9
REMARK    4  A    between atoms: N_9  and  C_10
REMARK    5  A    between atoms: C_11  and  C_13
REMARK                            x       y       z     vdW  Elec       q    Type
REMARK                         _______ _______ _______ _____ _____    ______ ____
ROOT
ATOM      1  N   UNL     1      48.665   7.736  14.460  0.00  0.00    +0.000 N 
ATOM      2  C   UNL     1      47.842   8.779  15.054  0.00  0.00    +0.000 C 
ATOM      3  C   UNL     1      48.213   6.888  13.422  0.00  0.00    +0.000 C 
ATOM      4  O   UNL     1      48.959   6.052  12.913  0.00  0.00    +0.000 OA
ENDROOT
BRANCH   3   5
ATOM      5  C   UNL     1      46.830   7.031  12.899  0.00  0.00    +0.000 A 
ATOM      6  C   UNL     1      46.379   8.059  12.086  0.00  0.00    +0.000 A 
ATOM      7  S   UNL     1      44.742   7.930  11.624  0.00  0.00    +0.000 S 
ATOM      8  C   UNL     1      44.616   6.397  12.342  0.00  0.00    +0.000 A 
ATOM      9  N   UNL     1      43.482   5.662  12.199  0.00  0.00    +0.000 NA
ATOM     10  C   UNL     1      43.547   4.489  12.734  0.00  0.00    +0.000 A 
ATOM     11  N   UNL     1      44.626   4.005  13.427  0.00  0.00    +0.000 N 
ATOM     12  C   UNL     1      45.747   4.764  13.702  0.00  0.00    +0.000 A 
ATOM     13  O   UNL     1      46.578   4.371  14.513  0.00  0.00    +0.000 OA
ATOM     14  C   UNL     1      45.771   6.043  13.020  0.00  0.00    +0.000 A 
ATOM     15  H   UNL     1      44.587   3.101  13.876  0.00  0.00    +0.000 HD
ENDBRANCH   3   5
BRANCH   1  17
ATOM     16  C   UNL     1      50.711   8.823  15.433  0.00  0.00    +0.000 C 
ATOM     17  C   UNL     1      50.028   7.515  15.013  0.00  0.00    +0.000 C 
BRANCH  17  18
ATOM     18  C   UNL     1      50.041   6.467  16.130  0.00  0.00    +0.000 A 
ATOM     19  C   UNL     1      48.865   5.892  16.643  0.00  0.00    +0.000 A 
ATOM     20  C   UNL     1      48.908   4.863  17.586  0.00  0.00    +0.000 A 
ATOM     21  C   UNL     1      50.129   4.440  18.092  0.00  0.00    +0.000 A 
ATOM     22  C   UNL     1      51.305   5.044  17.651  0.00  0.00    +0.000 A 
ATOM     23  C   UNL     1      51.265   6.038  16.667  0.00  0.00    +0.000 A 
ENDBRANCH  17  18
ENDBRANCH   1  17
TORSDOF 3
ENDMDL
MODEL 7
REMARK VINA RESULT:    -5.620      4.171      6.727
REMARK INTER + INTRA:          -6.851
REMARK INTER:                  -6.014
REMARK INTRA:                  -0.837
REMARK UNBOUND:                -0.246
REMARK  Name = 
REMARK  5 active torsions:
REMARK  status: ('A' for Active; 'I' for Inactive)
REMARK    1  A    between atoms: C_1  and  C_2
REMARK    2  A    between atoms: C_2  and  C_3
REMARK    3  A    between atoms: C_2  and  N_9
REMARK    4  A    between atoms: N_9  and  C_10
REMARK    5  A    between atoms: C_11  and  C_13
REMARK                            x       y       z     vdW  Elec       q    Type
REMARK                         _______ _______ _______ _____ _____    ______ ____
ROOT
ATOM      1  N   UNL     1      50.257   5.914  17.399  0.00  0.00    +0.000 N 
ATOM      2  C   UNL     1      51.431   6.347  16.656  0.00  0.00    +0.000 C 
ATOM      3  C   UNL     1      50.290   4.890  18.374  0.00  0.00    +0.000 C 
ATOM      4  O   UNL     1      49.284   4.590  19.016  0.00  0.00    +0.000 OA
ENDROOT
BRANCH   3   5
ATOM      5  C   UNL     1      51.567   4.189  18.667  0.00  0.00    +0.000 A 
ATOM      6  C   UNL     1      52.533   4.618  19.564  0.00  0.00    +0.000 A 
ATOM      7  S   UNL     1      53.879   3.578  19.705  0.00  0.00    +0.000 S 
ATOM      8  C   UNL     1      53.141   2.419  18.708  0.00  0.00    +0.000 A 
ATOM      9  N   UNL     1      53.725   1.207  18.516  0.00  0.00    +0.000 NA
ATOM     10  C   UNL     1      53.025   0.397  17.794  0.00  0.00    +0.000 A 
ATOM     11  N   UNL     1      51.818   0.705  17.222  0.00  0.00    +0.000 N 
ATOM     12  C   UNL     1      51.251   1.963  17.288  0.00  0.00    +0.000 A 
ATOM     13  O   UNL     1      50.297   2.252  16.575  0.00  0.00    +0.000 OA
ATOM     14  C   UNL     1      51.940   2.869  18.187  0.00  0.00    +0.000 A 
ATOM     15  H   UNL     1      51.353   0.045  16.615  0.00  0.00    +0.000 HD
ENDBRANCH   3   5
BRANCH   1  17
ATOM     16  C   UNL     1      49.031   8.073  17.009  0.00  0.00    +0.000 C 
ATOM     17  C   UNL     1      48.948   6.542  17.075  0.00  0.00    +0.000 C 
BRANCH  17  18
ATOM     18  C   UNL     1      48.308   5.940  15.821  0.00  0.00    +0.000 A 
ATOM     19  C   UNL     1      47.618   4.714  15.835  0.00  0.00    +0.000 A 
ATOM     20  C   UNL     1      46.954   4.238  14.704  0.00  0.00    +0.000 A 
ATOM     21  C   UNL     1      47.029   4.943  13.511  0.00  0.00    +0.000 A 
ATOM     22  C   UNL     1      47.766   6.124  13.453  0.00  0.00    +0.000 A 
ATOM     23  C   UNL     1      48.388   6.629  14.600  0.00  0.00    +0.000 A 
ENDBRANCH  17  18
ENDBRANCH   1  17
TORSDOF 3
ENDMDL
MODEL 8
REMARK VINA RESULT:    -5.534      2.698      6.908
REMARK INTER + INTRA:          -6.751
REMARK INTER:                  -6.594
REMARK INTRA:                  -0.157
REMARK UNBOUND:                -0.246
REMARK  Name = 
REMARK  5 active torsions:
REMARK  status: ('A' for Active; 'I' for Inactive)
REMARK    1  A    between atoms: C_1  and  C_2
REMARK    2  A    between atoms: C_2  and  C_3
REMARK    3  A    between atoms: C_2  and  N_9
REMARK    4  A    between atoms: N_9  and  C_10
REMARK    5  A    between atoms: C_11  and  C_13
REMARK                            x       y       z     vdW  Elec       q    Type
REMARK                         _______ _______ _______ _____ _____    ______ ____
ROOT
ATOM      1  N   UNL     1      48.674   5.896  16.848  0.00  0.00    +0.000 N 
ATOM      2  C   UNL     1      47.335   5.690  17.378  0.00  0.00    +0.000 C 
ATOM      3  C   UNL     1      48.931   6.242  15.500  0.00  0.00    +0.000 C 
ATOM      4  O   UNL     1      50.077   6.457  15.106  0.00  0.00    +0.000 OA
ENDROOT
BRANCH   3   5
ATOM      5  C   UNL     1      47.801   6.394  14.548  0.00  0.00    +0.000 A 
ATOM      6  C   UNL     1      47.405   7.581  13.952  0.00  0.00    +0.000 A 
ATOM      7  S   UNL     1      46.089   7.428  12.877  0.00  0.00    +0.000 S 
ATOM      8  C   UNL     1      46.112   5.736  13.022  0.00  0.00    +0.000 A 
ATOM      9  N   UNL     1      45.299   4.969  12.249  0.00  0.00    +0.000 NA
ATOM     10  C   UNL     1      45.468   3.700  12.411  0.00  0.00    +0.000 A 
ATOM     11  N   UNL     1      46.347   3.135  13.299  0.00  0.00    +0.000 N 
ATOM     12  C   UNL     1      47.099   3.876  14.189  0.00  0.00    +0.000 A 
ATOM     13  O   UNL     1      47.691   3.326  15.111  0.00  0.00    +0.000 OA
ATOM     14  C   UNL     1      47.033   5.307  13.963  0.00  0.00    +0.000 A 
ATOM     15  H   UNL     1      46.384   2.134  13.420  0.00  0.00    +0.000 HD
ENDBRANCH   3   5
BRANCH   1  17
ATOM     16  C   UNL     1      49.535   6.104  19.200  0.00  0.00    +0.000 C 
ATOM     17  C   UNL     1      49.831   5.677  17.756  0.00  0.00    +0.000 C 
BRANCH  17  18
ATOM     18  C   UNL     1      50.374   4.247  17.672  0.00  0.00    +0.000 A 
ATOM     19  C   UNL     1      49.555   3.140  17.390  0.00  0.00    +0.000 A 
ATOM     20  C   UNL     1      50.089   1.863  17.215  0.00  0.00    +0.000 A 
ATOM     21  C   UNL     1      51.450   1.652  17.393  0.00  0.00    +0.000 A 
ATOM     22  C   UNL     1      52.272   2.721  17.744  0.00  0.00    +0.000 A 
ATOM     23  C   UNL     1      51.744   4.011  17.867  0.00  0.00    +0.000 A 
ENDBRANCH  17  18
ENDBRANCH   1  17
TORSDOF 3
ENDMDL
MODEL 9
REMARK VINA RESULT:    -5.455      3.990      6.561
REMARK INTER + INTRA:          -6.658
REMARK INTER:                  -5.915
REMARK INTRA:                  -0.743
REMARK UNBOUND:                -0.246
REMARK  Name = 
REMARK  5 active torsions:
REMARK  status: ('A' for Active; 'I' for Inactive)
REMARK    1  A    between atoms: C_1  and  C_2
REMARK    2  A    between atoms: C_2  and  C_3
REMARK    3  A    between atoms: C_2  and  N_9
REMARK    4  A    between atoms: N_9  and  C_10
REMARK    5  A    between atoms: C_11  and  C_13
REMARK                            x       y       z     vdW  Elec       q    Type
REMARK                         _______ _______ _______ _____ _____    ______ ____
ROOT
ATOM      1  N   UNL     1      48.403   8.216  12.437  0.00  0.00    +0.000 N 
ATOM      2  C   UNL     1      48.731   7.337  11.325  0.00  0.00    +0.000 C 
ATOM      3  C   UNL     1      47.159   8.185  13.110  0.00  0.00    +0.000 C 
ATOM      4  O   UNL     1      46.942   8.912  14.079  0.00  0.00    +0.000 OA
ENDROOT
BRANCH   3   5
ATOM      5  C   UNL     1      46.107   7.231  12.676  0.00  0.00    +0.000 A 
ATOM      6  C   UNL     1      45.051   7.529  11.828  0.00  0.00    +0.000 A 
ATOM      7  S   UNL     1      44.023   6.210  11.489  0.00  0.00    +0.000 S 
ATOM      8  C   UNL     1      45.051   5.141  12.315  0.00  0.00    +0.000 A 
ATOM      9  N   UNL     1      44.808   3.804  12.300  0.00  0.00    +0.000 NA
ATOM     10  C   UNL     1      45.705   3.102  12.907  0.00  0.00    +0.000 A 
ATOM     11  N   UNL     1      46.796   3.619  13.555  0.00  0.00    +0.000 N 
ATOM     12  C   UNL     1      47.013   4.976  13.701  0.00  0.00    +0.000 A 
ATOM     13  O   UNL     1      47.866   5.388  14.478  0.00  0.00    +0.000 OA
ATOM     14  C   UNL     1      46.099   5.801  12.934  0.00  0.00    +0.000 A 
ATOM     15  H   UNL     1      47.426   3.017  14.065  0.00  0.00    +0.000 HD
ENDBRANCH   3   5
BRANCH   1  17
ATOM     16  C   UNL     1      50.646   8.611  13.501  0.00  0.00    +0.000 C 
ATOM     17  C   UNL     1      49.406   9.236  12.848  0.00  0.00    +0.000 C 
BRANCH  17  18
ATOM     18  C   UNL     1      49.768  10.189  11.705  0.00  0.00    +0.000 A 
ATOM     19  C   UNL     1      51.067  10.277  11.173  0.00  0.00    +0.000 A 
ATOM     20  C   UNL     1      51.348  11.075  10.064  0.00  0.00    +0.000 A 
ATOM     21  C   UNL     1      50.349  11.862   9.507  0.00  0.00    +0.000 A 
ATOM     22  C   UNL     1      49.071  11.846  10.061  0.00  0.00    +0.000 A 
ATOM     23  C   UNL     1      48.776  11.006  11.140  0.00  0.00    +0.000 A 
ENDBRANCH  17  18
ENDBRANCH   1  17
TORSDOF 3
ENDMDL
