MODEL 1
REMARK VINA RESULT:    -9.019      0.000      0.000
REMARK INTER + INTRA:         -12.639
REMARK INTER:                 -11.655
REMARK INTRA:                  -0.984
REMARK UNBOUND:                -0.984
REMARK  Name = 
REMARK  6 active torsions:
REMARK  status: ('A' for Active; 'I' for Inactive)
REMARK    1  A    between atoms: C_1  and  C_2
REMARK    2  A    between atoms: C_5  and  C_6
REMARK    3  A    between atoms: C_6  and  N_7
REMARK    4  A    between atoms: C_8  and  C_10
REMARK    5  A    between atoms: C_21  and  C_22
REMARK    6  A    between atoms: C_22  and  N_23
REMARK                            x       y       z     vdW  Elec       q    Type
REMARK                         _______ _______ _______ _____ _____    ______ ____
ROOT
ATOM      1  C   UNL     1      44.607   7.816  11.308  0.00  0.00    +0.000 C 
ATOM      2  C   UNL     1      45.191   6.636  12.035  0.00  0.00    +0.000 A 
ATOM      3  C   UNL     1      46.281   6.850  12.897  0.00  0.00    +0.000 A 
ATOM      4  C   UNL     1      46.852   5.798  13.617  0.00  0.00    +0.000 A 
ATOM      5  C   UNL     1      46.341   4.503  13.504  0.00  0.00    +0.000 A 
ATOM      6  C   UNL     1      45.261   4.282  12.633  0.00  0.00    +0.000 A 
ATOM      7  C   UNL     1      44.689   5.327  11.873  0.00  0.00    +0.000 A 
ENDROOT
BRANCH   5   8
ATOM      8  C   UNL     1      46.909   3.382  14.341  0.00  0.00    +0.000 C 
BRANCH   8   9
ATOM      9  N   UNL     1      47.810   3.869  15.359  0.00  0.00    +0.000 N 
ATOM     10  C   UNL     1      47.553   3.732  16.698  0.00  0.00    +0.000 C 
ATOM     11  O   UNL     1      46.547   3.167  17.119  0.00  0.00    +0.000 OA
ATOM     12  H   UNL     1      48.586   4.444  15.047  0.00  0.00    +0.000 HD
BRANCH  10  13
ATOM     13  C   UNL     1      48.575   4.244  17.621  0.00  0.00    +0.000 A 
ATOM     14  C   UNL     1      48.306   5.382  18.370  0.00  0.00    +0.000 A 
ATOM     15  S   UNL     1      49.572   5.828  19.420  0.00  0.00    +0.000 S 
ATOM     16  C   UNL     1      50.548   4.545  18.872  0.00  0.00    +0.000 A 
ATOM     17  N   UNL     1      51.804   4.368  19.363  0.00  0.00    +0.000 NA
ATOM     18  C   UNL     1      52.449   3.384  18.831  0.00  0.00    +0.000 A 
ATOM     19  N   UNL     1      51.948   2.556  17.861  0.00  0.00    +0.000 N 
ATOM     20  C   UNL     1      50.667   2.665  17.372  0.00  0.00    +0.000 A 
ATOM     21  O   UNL     1      50.222   1.858  16.561  0.00  0.00    +0.000 OA
ATOM     22  C   UNL     1      49.908   3.775  17.916  0.00  0.00    +0.000 A 
ATOM     23  H   UNL     1      52.501   1.792  17.500  0.00  0.00    +0.000 HD
ENDBRANCH  10  13
ENDBRANCH   8   9
ENDBRANCH   5   8
BRANCH   7  24
ATOM     24  C   UNL     1      43.548   4.993  10.924  0.00  0.00    +0.000 C 
BRANCH  24  25
ATOM     25  N   UNL     1      44.013   5.009   9.553  0.00  0.00    +0.000 N 
ATOM     26  C   UNL     1      44.799   3.998   9.039  0.00  0.00    +0.000 A 
ATOM     27  C   UNL     1      44.686   2.665   9.412  0.00  0.00    +0.000 A 
ATOM     28  C   UNL     1      45.461   1.696   8.767  0.00  0.00    +0.000 A 
ATOM     29  C   UNL     1      46.327   2.082   7.753  0.00  0.00    +0.000 A 
ATOM     30  C   UNL     1      46.380   3.425   7.439  0.00  0.00    +0.000 A 
ATOM     31  N   UNL     1      45.647   4.377   8.063  0.00  0.00    +0.000 NA
ATOM     32  H   UNL     1      44.379   5.897   9.224  0.00  0.00    +0.000 HD
ENDBRANCH  24  25
ENDBRANCH   7  24
TORSDOF 5
ENDMDL
MODEL 2
REMARK VINA RESULT:    -8.667      1.821      2.296
REMARK INTER + INTRA:         -12.184
REMARK INTER:                 -11.089
REMARK INTRA:                  -1.095
REMARK UNBOUND:                -0.984
REMARK  Name = 
REMARK  6 active torsions:
REMARK  status: ('A' for Active; 'I' for Inactive)
REMARK    1  A    between atoms: C_1  and  C_2
REMARK    2  A    between atoms: C_5  and  C_6
REMARK    3  A    between atoms: C_6  and  N_7
REMARK    4  A    between atoms: C_8  and  C_10
REMARK    5  A    between atoms: C_21  and  C_22
REMARK    6  A    between atoms: C_22  and  N_23
REMARK                            x       y       z     vdW  Elec       q    Type
REMARK                         _______ _______ _______ _____ _____    ______ ____
ROOT
ATOM      1  C   UNL     1      43.309   6.769  11.058  0.00  0.00    +0.000 C 
ATOM      2  C   UNL     1      44.264   5.847  11.766  0.00  0.00    +0.000 A 
ATOM      3  C   UNL     1      45.087   6.378  12.774  0.00  0.00    +0.000 A 
ATOM      4  C   UNL     1      45.978   5.569  13.482  0.00  0.00    +0.000 A 
ATOM      5  C   UNL     1      46.064   4.202  13.208  0.00  0.00    +0.000 A 
ATOM      6  C   UNL     1      45.253   3.670  12.191  0.00  0.00    +0.000 A 
ATOM      7  C   UNL     1      44.367   4.477  11.443  0.00  0.00    +0.000 A 
ENDROOT
BRANCH   5   8
ATOM      8  C   UNL     1      46.971   3.314  14.026  0.00  0.00    +0.000 C 
BRANCH   8   9
ATOM      9  N   UNL     1      47.340   3.926  15.280  0.00  0.00    +0.000 N 
ATOM     10  C   UNL     1      48.234   3.352  16.146  0.00  0.00    +0.000 C 
ATOM     11  O   UNL     1      48.795   2.288  15.900  0.00  0.00    +0.000 OA
ATOM     12  H   UNL     1      46.808   4.740  15.567  0.00  0.00    +0.000 HD
BRANCH  10  13
ATOM     13  C   UNL     1      48.543   4.104  17.370  0.00  0.00    +0.000 A 
ATOM     14  C   UNL     1      48.411   3.479  18.604  0.00  0.00    +0.000 A 
ATOM     15  S   UNL     1      48.841   4.468  19.923  0.00  0.00    +0.000 S 
ATOM     16  C   UNL     1      49.168   5.786  18.897  0.00  0.00    +0.000 A 
ATOM     17  N   UNL     1      49.567   6.983  19.406  0.00  0.00    +0.000 NA
ATOM     18  C   UNL     1      49.740   7.906  18.520  0.00  0.00    +0.000 A 
ATOM     19  N   UNL     1      49.560   7.738  17.172  0.00  0.00    +0.000 N 
ATOM     20  C   UNL     1      49.207   6.535  16.607  0.00  0.00    +0.000 A 
ATOM     21  O   UNL     1      49.132   6.398  15.390  0.00  0.00    +0.000 OA
ATOM     22  C   UNL     1      48.972   5.468  17.563  0.00  0.00    +0.000 A 
ATOM     23  H   UNL     1      49.730   8.500  16.531  0.00  0.00    +0.000 HD
ENDBRANCH  10  13
ENDBRANCH   8   9
ENDBRANCH   5   8
BRANCH   7  24
ATOM     24  C   UNL     1      43.556   3.828  10.333  0.00  0.00    +0.000 C 
BRANCH  24  25
ATOM     25  N   UNL     1      44.115   4.162   9.040  0.00  0.00    +0.000 N 
ATOM     26  C   UNL     1      45.168   3.454   8.498  0.00  0.00    +0.000 A 
ATOM     27  C   UNL     1      45.361   2.091   8.681  0.00  0.00    +0.000 A 
ATOM     28  C   UNL     1      46.404   1.442   8.015  0.00  0.00    +0.000 A 
ATOM     29  C   UNL     1      47.228   2.170   7.168  0.00  0.00    +0.000 A 
ATOM     30  C   UNL     1      46.969   3.520   7.036  0.00  0.00    +0.000 A 
ATOM     31  N   UNL     1      45.973   4.167   7.685  0.00  0.00    +0.000 NA
ATOM     32  H   UNL     1      44.273   5.151   8.872  0.00  0.00    +0.000 HD
ENDBRANCH  24  25
ENDBRANCH   7  24
TORSDOF 5
ENDMDL
MODEL 3
REMARK VINA RESULT:    -8.163      1.902      2.313
REMARK INTER + INTRA:         -11.532
REMARK INTER:                 -10.608
REMARK INTRA:                  -0.924
REMARK UNBOUND:                -0.984
REMARK  Name = 
REMARK  6 active torsions:
REMARK  status: ('A' for Active; 'I' for Inactive)
REMARK    1  A    between atoms: C_1  and  C_2
REMARK    2  A    between atoms: C_5  and  C_6
REMARK    3  A    between atoms: C_6  and  N_7
REMARK    4  A    between atoms: C_8  and  C_10
REMARK    5  A    between atoms: C_21  and  C_22
REMARK    6  A    between atoms: C_22  and  N_23
REMARK                            x       y       z     vdW  Elec       q    Type
REMARK                         _______ _______ _______ _____ _____    ______ ____
ROOT
ATOM      1  C   UNL     1      44.199   8.203  11.180  0.00  0.00    +0.000 C 
ATOM      2  C   UNL     1      45.064   7.262  11.974  0.00  0.00    +0.000 A 
ATOM      3  C   UNL     1      46.097   7.801  12.759  0.00  0.00    +0.000 A 
ATOM      4  C   UNL     1      46.919   6.981  13.535  0.00  0.00    +0.000 A 
ATOM      5  C   UNL     1      46.724   5.598  13.555  0.00  0.00    +0.000 A 
ATOM      6  C   UNL     1      45.701   5.054  12.761  0.00  0.00    +0.000 A 
ATOM      7  C   UNL     1      44.878   5.864  11.946  0.00  0.00    +0.000 A 
ENDROOT
BRANCH   5   8
ATOM      8  C   UNL     1      47.563   4.721  14.454  0.00  0.00    +0.000 C 
BRANCH   8   9
ATOM      9  N   UNL     1      47.605   5.216  15.809  0.00  0.00    +0.000 N 
ATOM     10  C   UNL     1      48.668   5.925  16.302  0.00  0.00    +0.000 C 
ATOM     11  O   UNL     1      49.648   6.202  15.616  0.00  0.00    +0.000 OA
ATOM     12  H   UNL     1      46.870   4.902  16.434  0.00  0.00    +0.000 HD
BRANCH  10  13
ATOM     13  C   UNL     1      48.560   6.397  17.689  0.00  0.00    +0.000 A 
ATOM     14  C   UNL     1      48.499   7.762  17.940  0.00  0.00    +0.000 A 
ATOM     15  S   UNL     1      48.336   8.149  19.591  0.00  0.00    +0.000 S 
ATOM     16  C   UNL     1      48.394   6.508  20.037  0.00  0.00    +0.000 A 
ATOM     17  N   UNL     1      48.329   6.138  21.344  0.00  0.00    +0.000 NA
ATOM     18  C   UNL     1      48.426   4.866  21.543  0.00  0.00    +0.000 A 
ATOM     19  N   UNL     1      48.573   3.931  20.553  0.00  0.00    +0.000 N 
ATOM     20  C   UNL     1      48.592   4.252  19.216  0.00  0.00    +0.000 A 
ATOM     21  O   UNL     1      48.644   3.383  18.351  0.00  0.00    +0.000 OA
ATOM     22  C   UNL     1      48.515   5.674  18.938  0.00  0.00    +0.000 A 
ATOM     23  H   UNL     1      48.626   2.948  20.777  0.00  0.00    +0.000 HD
ENDBRANCH  10  13
ENDBRANCH   8   9
ENDBRANCH   5   8
BRANCH   7  24
ATOM     24  C   UNL     1      43.820   5.189  11.085  0.00  0.00    +0.000 C 
BRANCH  24  25
ATOM     25  N   UNL     1      44.222   5.197   9.695  0.00  0.00    +0.000 N 
ATOM     26  C   UNL     1      44.933   4.154   9.137  0.00  0.00    +0.000 A 
ATOM     27  C   UNL     1      44.772   2.824   9.503  0.00  0.00    +0.000 A 
ATOM     28  C   UNL     1      45.467   1.825   8.815  0.00  0.00    +0.000 A 
ATOM     29  C   UNL     1      46.304   2.179   7.766  0.00  0.00    +0.000 A 
ATOM     30  C   UNL     1      46.409   3.522   7.461  0.00  0.00    +0.000 A 
ATOM     31  N   UNL     1      45.753   4.502   8.126  0.00  0.00    +0.000 NA
ATOM     32  H   UNL     1      44.616   6.070   9.357  0.00  0.00    +0.000 HD
ENDBRANCH  24  25
ENDBRANCH   7  24
TORSDOF 5
ENDMDL
MODEL 4
REMARK VINA RESULT:    -7.821      3.611      8.471
REMARK INTER + INTRA:         -11.091
REMARK INTER:                  -9.703
REMARK INTRA:                  -1.388
REMARK UNBOUND:                -0.984
REMARK  Name = 
REMARK  6 active torsions:
REMARK  status: ('A' for Active; 'I' for Inactive)
REMARK    1  A    between atoms: C_1  and  C_2
REMARK    2  A    between atoms: C_5  and  C_6
REMARK    3  A    between atoms: C_6  and  N_7
REMARK    4  A    between atoms: C_8  and  C_10
REMARK    5  A    between atoms: C_21  and  C_22
REMARK    6  A    between atoms: C_22  and  N_23
REMARK                            x       y       z     vdW  Elec       q    Type
REMARK                         _______ _______ _______ _____ _____    ______ ____
ROOT
ATOM      1  C   UNL     1      51.732   7.540  16.026  0.00  0.00    +0.000 C 
ATOM      2  C   UNL     1      50.636   7.686  15.005  0.00  0.00    +0.000 A 
ATOM      3  C   UNL     1      50.988   8.002  13.682  0.00  0.00    +0.000 A 
ATOM      4  C   UNL     1      50.018   8.129  12.685  0.00  0.00    +0.000 A 
ATOM      5  C   UNL     1      48.668   7.932  12.982  0.00  0.00    +0.000 A 
ATOM      6  C   UNL     1      48.310   7.630  14.307  0.00  0.00    +0.000 A 
ATOM      7  C   UNL     1      49.273   7.527  15.336  0.00  0.00    +0.000 A 
ENDROOT
BRANCH   5   8
ATOM      8  C   UNL     1      47.628   7.993  11.888  0.00  0.00    +0.000 C 
BRANCH   8   9
ATOM      9  N   UNL     1      46.898   6.754  11.765  0.00  0.00    +0.000 N 
ATOM     10  C   UNL     1      45.529   6.704  11.748  0.00  0.00    +0.000 C 
ATOM     11  O   UNL     1      44.834   7.713  11.816  0.00  0.00    +0.000 OA
ATOM     12  H   UNL     1      47.437   5.897  11.828  0.00  0.00    +0.000 HD
BRANCH  10  13
ATOM     13  C   UNL     1      44.920   5.377  11.582  0.00  0.00    +0.000 A 
ATOM     14  C   UNL     1      44.215   4.815  12.638  0.00  0.00    +0.000 A 
ATOM     15  S   UNL     1      43.538   3.293  12.279  0.00  0.00    +0.000 S 
ATOM     16  C   UNL     1      44.208   3.305  10.714  0.00  0.00    +0.000 A 
ATOM     17  N   UNL     1      44.023   2.255   9.870  0.00  0.00    +0.000 NA
ATOM     18  C   UNL     1      44.620   2.377   8.731  0.00  0.00    +0.000 A 
ATOM     19  N   UNL     1      45.376   3.457   8.358  0.00  0.00    +0.000 N 
ATOM     20  C   UNL     1      45.549   4.563   9.158  0.00  0.00    +0.000 A 
ATOM     21  O   UNL     1      46.166   5.547   8.762  0.00  0.00    +0.000 OA
ATOM     22  C   UNL     1      44.921   4.465  10.463  0.00  0.00    +0.000 A 
ATOM     23  H   UNL     1      45.802   3.496   7.444  0.00  0.00    +0.000 HD
ENDBRANCH  10  13
ENDBRANCH   8   9
ENDBRANCH   5   8
BRANCH   7  24
ATOM     24  C   UNL     1      48.795   7.237  16.750  0.00  0.00    +0.000 C 
BRANCH  24  25
ATOM     25  N   UNL     1      48.096   5.970  16.795  0.00  0.00    +0.000 N 
ATOM     26  C   UNL     1      48.770   4.770  16.891  0.00  0.00    +0.000 A 
ATOM     27  C   UNL     1      49.956   4.603  17.594  0.00  0.00    +0.000 A 
ATOM     28  C   UNL     1      50.518   3.328  17.716  0.00  0.00    +0.000 A 
ATOM     29  C   UNL     1      49.873   2.243  17.138  0.00  0.00    +0.000 A 
ATOM     30  C   UNL     1      48.698   2.491  16.458  0.00  0.00    +0.000 A 
ATOM     31  N   UNL     1      48.148   3.721  16.319  0.00  0.00    +0.000 NA
ATOM     32  H   UNL     1      47.342   5.860  16.125  0.00  0.00    +0.000 HD
ENDBRANCH  24  25
ENDBRANCH   7  24
TORSDOF 5
ENDMDL
MODEL 5
REMARK VINA RESULT:    -7.721      2.468      3.280
REMARK INTER + INTRA:         -10.962
REMARK INTER:                 -10.012
REMARK INTRA:                  -0.949
REMARK UNBOUND:                -0.984
REMARK  Name = 
REMARK  6 active torsions:
REMARK  status: ('A' for Active; 'I' for Inactive)
REMARK    1  A    between atoms: C_1  and  C_2
REMARK    2  A    between atoms: C_5  and  C_6
REMARK    3  A    between atoms: C_6  and  N_7
REMARK    4  A    between atoms: C_8  and  C_10
REMARK    5  A    between atoms: C_21  and  C_22
REMARK    6  A    between atoms: C_22  and  N_23
REMARK                            x       y       z     vdW  Elec       q    Type
REMARK                         _______ _______ _______ _____ _____    ______ ____
ROOT
ATOM      1  C   UNL     1      44.392   8.260  11.254  0.00  0.00    +0.000 C 
ATOM      2  C   UNL     1      45.119   7.227  12.071  0.00  0.00    +0.000 A 
ATOM      3  C   UNL     1      46.242   7.629  12.815  0.00  0.00    +0.000 A 
ATOM      4  C   UNL     1      46.945   6.722  13.611  0.00  0.00    +0.000 A 
ATOM      5  C   UNL     1      46.538   5.388  13.694  0.00  0.00    +0.000 A 
ATOM      6  C   UNL     1      45.425   4.979  12.940  0.00  0.00    +0.000 A 
ATOM      7  C   UNL     1      44.718   5.875  12.106  0.00  0.00    +0.000 A 
ENDROOT
BRANCH   5   8
ATOM      8  C   UNL     1      47.252   4.427  14.614  0.00  0.00    +0.000 C 
BRANCH   8   9
ATOM      9  N   UNL     1      47.278   4.900  15.977  0.00  0.00    +0.000 N 
ATOM     10  C   UNL     1      48.404   5.425  16.555  0.00  0.00    +0.000 C 
ATOM     11  O   UNL     1      49.461   5.545  15.941  0.00  0.00    +0.000 OA
ATOM     12  H   UNL     1      46.460   4.705  16.545  0.00  0.00    +0.000 HD
BRANCH  10  13
ATOM     13  C   UNL     1      48.275   5.900  17.939  0.00  0.00    +0.000 A 
ATOM     14  C   UNL     1      48.204   4.974  18.972  0.00  0.00    +0.000 A 
ATOM     15  S   UNL     1      48.095   5.679  20.519  0.00  0.00    +0.000 S 
ATOM     16  C   UNL     1      48.086   7.249  19.861  0.00  0.00    +0.000 A 
ATOM     17  N   UNL     1      47.984   8.340  20.666  0.00  0.00    +0.000 NA
ATOM     18  C   UNL     1      47.947   9.466  20.035  0.00  0.00    +0.000 A 
ATOM     19  N   UNL     1      48.012   9.598  18.672  0.00  0.00    +0.000 N 
ATOM     20  C   UNL     1      48.168   8.528  17.822  0.00  0.00    +0.000 A 
ATOM     21  O   UNL     1      48.303   8.688  16.613  0.00  0.00    +0.000 OA
ATOM     22  C   UNL     1      48.186   7.235  18.480  0.00  0.00    +0.000 A 
ATOM     23  H   UNL     1      47.996  10.512  18.243  0.00  0.00    +0.000 HD
ENDBRANCH  10  13
ENDBRANCH   8   9
ENDBRANCH   5   8
BRANCH   7  24
ATOM     24  C   UNL     1      43.549   5.339  11.293  0.00  0.00    +0.000 C 
BRANCH  24  25
ATOM     25  N   UNL     1      43.895   5.288   9.889  0.00  0.00    +0.000 N 
ATOM     26  C   UNL     1      44.602   4.231   9.352  0.00  0.00    +0.000 A 
ATOM     27  C   UNL     1      44.483   2.918   9.788  0.00  0.00    +0.000 A 
ATOM     28  C   UNL     1      45.170   1.900   9.121  0.00  0.00    +0.000 A 
ATOM     29  C   UNL     1      45.957   2.217   8.022  0.00  0.00    +0.000 A 
ATOM     30  C   UNL     1      46.022   3.545   7.649  0.00  0.00    +0.000 A 
ATOM     31  N   UNL     1      45.374   4.545   8.293  0.00  0.00    +0.000 NA
ATOM     32  H   UNL     1      44.257   6.149   9.493  0.00  0.00    +0.000 HD
ENDBRANCH  24  25
ENDBRANCH   7  24
TORSDOF 5
ENDMDL
MODEL 6
REMARK VINA RESULT:    -7.693      3.204      8.393
REMARK INTER + INTRA:         -10.926
REMARK INTER:                  -9.592
REMARK INTRA:                  -1.334
REMARK UNBOUND:                -0.984
REMARK  Name = 
REMARK  6 active torsions:
REMARK  status: ('A' for Active; 'I' for Inactive)
REMARK    1  A    between atoms: C_1  and  C_2
REMARK    2  A    between atoms: C_5  and  C_6
REMARK    3  A    between atoms: C_6  and  N_7
REMARK    4  A    between atoms: C_8  and  C_10
REMARK    5  A    between atoms: C_21  and  C_22
REMARK    6  A    between atoms: C_22  and  N_23
REMARK                            x       y       z     vdW  Elec       q    Type
REMARK                         _______ _______ _______ _____ _____    ______ ____
ROOT
ATOM      1  C   UNL     1      52.944   3.665  18.045  0.00  0.00    +0.000 C 
ATOM      2  C   UNL     1      51.482   3.653  17.690  0.00  0.00    +0.000 A 
ATOM      3  C   UNL     1      50.870   2.420  17.407  0.00  0.00    +0.000 A 
ATOM      4  C   UNL     1      49.511   2.342  17.093  0.00  0.00    +0.000 A 
ATOM      5  C   UNL     1      48.723   3.495  17.064  0.00  0.00    +0.000 A 
ATOM      6  C   UNL     1      49.335   4.731  17.332  0.00  0.00    +0.000 A 
ATOM      7  C   UNL     1      50.714   4.835  17.622  0.00  0.00    +0.000 A 
ENDROOT
BRANCH   5   8
ATOM      8  C   UNL     1      47.240   3.400  16.801  0.00  0.00    +0.000 C 
BRANCH   8   9
ATOM      9  N   UNL     1      46.797   4.376  15.833  0.00  0.00    +0.000 N 
ATOM     10  C   UNL     1      46.808   4.134  14.484  0.00  0.00    +0.000 C 
ATOM     11  O   UNL     1      47.177   3.063  14.013  0.00  0.00    +0.000 OA
ATOM     12  H   UNL     1      46.602   5.309  16.180  0.00  0.00    +0.000 HD
BRANCH  10  13
ATOM     13  C   UNL     1      46.297   5.205  13.619  0.00  0.00    +0.000 A 
ATOM     14  C   UNL     1      47.070   6.341  13.412  0.00  0.00    +0.000 A 
ATOM     15  S   UNL     1      46.358   7.473  12.356  0.00  0.00    +0.000 S 
ATOM     16  C   UNL     1      44.966   6.510  12.177  0.00  0.00    +0.000 A 
ATOM     17  N   UNL     1      43.928   6.925  11.402  0.00  0.00    +0.000 NA
ATOM     18  C   UNL     1      42.920   6.118  11.388  0.00  0.00    +0.000 A 
ATOM     19  N   UNL     1      42.860   4.932  12.071  0.00  0.00    +0.000 N 
ATOM     20  C   UNL     1      43.903   4.448  12.825  0.00  0.00    +0.000 A 
ATOM     21  O   UNL     1      43.848   3.344  13.358  0.00  0.00    +0.000 OA
ATOM     22  C   UNL     1      45.053   5.331  12.898  0.00  0.00    +0.000 A 
ATOM     23  H   UNL     1      42.046   4.339  12.002  0.00  0.00    +0.000 HD
ENDBRANCH  10  13
ENDBRANCH   8   9
ENDBRANCH   5   8
BRANCH   7  24
ATOM     24  C   UNL     1      51.303   6.217  17.860  0.00  0.00    +0.000 C 
BRANCH  24  25
ATOM     25  N   UNL     1      51.609   6.858  16.599  0.00  0.00    +0.000 N 
ATOM     26  C   UNL     1      50.692   7.656  15.947  0.00  0.00    +0.000 A 
ATOM     27  C   UNL     1      49.768   8.464  16.597  0.00  0.00    +0.000 A 
ATOM     28  C   UNL     1      48.940   9.310  15.854  0.00  0.00    +0.000 A 
ATOM     29  C   UNL     1      49.062   9.338  14.471  0.00  0.00    +0.000 A 
ATOM     30  C   UNL     1      50.006   8.507  13.900  0.00  0.00    +0.000 A 
ATOM     31  N   UNL     1      50.805   7.672  14.604  0.00  0.00    +0.000 NA
ATOM     32  H   UNL     1      52.072   6.273  15.910  0.00  0.00    +0.000 HD
ENDBRANCH  24  25
ENDBRANCH   7  24
TORSDOF 5
ENDMDL
MODEL 7
REMARK VINA RESULT:    -7.510      3.172      9.488
REMARK INTER + INTRA:         -10.688
REMARK INTER:                  -9.660
REMARK INTRA:                  -1.028
REMARK UNBOUND:                -0.984
REMARK  Name = 
REMARK  6 active torsions:
REMARK  status: ('A' for Active; 'I' for Inactive)
REMARK    1  A    between atoms: C_1  and  C_2
REMARK    2  A    between atoms: C_5  and  C_6
REMARK    3  A    between atoms: C_6  and  N_7
REMARK    4  A    between atoms: C_8  and  C_10
REMARK    5  A    between atoms: C_21  and  C_22
REMARK    6  A    between atoms: C_22  and  N_23
REMARK                            x       y       z     vdW  Elec       q    Type
REMARK                         _______ _______ _______ _____ _____    ______ ____
ROOT
ATOM      1  C   UNL     1      52.689   3.860  18.441  0.00  0.00    +0.000 C 
ATOM      2  C   UNL     1      51.256   3.784  17.988  0.00  0.00    +0.000 A 
ATOM      3  C   UNL     1      50.794   2.582  17.423  0.00  0.00    +0.000 A 
ATOM      4  C   UNL     1      49.469   2.443  17.004  0.00  0.00    +0.000 A 
ATOM      5  C   UNL     1      48.565   3.498  17.148  0.00  0.00    +0.000 A 
ATOM      6  C   UNL     1      49.027   4.705  17.700  0.00  0.00    +0.000 A 
ATOM      7  C   UNL     1      50.371   4.876  18.102  0.00  0.00    +0.000 A 
ENDROOT
BRANCH   5   8
ATOM      8  C   UNL     1      47.115   3.319  16.767  0.00  0.00    +0.000 C 
BRANCH   8   9
ATOM      9  N   UNL     1      46.684   4.303  15.803  0.00  0.00    +0.000 N 
ATOM     10  C   UNL     1      46.816   4.118  14.451  0.00  0.00    +0.000 C 
ATOM     11  O   UNL     1      47.292   3.093  13.972  0.00  0.00    +0.000 OA
ATOM     12  H   UNL     1      46.398   5.206  16.166  0.00  0.00    +0.000 HD
BRANCH  10  13
ATOM     13  C   UNL     1      46.301   5.188  13.586  0.00  0.00    +0.000 A 
ATOM     14  C   UNL     1      47.082   6.314  13.358  0.00  0.00    +0.000 A 
ATOM     15  S   UNL     1      46.365   7.445  12.305  0.00  0.00    +0.000 S 
ATOM     16  C   UNL     1      44.959   6.496  12.158  0.00  0.00    +0.000 A 
ATOM     17  N   UNL     1      43.912   6.916  11.398  0.00  0.00    +0.000 NA
ATOM     18  C   UNL     1      42.895   6.121  11.407  0.00  0.00    +0.000 A 
ATOM     19  N   UNL     1      42.835   4.940  12.101  0.00  0.00    +0.000 N 
ATOM     20  C   UNL     1      43.886   4.450  12.840  0.00  0.00    +0.000 A 
ATOM     21  O   UNL     1      43.828   3.351  13.383  0.00  0.00    +0.000 OA
ATOM     22  C   UNL     1      45.046   5.322  12.886  0.00  0.00    +0.000 A 
ATOM     23  H   UNL     1      42.013   4.355  12.050  0.00  0.00    +0.000 HD
ENDBRANCH  10  13
ENDBRANCH   8   9
ENDBRANCH   5   8
BRANCH   7  24
ATOM     24  C   UNL     1      50.796   6.230  18.651  0.00  0.00    +0.000 C 
BRANCH  24  25
ATOM     25  N   UNL     1      50.168   6.473  19.932  0.00  0.00    +0.000 N 
ATOM     26  C   UNL     1      49.242   7.480  20.109  0.00  0.00    +0.000 A 
ATOM     27  C   UNL     1      48.339   7.882  19.133  0.00  0.00    +0.000 A 
ATOM     28  C   UNL     1      47.375   8.848  19.435  0.00  0.00    +0.000 A 
ATOM     29  C   UNL     1      47.328   9.386  20.714  0.00  0.00    +0.000 A 
ATOM     30  C   UNL     1      48.258   8.933  21.628  0.00  0.00    +0.000 A 
ATOM     31  N   UNL     1      49.207   8.008  21.348  0.00  0.00    +0.000 NA
ATOM     32  H   UNL     1      50.789   6.465  20.735  0.00  0.00    +0.000 HD
ENDBRANCH  24  25
ENDBRANCH   7  24
TORSDOF 5
ENDMDL
MODEL 8
REMARK VINA RESULT:    -7.435      3.332      8.173
REMARK INTER + INTRA:         -10.592
REMARK INTER:                  -9.896
REMARK INTRA:                  -0.695
REMARK UNBOUND:                -0.984
REMARK  Name = 
REMARK  6 active torsions:
REMARK  status: ('A' for Active; 'I' for Inactive)
REMARK    1  A    between atoms: C_1  and  C_2
REMARK    2  A    between atoms: C_5  and  C_6
REMARK    3  A    between atoms: C_6  and  N_7
REMARK    4  A    between atoms: C_8  and  C_10
REMARK    5  A    between atoms: C_21  and  C_22
REMARK    6  A    between atoms: C_22  and  N_23
REMARK                            x       y       z     vdW  Elec       q    Type
REMARK                         _______ _______ _______ _____ _____    ______ ____
ROOT
ATOM      1  C   UNL     1      47.502   9.224  20.899  0.00  0.00    +0.000 C 
ATOM      2  C   UNL     1      47.820   8.911  19.463  0.00  0.00    +0.000 A 
ATOM      3  C   UNL     1      47.736   9.946  18.515  0.00  0.00    +0.000 A 
ATOM      4  C   UNL     1      48.040   9.724  17.171  0.00  0.00    +0.000 A 
ATOM      5  C   UNL     1      48.449   8.461  16.737  0.00  0.00    +0.000 A 
ATOM      6  C   UNL     1      48.522   7.420  17.678  0.00  0.00    +0.000 A 
ATOM      7  C   UNL     1      48.189   7.617  19.037  0.00  0.00    +0.000 A 
ENDROOT
BRANCH   5   8
ATOM      8  C   UNL     1      48.853   8.240  15.298  0.00  0.00    +0.000 C 
BRANCH   8   9
ATOM      9  N   UNL     1      47.743   7.803  14.485  0.00  0.00    +0.000 N 
ATOM     10  C   UNL     1      47.858   6.799  13.560  0.00  0.00    +0.000 C 
ATOM     11  O   UNL     1      48.909   6.192  13.377  0.00  0.00    +0.000 OA
ATOM     12  H   UNL     1      46.897   8.362  14.526  0.00  0.00    +0.000 HD
BRANCH  10  13
ATOM     13  C   UNL     1      46.637   6.434  12.828  0.00  0.00    +0.000 A 
ATOM     14  C   UNL     1      45.876   7.433  12.235  0.00  0.00    +0.000 A 
ATOM     15  S   UNL     1      44.515   6.849  11.393  0.00  0.00    +0.000 S 
ATOM     16  C   UNL     1      44.863   5.243  11.836  0.00  0.00    +0.000 A 
ATOM     17  N   UNL     1      44.051   4.222  11.450  0.00  0.00    +0.000 NA
ATOM     18  C   UNL     1      44.409   3.063  11.890  0.00  0.00    +0.000 A 
ATOM     19  N   UNL     1      45.510   2.830  12.672  0.00  0.00    +0.000 N 
ATOM     20  C   UNL     1      46.388   3.822  13.043  0.00  0.00    +0.000 A 
ATOM     21  O   UNL     1      47.408   3.567  13.677  0.00  0.00    +0.000 OA
ATOM     22  C   UNL     1      46.015   5.152  12.599  0.00  0.00    +0.000 A 
ATOM     23  H   UNL     1      45.743   1.893  12.967  0.00  0.00    +0.000 HD
ENDBRANCH  10  13
ENDBRANCH   8   9
ENDBRANCH   5   8
BRANCH   7  24
ATOM     24  C   UNL     1      48.256   6.426  19.981  0.00  0.00    +0.000 C 
BRANCH  24  25
ATOM     25  N   UNL     1      47.481   5.323  19.454  0.00  0.00    +0.000 N 
ATOM     26  C   UNL     1      48.013   4.425  18.551  0.00  0.00    +0.000 A 
ATOM     27  C   UNL     1      49.342   4.021  18.553  0.00  0.00    +0.000 A 
ATOM     28  C   UNL     1      49.770   3.035  17.659  0.00  0.00    +0.000 A 
ATOM     29  C   UNL     1      48.853   2.466  16.786  0.00  0.00    +0.000 A 
ATOM     30  C   UNL     1      47.551   2.919  16.847  0.00  0.00    +0.000 A 
ATOM     31  N   UNL     1      47.123   3.882  17.697  0.00  0.00    +0.000 NA
ATOM     32  H   UNL     1      46.536   5.550  19.159  0.00  0.00    +0.000 HD
ENDBRANCH  24  25
ENDBRANCH   7  24
TORSDOF 5
ENDMDL
MODEL 9
REMARK VINA RESULT:    -7.312      3.131      8.997
REMARK INTER + INTRA:         -10.433
REMARK INTER:                  -9.331
REMARK INTRA:                  -1.103
REMARK UNBOUND:                -0.984
REMARK  Name = 
REMARK  6 active torsions:
REMARK  status: ('A' for Active; 'I' for Inactive)
REMARK    1  A    between atoms: C_1  and  C_2
REMARK    2  A    between atoms: C_5  and  C_6
REMARK    3  A    between atoms: C_6  and  N_7
REMARK    4  A    between atoms: C_8  and  C_10
REMARK    5  A    between atoms: C_21  and  C_22
REMARK    6  A    between atoms: C_22  and  N_23
REMARK                            x       y       z     vdW  Elec       q    Type
REMARK                         _______ _______ _______ _____ _____    ______ ____
ROOT
ATOM      1  C   UNL     1      52.889   2.605  18.017  0.00  0.00    +0.000 C 
ATOM      2  C   UNL     1      51.431   2.866  17.754  0.00  0.00    +0.000 A 
ATOM      3  C   UNL     1      50.690   1.896  17.057  0.00  0.00    +0.000 A 
ATOM      4  C   UNL     1      49.329   2.070  16.801  0.00  0.00    +0.000 A 
ATOM      5  C   UNL     1      48.665   3.216  17.247  0.00  0.00    +0.000 A 
ATOM      6  C   UNL     1      49.405   4.194  17.933  0.00  0.00    +0.000 A 
ATOM      7  C   UNL     1      50.790   4.051  18.174  0.00  0.00    +0.000 A 
ENDROOT
BRANCH   5   8
ATOM      8  C   UNL     1      47.178   3.367  17.039  0.00  0.00    +0.000 C 
BRANCH   8   9
ATOM      9  N   UNL     1      46.869   4.365  16.042  0.00  0.00    +0.000 N 
ATOM     10  C   UNL     1      46.957   4.116  14.697  0.00  0.00    +0.000 C 
ATOM     11  O   UNL     1      47.286   3.020  14.253  0.00  0.00    +0.000 OA
ATOM     12  H   UNL     1      46.712   5.311  16.374  0.00  0.00    +0.000 HD
BRANCH  10  13
ATOM     13  C   UNL     1      46.579   5.214  13.798  0.00  0.00    +0.000 A 
ATOM     14  C   UNL     1      47.470   6.259  13.587  0.00  0.00    +0.000 A 
ATOM     15  S   UNL     1      46.902   7.433  12.491  0.00  0.00    +0.000 S 
ATOM     16  C   UNL     1      45.422   6.615  12.297  0.00  0.00    +0.000 A 
ATOM     17  N   UNL     1      44.450   7.116  11.489  0.00  0.00    +0.000 NA
ATOM     18  C   UNL     1      43.364   6.418  11.467  0.00  0.00    +0.000 A 
ATOM     19  N   UNL     1      43.167   5.260  12.172  0.00  0.00    +0.000 N 
ATOM     20  C   UNL     1      44.138   4.688  12.961  0.00  0.00    +0.000 A 
ATOM     21  O   UNL     1      43.956   3.609  13.516  0.00  0.00    +0.000 OA
ATOM     22  C   UNL     1      45.371   5.450  13.044  0.00  0.00    +0.000 A 
ATOM     23  H   UNL     1      42.297   4.752  12.096  0.00  0.00    +0.000 HD
ENDBRANCH  10  13
ENDBRANCH   8   9
ENDBRANCH   5   8
BRANCH   7  24
ATOM     24  C   UNL     1      51.522   5.177  18.888  0.00  0.00    +0.000 C 
BRANCH  24  25
ATOM     25  N   UNL     1      51.344   6.424  18.175  0.00  0.00    +0.000 N 
ATOM     26  C   UNL     1      52.325   6.937  17.351  0.00  0.00    +0.000 A 
ATOM     27  C   UNL     1      53.185   6.155  16.590  0.00  0.00    +0.000 A 
ATOM     28  C   UNL     1      54.085   6.765  15.712  0.00  0.00    +0.000 A 
ATOM     29  C   UNL     1      54.099   8.149  15.606  0.00  0.00    +0.000 A 
ATOM     30  C   UNL     1      53.212   8.856  16.394  0.00  0.00    +0.000 A 
ATOM     31  N   UNL     1      52.344   8.281  17.259  0.00  0.00    +0.000 NA
ATOM     32  H   UNL     1      50.949   7.187  18.715  0.00  0.00    +0.000 HD
ENDBRANCH  24  25
ENDBRANCH   7  24
TORSDOF 5
ENDMDL
