MODEL 1
REMARK VINA RESULT:    -8.707      0.000      0.000
REMARK INTER + INTRA:         -12.190
REMARK INTER:                 -11.252
REMARK INTRA:                  -0.938
REMARK UNBOUND:                -0.938
REMARK  Name = 
REMARK  5 active torsions:
REMARK  status: ('A' for Active; 'I' for Inactive)
REMARK    1  A    between atoms: C_2  and  C_4
REMARK    2  A    between atoms: N_8  and  C_9
REMARK    3  A    between atoms: C_9  and  C_10
REMARK    4  A    between atoms: C_10  and  C_11
REMARK    5  A    between atoms: C_16  and  N_17
REMARK                            x       y       z     vdW  Elec       q    Type
REMARK                         _______ _______ _______ _____ _____    ______ ____
ROOT
ATOM      1  C   UNL     1      43.127   4.531  11.017  0.00  0.00    +0.000 C 
ENDROOT
BRANCH   1   6
ATOM      2  C   UNL     1      46.438   2.430   7.741  0.00  0.00    +0.000 A 
ATOM      3  C   UNL     1      45.702   1.888   8.786  0.00  0.00    +0.000 A 
ATOM      4  C   UNL     1      44.879   2.725   9.539  0.00  0.00    +0.000 A 
ATOM      5  C   UNL     1      44.797   4.083   9.240  0.00  0.00    +0.000 A 
ATOM      6  N   UNL     1      43.996   4.952   9.939  0.00  0.00    +0.000 N 
ATOM      7  N   UNL     1      45.522   4.619   8.238  0.00  0.00    +0.000 NA
ATOM      8  C   UNL     1      46.335   3.793   7.519  0.00  0.00    +0.000 A 
ATOM      9  H   UNL     1      44.001   5.904   9.592  0.00  0.00    +0.000 HD
BRANCH   2  11
ATOM     10  N   UNL     1      48.507   2.178   6.501  0.00  0.00    +0.000 N 
ATOM     11  C   UNL     1      47.325   1.609   6.893  0.00  0.00    +0.000 C 
ATOM     12  O   UNL     1      47.033   0.464   6.580  0.00  0.00    +0.000 OA
ATOM     13  H   UNL     1      49.153   1.581   6.002  0.00  0.00    +0.000 HD
ATOM     14  H   UNL     1      48.881   3.012   6.931  0.00  0.00    +0.000 HD
ENDBRANCH   2  11
ENDBRANCH   1   6
BRANCH   1  15
ATOM     15  C   UNL     1      43.241   5.424  12.253  0.00  0.00    +0.000 C 
BRANCH  15  16
ATOM     16  C   UNL     1      44.667   5.418  12.759  0.00  0.00    +0.000 A 
ATOM     17  C   UNL     1      45.252   4.237  13.216  0.00  0.00    +0.000 A 
ATOM     18  C   UNL     1      46.587   4.242  13.593  0.00  0.00    +0.000 A 
ATOM     19  F   UNL     1      47.159   3.102  14.005  0.00  0.00    +0.000 F 
ATOM     20  C   UNL     1      47.355   5.401  13.516  0.00  0.00    +0.000 A 
ATOM     21  C   UNL     1      46.812   6.605  13.051  0.00  0.00    +0.000 A 
ATOM     22  C   UNL     1      45.454   6.586  12.685  0.00  0.00    +0.000 A 
BRANCH  21  23
ATOM     23  N   UNL     1      47.600   7.727  12.901  0.00  0.00    +0.000 N 
ATOM     24  C   UNL     1      47.076   9.099  12.988  0.00  0.00    +0.000 C 
ATOM     25  C   UNL     1      47.737   9.958  11.893  0.00  0.00    +0.000 C 
ATOM     26  O   UNL     1      49.172   9.911  11.958  0.00  0.00    +0.000 OA
ATOM     27  C   UNL     1      49.637   8.557  11.823  0.00  0.00    +0.000 C 
ATOM     28  C   UNL     1      49.072   7.663  12.938  0.00  0.00    +0.000 C 
ENDBRANCH  21  23
ENDBRANCH  15  16
ENDBRANCH   1  15
TORSDOF 5
ENDMDL
MODEL 2
REMARK VINA RESULT:    -8.681      2.737      3.723
REMARK INTER + INTRA:         -12.157
REMARK INTER:                 -11.306
REMARK INTRA:                  -0.851
REMARK UNBOUND:                -0.938
REMARK  Name = 
REMARK  5 active torsions:
REMARK  status: ('A' for Active; 'I' for Inactive)
REMARK    1  A    between atoms: C_2  and  C_4
REMARK    2  A    between atoms: N_8  and  C_9
REMARK    3  A    between atoms: C_9  and  C_10
REMARK    4  A    between atoms: C_10  and  C_11
REMARK    5  A    between atoms: C_16  and  N_17
REMARK                            x       y       z     vdW  Elec       q    Type
REMARK                         _______ _______ _______ _____ _____    ______ ____
ROOT
ATOM      1  C   UNL     1      43.413   4.598  10.921  0.00  0.00    +0.000 C 
ENDROOT
BRANCH   1   6
ATOM      2  C   UNL     1      46.590   2.667   7.416  0.00  0.00    +0.000 A 
ATOM      3  C   UNL     1      46.195   3.970   7.688  0.00  0.00    +0.000 A 
ATOM      4  C   UNL     1      45.278   4.199   8.714  0.00  0.00    +0.000 A 
ATOM      5  C   UNL     1      44.773   3.133   9.454  0.00  0.00    +0.000 A 
ATOM      6  N   UNL     1      43.876   3.300  10.481  0.00  0.00    +0.000 N 
ATOM      7  N   UNL     1      45.138   1.864   9.185  0.00  0.00    +0.000 NA
ATOM      8  C   UNL     1      46.023   1.652   8.170  0.00  0.00    +0.000 A 
ATOM      9  H   UNL     1      43.621   2.445  10.961  0.00  0.00    +0.000 HD
BRANCH   2  11
ATOM     10  N   UNL     1      47.456   3.046   5.183  0.00  0.00    +0.000 N 
ATOM     11  C   UNL     1      47.562   2.344   6.354  0.00  0.00    +0.000 C 
ATOM     12  O   UNL     1      48.441   1.511   6.520  0.00  0.00    +0.000 OA
ATOM     13  H   UNL     1      48.180   2.891   4.495  0.00  0.00    +0.000 HD
ATOM     14  H   UNL     1      46.909   3.891   5.101  0.00  0.00    +0.000 HD
ENDBRANCH   2  11
ENDBRANCH   1   6
BRANCH   1  15
ATOM     15  C   UNL     1      43.609   4.819  12.422  0.00  0.00    +0.000 C 
BRANCH  15  16
ATOM     16  C   UNL     1      45.055   5.169  12.702  0.00  0.00    +0.000 A 
ATOM     17  C   UNL     1      45.761   6.010  11.842  0.00  0.00    +0.000 A 
ATOM     18  C   UNL     1      47.056   6.381  12.167  0.00  0.00    +0.000 A 
ATOM     19  F   UNL     1      47.727   7.213  11.357  0.00  0.00    +0.000 F 
ATOM     20  C   UNL     1      47.663   5.938  13.339  0.00  0.00    +0.000 A 
ATOM     21  C   UNL     1      46.987   5.103  14.239  0.00  0.00    +0.000 A 
ATOM     22  C   UNL     1      45.678   4.725  13.887  0.00  0.00    +0.000 A 
BRANCH  21  23
ATOM     23  N   UNL     1      47.564   4.735  15.436  0.00  0.00    +0.000 N 
ATOM     24  C   UNL     1      47.643   3.341  15.899  0.00  0.00    +0.000 C 
ATOM     25  C   UNL     1      47.339   3.297  17.408  0.00  0.00    +0.000 C 
ATOM     26  O   UNL     1      48.193   4.176  18.160  0.00  0.00    +0.000 OA
ATOM     27  C   UNL     1      48.046   5.532  17.702  0.00  0.00    +0.000 C 
ATOM     28  C   UNL     1      48.412   5.657  16.214  0.00  0.00    +0.000 C 
ENDBRANCH  21  23
ENDBRANCH  15  16
ENDBRANCH   1  15
TORSDOF 5
ENDMDL
MODEL 3
REMARK VINA RESULT:    -8.396      2.350      3.256
REMARK INTER + INTRA:         -11.788
REMARK INTER:                 -11.193
REMARK INTRA:                  -0.595
REMARK UNBOUND:                -0.938
REMARK  Name = 
REMARK  5 active torsions:
REMARK  status: ('A' for Active; 'I' for Inactive)
REMARK    1  A    between atoms: C_2  and  C_4
REMARK    2  A    between atoms: N_8  and  C_9
REMARK    3  A    between atoms: C_9  and  C_10
REMARK    4  A    between atoms: C_10  and  C_11
REMARK    5  A    between atoms: C_16  and  N_17
REMARK                            x       y       z     vdW  Elec       q    Type
REMARK                         _______ _______ _______ _____ _____    ______ ____
ROOT
ATOM      1  C   UNL     1      43.144   4.651  10.815  0.00  0.00    +0.000 C 
ENDROOT
BRANCH   1   6
ATOM      2  C   UNL     1      46.497   2.479   7.630  0.00  0.00    +0.000 A 
ATOM      3  C   UNL     1      45.688   1.946   8.624  0.00  0.00    +0.000 A 
ATOM      4  C   UNL     1      44.872   2.802   9.365  0.00  0.00    +0.000 A 
ATOM      5  C   UNL     1      44.871   4.170   9.102  0.00  0.00    +0.000 A 
ATOM      6  N   UNL     1      44.081   5.058   9.791  0.00  0.00    +0.000 N 
ATOM      7  N   UNL     1      45.666   4.697   8.151  0.00  0.00    +0.000 NA
ATOM      8  C   UNL     1      46.470   3.851   7.445  0.00  0.00    +0.000 A 
ATOM      9  H   UNL     1      44.149   6.017   9.473  0.00  0.00    +0.000 HD
BRANCH   2  11
ATOM     10  N   UNL     1      48.355   2.282   6.084  0.00  0.00    +0.000 N 
ATOM     11  C   UNL     1      47.381   1.638   6.799  0.00  0.00    +0.000 C 
ATOM     12  O   UNL     1      47.271   0.421   6.773  0.00  0.00    +0.000 OA
ATOM     13  H   UNL     1      49.017   1.698   5.593  0.00  0.00    +0.000 HD
ATOM     14  H   UNL     1      48.624   3.239   6.266  0.00  0.00    +0.000 HD
ENDBRANCH   2  11
ENDBRANCH   1   6
BRANCH   1  15
ATOM     15  C   UNL     1      43.022   5.673  11.947  0.00  0.00    +0.000 C 
BRANCH  15  16
ATOM     16  C   UNL     1      44.383   6.256  12.257  0.00  0.00    +0.000 A 
ATOM     17  C   UNL     1      44.731   7.528  11.801  0.00  0.00    +0.000 A 
ATOM     18  C   UNL     1      45.951   8.072  12.172  0.00  0.00    +0.000 A 
ATOM     19  F   UNL     1      46.276   9.305  11.758  0.00  0.00    +0.000 F 
ATOM     20  C   UNL     1      46.832   7.377  12.997  0.00  0.00    +0.000 A 
ATOM     21  C   UNL     1      46.518   6.104  13.489  0.00  0.00    +0.000 A 
ATOM     22  C   UNL     1      45.282   5.561  13.093  0.00  0.00    +0.000 A 
BRANCH  21  23
ATOM     23  N   UNL     1      47.358   5.457  14.371  0.00  0.00    +0.000 N 
ATOM     24  C   UNL     1      47.328   4.004  14.597  0.00  0.00    +0.000 C 
ATOM     25  C   UNL     1      47.495   3.728  16.104  0.00  0.00    +0.000 C 
ATOM     26  O   UNL     1      48.678   4.344  16.640  0.00  0.00    +0.000 OA
ATOM     27  C   UNL     1      48.640   5.767  16.436  0.00  0.00    +0.000 C 
ATOM     28  C   UNL     1      48.551   6.110  14.940  0.00  0.00    +0.000 C 
ENDBRANCH  21  23
ENDBRANCH  15  16
ENDBRANCH   1  15
TORSDOF 5
ENDMDL
MODEL 4
REMARK VINA RESULT:    -7.996      2.165      2.603
REMARK INTER + INTRA:         -11.271
REMARK INTER:                 -10.880
REMARK INTRA:                  -0.391
REMARK UNBOUND:                -0.938
REMARK  Name = 
REMARK  5 active torsions:
REMARK  status: ('A' for Active; 'I' for Inactive)
REMARK    1  A    between atoms: C_2  and  C_4
REMARK    2  A    between atoms: N_8  and  C_9
REMARK    3  A    between atoms: C_9  and  C_10
REMARK    4  A    between atoms: C_10  and  C_11
REMARK    5  A    between atoms: C_16  and  N_17
REMARK                            x       y       z     vdW  Elec       q    Type
REMARK                         _______ _______ _______ _____ _____    ______ ____
ROOT
ATOM      1  C   UNL     1      43.214   4.470  11.018  0.00  0.00    +0.000 C 
ENDROOT
BRANCH   1   6
ATOM      2  C   UNL     1      46.465   2.445   7.636  0.00  0.00    +0.000 A 
ATOM      3  C   UNL     1      45.789   1.891   8.715  0.00  0.00    +0.000 A 
ATOM      4  C   UNL     1      44.967   2.709   9.491  0.00  0.00    +0.000 A 
ATOM      5  C   UNL     1      44.827   4.059   9.181  0.00  0.00    +0.000 A 
ATOM      6  N   UNL     1      44.024   4.909   9.903  0.00  0.00    +0.000 N 
ATOM      7  N   UNL     1      45.493   4.608   8.146  0.00  0.00    +0.000 NA
ATOM      8  C   UNL     1      46.305   3.802   7.405  0.00  0.00    +0.000 A 
ATOM      9  H   UNL     1      43.983   5.855   9.545  0.00  0.00    +0.000 HD
BRANCH   2  11
ATOM     10  N   UNL     1      48.457   2.271   6.265  0.00  0.00    +0.000 N 
ATOM     11  C   UNL     1      47.345   1.645   6.763  0.00  0.00    +0.000 C 
ATOM     12  O   UNL     1      47.111   0.470   6.519  0.00  0.00    +0.000 OA
ATOM     13  H   UNL     1      49.106   1.694   5.747  0.00  0.00    +0.000 HD
ATOM     14  H   UNL     1      48.802   3.146   6.632  0.00  0.00    +0.000 HD
ENDBRANCH   2  11
ENDBRANCH   1   6
BRANCH   1  15
ATOM     15  C   UNL     1      43.967   4.509  12.349  0.00  0.00    +0.000 C 
BRANCH  15  16
ATOM     16  C   UNL     1      44.914   5.689  12.366  0.00  0.00    +0.000 A 
ATOM     17  C   UNL     1      46.269   5.507  12.645  0.00  0.00    +0.000 A 
ATOM     18  C   UNL     1      47.129   6.592  12.569  0.00  0.00    +0.000 A 
ATOM     19  F   UNL     1      48.436   6.415  12.809  0.00  0.00    +0.000 F 
ATOM     20  C   UNL     1      46.668   7.856  12.212  0.00  0.00    +0.000 A 
ATOM     21  C   UNL     1      45.319   8.082  11.910  0.00  0.00    +0.000 A 
ATOM     22  C   UNL     1      44.458   6.973  12.005  0.00  0.00    +0.000 A 
BRANCH  21  23
ATOM     23  N   UNL     1      44.886   9.318  11.478  0.00  0.00    +0.000 N 
ATOM     24  C   UNL     1      43.545   9.553  10.921  0.00  0.00    +0.000 C 
ATOM     25  C   UNL     1      43.664  10.508   9.717  0.00  0.00    +0.000 C 
ATOM     26  O   UNL     1      44.341  11.729  10.058  0.00  0.00    +0.000 OA
ATOM     27  C   UNL     1      45.662  11.450  10.555  0.00  0.00    +0.000 C 
ATOM     28  C   UNL     1      45.606  10.561  11.807  0.00  0.00    +0.000 C 
ENDBRANCH  21  23
ENDBRANCH  15  16
ENDBRANCH   1  15
TORSDOF 5
ENDMDL
MODEL 5
REMARK VINA RESULT:    -7.692      3.138      7.308
REMARK INTER + INTRA:         -10.879
REMARK INTER:                 -10.092
REMARK INTRA:                  -0.787
REMARK UNBOUND:                -0.938
REMARK  Name = 
REMARK  5 active torsions:
REMARK  status: ('A' for Active; 'I' for Inactive)
REMARK    1  A    between atoms: C_2  and  C_4
REMARK    2  A    between atoms: N_8  and  C_9
REMARK    3  A    between atoms: C_9  and  C_10
REMARK    4  A    between atoms: C_10  and  C_11
REMARK    5  A    between atoms: C_16  and  N_17
REMARK                            x       y       z     vdW  Elec       q    Type
REMARK                         _______ _______ _______ _____ _____    ______ ____
ROOT
ATOM      1  C   UNL     1      47.828   7.009  11.869  0.00  0.00    +0.000 C 
ENDROOT
BRANCH   1   6
ATOM      2  C   UNL     1      47.593   4.532  16.332  0.00  0.00    +0.000 A 
ATOM      3  C   UNL     1      46.930   4.334  15.129  0.00  0.00    +0.000 A 
ATOM      4  C   UNL     1      47.184   5.199  14.065  0.00  0.00    +0.000 A 
ATOM      5  C   UNL     1      48.095   6.242  14.212  0.00  0.00    +0.000 A 
ATOM      6  N   UNL     1      48.393   7.118  13.196  0.00  0.00    +0.000 N 
ATOM      7  N   UNL     1      48.730   6.452  15.382  0.00  0.00    +0.000 NA
ATOM      8  C   UNL     1      48.461   5.608  16.419  0.00  0.00    +0.000 A 
ATOM      9  H   UNL     1      49.101   7.805  13.426  0.00  0.00    +0.000 HD
BRANCH   2  11
ATOM     10  N   UNL     1      48.111   3.939  18.626  0.00  0.00    +0.000 N 
ATOM     11  C   UNL     1      47.384   3.655  17.501  0.00  0.00    +0.000 C 
ATOM     12  O   UNL     1      46.578   2.736  17.478  0.00  0.00    +0.000 OA
ATOM     13  H   UNL     1      47.897   3.398  19.452  0.00  0.00    +0.000 HD
ATOM     14  H   UNL     1      48.595   4.817  18.756  0.00  0.00    +0.000 HD
ENDBRANCH   2  11
ENDBRANCH   1   6
BRANCH   1  15
ATOM     15  C   UNL     1      46.424   7.608  11.772  0.00  0.00    +0.000 C 
BRANCH  15  16
ATOM     16  C   UNL     1      45.441   6.539  11.347  0.00  0.00    +0.000 A 
ATOM     17  C   UNL     1      44.127   6.556  11.815  0.00  0.00    +0.000 A 
ATOM     18  C   UNL     1      43.226   5.614  11.343  0.00  0.00    +0.000 A 
ATOM     19  F   UNL     1      41.955   5.646  11.769  0.00  0.00    +0.000 F 
ATOM     20  C   UNL     1      43.604   4.658  10.405  0.00  0.00    +0.000 A 
ATOM     21  C   UNL     1      44.909   4.612   9.897  0.00  0.00    +0.000 A 
ATOM     22  C   UNL     1      45.814   5.566  10.396  0.00  0.00    +0.000 A 
BRANCH  21  23
ATOM     23  N   UNL     1      45.254   3.714   8.908  0.00  0.00    +0.000 N 
ATOM     24  C   UNL     1      44.745   2.335   8.857  0.00  0.00    +0.000 C 
ATOM     25  C   UNL     1      45.892   1.393   8.445  0.00  0.00    +0.000 C 
ATOM     26  O   UNL     1      46.511   1.798   7.212  0.00  0.00    +0.000 OA
ATOM     27  C   UNL     1      47.032   3.133   7.327  0.00  0.00    +0.000 C 
ATOM     28  C   UNL     1      45.918   4.137   7.661  0.00  0.00    +0.000 C 
ENDBRANCH  21  23
ENDBRANCH  15  16
ENDBRANCH   1  15
TORSDOF 5
ENDMDL
MODEL 6
REMARK VINA RESULT:    -7.598      2.363      3.036
REMARK INTER + INTRA:         -10.756
REMARK INTER:                 -10.042
REMARK INTRA:                  -0.714
REMARK UNBOUND:                -0.938
REMARK  Name = 
REMARK  5 active torsions:
REMARK  status: ('A' for Active; 'I' for Inactive)
REMARK    1  A    between atoms: C_2  and  C_4
REMARK    2  A    between atoms: N_8  and  C_9
REMARK    3  A    between atoms: C_9  and  C_10
REMARK    4  A    between atoms: C_10  and  C_11
REMARK    5  A    between atoms: C_16  and  N_17
REMARK                            x       y       z     vdW  Elec       q    Type
REMARK                         _______ _______ _______ _____ _____    ______ ____
ROOT
ATOM      1  C   UNL     1      43.354   4.712  10.772  0.00  0.00    +0.000 C 
ENDROOT
BRANCH   1   6
ATOM      2  C   UNL     1      46.600   2.673   7.393  0.00  0.00    +0.000 A 
ATOM      3  C   UNL     1      46.156   3.975   7.579  0.00  0.00    +0.000 A 
ATOM      4  C   UNL     1      45.231   4.238   8.590  0.00  0.00    +0.000 A 
ATOM      5  C   UNL     1      44.768   3.205   9.401  0.00  0.00    +0.000 A 
ATOM      6  N   UNL     1      43.866   3.406  10.418  0.00  0.00    +0.000 N 
ATOM      7  N   UNL     1      45.181   1.936   9.216  0.00  0.00    +0.000 NA
ATOM      8  C   UNL     1      46.073   1.690   8.214  0.00  0.00    +0.000 A 
ATOM      9  H   UNL     1      43.644   2.576  10.955  0.00  0.00    +0.000 HD
BRANCH   2  11
ATOM     10  N   UNL     1      47.535   3.032   5.185  0.00  0.00    +0.000 N 
ATOM     11  C   UNL     1      47.583   2.316   6.351  0.00  0.00    +0.000 C 
ATOM     12  O   UNL     1      48.420   1.444   6.531  0.00  0.00    +0.000 OA
ATOM     13  H   UNL     1      48.269   2.851   4.513  0.00  0.00    +0.000 HD
ATOM     14  H   UNL     1      47.027   3.901   5.098  0.00  0.00    +0.000 HD
ENDBRANCH   2  11
ENDBRANCH   1   6
BRANCH   1  15
ATOM     15  C   UNL     1      43.731   5.130  12.195  0.00  0.00    +0.000 C 
BRANCH  15  16
ATOM     16  C   UNL     1      44.558   6.396  12.153  0.00  0.00    +0.000 A 
ATOM     17  C   UNL     1      44.114   7.510  11.440  0.00  0.00    +0.000 A 
ATOM     18  C   UNL     1      44.849   8.685  11.489  0.00  0.00    +0.000 A 
ATOM     19  F   UNL     1      44.410   9.765  10.829  0.00  0.00    +0.000 F 
ATOM     20  C   UNL     1      46.017   8.775  12.242  0.00  0.00    +0.000 A 
ATOM     21  C   UNL     1      46.493   7.686  12.983  0.00  0.00    +0.000 A 
ATOM     22  C   UNL     1      45.742   6.499  12.912  0.00  0.00    +0.000 A 
BRANCH  21  23
ATOM     23  N   UNL     1      47.604   7.809  13.790  0.00  0.00    +0.000 N 
ATOM     24  C   UNL     1      48.468   6.674  14.152  0.00  0.00    +0.000 C 
ATOM     25  C   UNL     1      48.859   6.796  15.637  0.00  0.00    +0.000 C 
ATOM     26  O   UNL     1      49.463   8.066  15.937  0.00  0.00    +0.000 OA
ATOM     27  C   UNL     1      48.564   9.140  15.609  0.00  0.00    +0.000 C 
ATOM     28  C   UNL     1      48.196   9.119  14.117  0.00  0.00    +0.000 C 
ENDBRANCH  21  23
ENDBRANCH  15  16
ENDBRANCH   1  15
TORSDOF 5
ENDMDL
MODEL 7
REMARK VINA RESULT:    -7.028      4.159      8.369
REMARK INTER + INTRA:         -10.020
REMARK INTER:                  -9.503
REMARK INTRA:                  -0.517
REMARK UNBOUND:                -0.938
REMARK  Name = 
REMARK  5 active torsions:
REMARK  status: ('A' for Active; 'I' for Inactive)
REMARK    1  A    between atoms: C_2  and  C_4
REMARK    2  A    between atoms: N_8  and  C_9
REMARK    3  A    between atoms: C_9  and  C_10
REMARK    4  A    between atoms: C_10  and  C_11
REMARK    5  A    between atoms: C_16  and  N_17
REMARK                            x       y       z     vdW  Elec       q    Type
REMARK                         _______ _______ _______ _____ _____    ______ ____
ROOT
ATOM      1  C   UNL     1      47.170   4.403  13.776  0.00  0.00    +0.000 C 
ENDROOT
BRANCH   1   6
ATOM      2  C   UNL     1      48.572   4.427  18.689  0.00  0.00    +0.000 A 
ATOM      3  C   UNL     1      48.852   5.296  17.644  0.00  0.00    +0.000 A 
ATOM      4  C   UNL     1      48.340   5.018  16.376  0.00  0.00    +0.000 A 
ATOM      5  C   UNL     1      47.556   3.886  16.170  0.00  0.00    +0.000 A 
ATOM      6  N   UNL     1      47.016   3.568  14.947  0.00  0.00    +0.000 N 
ATOM      7  N   UNL     1      47.294   3.028  17.176  0.00  0.00    +0.000 NA
ATOM      8  C   UNL     1      47.813   3.303  18.406  0.00  0.00    +0.000 A 
ATOM      9  H   UNL     1      46.434   2.739  14.946  0.00  0.00    +0.000 HD
BRANCH   2  11
ATOM     10  N   UNL     1      48.152   4.579  21.073  0.00  0.00    +0.000 N 
ATOM     11  C   UNL     1      49.070   4.656  20.060  0.00  0.00    +0.000 C 
ATOM     12  O   UNL     1      50.251   4.874  20.285  0.00  0.00    +0.000 OA
ATOM     13  H   UNL     1      48.511   4.641  22.016  0.00  0.00    +0.000 HD
ATOM     14  H   UNL     1      47.236   4.171  20.950  0.00  0.00    +0.000 HD
ENDBRANCH   2  11
ENDBRANCH   1   6
BRANCH   1  15
ATOM     15  C   UNL     1      46.101   5.492  13.680  0.00  0.00    +0.000 C 
BRANCH  15  16
ATOM     16  C   UNL     1      45.076   5.111  12.635  0.00  0.00    +0.000 A 
ATOM     17  C   UNL     1      43.755   5.544  12.745  0.00  0.00    +0.000 A 
ATOM     18  C   UNL     1      42.857   5.252  11.729  0.00  0.00    +0.000 A 
ATOM     19  F   UNL     1      41.594   5.693  11.819  0.00  0.00    +0.000 F 
ATOM     20  C   UNL     1      43.251   4.541  10.599  0.00  0.00    +0.000 A 
ATOM     21  C   UNL     1      44.570   4.098  10.440  0.00  0.00    +0.000 A 
ATOM     22  C   UNL     1      45.464   4.391  11.485  0.00  0.00    +0.000 A 
BRANCH  21  23
ATOM     23  N   UNL     1      44.971   3.466   9.281  0.00  0.00    +0.000 N 
ATOM     24  C   UNL     1      44.845   2.016   9.067  0.00  0.00    +0.000 C 
ATOM     25  C   UNL     1      46.116   1.501   8.366  0.00  0.00    +0.000 C 
ATOM     26  O   UNL     1      46.391   2.215   7.149  0.00  0.00    +0.000 OA
ATOM     27  C   UNL     1      46.552   3.619   7.416  0.00  0.00    +0.000 C 
ATOM     28  C   UNL     1      45.282   4.212   8.049  0.00  0.00    +0.000 C 
ENDBRANCH  21  23
ENDBRANCH  15  16
ENDBRANCH   1  15
TORSDOF 5
ENDMDL
MODEL 8
REMARK VINA RESULT:    -7.018      3.408      4.154
REMARK INTER + INTRA:         -10.007
REMARK INTER:                  -9.309
REMARK INTRA:                  -0.698
REMARK UNBOUND:                -0.938
REMARK  Name = 
REMARK  5 active torsions:
REMARK  status: ('A' for Active; 'I' for Inactive)
REMARK    1  A    between atoms: C_2  and  C_4
REMARK    2  A    between atoms: N_8  and  C_9
REMARK    3  A    between atoms: C_9  and  C_10
REMARK    4  A    between atoms: C_10  and  C_11
REMARK    5  A    between atoms: C_16  and  N_17
REMARK                            x       y       z     vdW  Elec       q    Type
REMARK                         _______ _______ _______ _____ _____    ______ ____
ROOT
ATOM      1  C   UNL     1      43.688   5.491  11.033  0.00  0.00    +0.000 C 
ENDROOT
BRANCH   1   6
ATOM      2  C   UNL     1      46.366   2.607   7.774  0.00  0.00    +0.000 A 
ATOM      3  C   UNL     1      46.318   3.981   7.968  0.00  0.00    +0.000 A 
ATOM      4  C   UNL     1      45.458   4.498   8.937  0.00  0.00    +0.000 A 
ATOM      5  C   UNL     1      44.665   3.644   9.699  0.00  0.00    +0.000 A 
ATOM      6  N   UNL     1      43.809   4.095  10.674  0.00  0.00    +0.000 N 
ATOM      7  N   UNL     1      44.694   2.310   9.504  0.00  0.00    +0.000 NA
ATOM      8  C   UNL     1      45.527   1.819   8.543  0.00  0.00    +0.000 A 
ATOM      9  H   UNL     1      43.321   3.364  11.178  0.00  0.00    +0.000 HD
BRANCH   2  11
ATOM     10  N   UNL     1      48.225   2.780   6.226  0.00  0.00    +0.000 N 
ATOM     11  C   UNL     1      47.255   1.984   6.775  0.00  0.00    +0.000 C 
ATOM     12  O   UNL     1      47.152   0.804   6.471  0.00  0.00    +0.000 OA
ATOM     13  H   UNL     1      48.891   2.326   5.616  0.00  0.00    +0.000 HD
ATOM     14  H   UNL     1      48.488   3.671   6.622  0.00  0.00    +0.000 HD
ENDBRANCH   2  11
ENDBRANCH   1   6
BRANCH   1  15
ATOM     15  C   UNL     1      44.535   5.865  12.251  0.00  0.00    +0.000 C 
BRANCH  15  16
ATOM     16  C   UNL     1      44.973   7.309  12.144  0.00  0.00    +0.000 A 
ATOM     17  C   UNL     1      46.225   7.707  12.612  0.00  0.00    +0.000 A 
ATOM     18  C   UNL     1      46.635   9.019  12.424  0.00  0.00    +0.000 A 
ATOM     19  F   UNL     1      47.850   9.397  12.847  0.00  0.00    +0.000 F 
ATOM     20  C   UNL     1      45.824   9.943  11.772  0.00  0.00    +0.000 A 
ATOM     21  C   UNL     1      44.564   9.584  11.274  0.00  0.00    +0.000 A 
ATOM     22  C   UNL     1      44.159   8.253  11.484  0.00  0.00    +0.000 A 
BRANCH  21  23
ATOM     23  N   UNL     1      43.802  10.483  10.557  0.00  0.00    +0.000 N 
ATOM     24  C   UNL     1      42.472  10.937  10.990  0.00  0.00    +0.000 C 
ATOM     25  C   UNL     1      41.543  11.005   9.763  0.00  0.00    +0.000 C 
ATOM     26  O   UNL     1      42.089  11.820   8.712  0.00  0.00    +0.000 OA
ATOM     27  C   UNL     1      43.366  11.309   8.293  0.00  0.00    +0.000 C 
ATOM     28  C   UNL     1      44.366  11.290   9.460  0.00  0.00    +0.000 C 
ENDBRANCH  21  23
ENDBRANCH  15  16
ENDBRANCH   1  15
TORSDOF 5
ENDMDL
MODEL 9
REMARK VINA RESULT:    -6.450      3.838      7.531
REMARK INTER + INTRA:          -9.274
REMARK INTER:                  -8.455
REMARK INTRA:                  -0.818
REMARK UNBOUND:                -0.938
REMARK  Name = 
REMARK  5 active torsions:
REMARK  status: ('A' for Active; 'I' for Inactive)
REMARK    1  A    between atoms: C_2  and  C_4
REMARK    2  A    between atoms: N_8  and  C_9
REMARK    3  A    between atoms: C_9  and  C_10
REMARK    4  A    between atoms: C_10  and  C_11
REMARK    5  A    between atoms: C_16  and  N_17
REMARK                            x       y       z     vdW  Elec       q    Type
REMARK                         _______ _______ _______ _____ _____    ______ ____
ROOT
ATOM      1  C   UNL     1      49.161   7.803  12.808  0.00  0.00    +0.000 C 
ENDROOT
BRANCH   1   6
ATOM      2  C   UNL     1      47.945   4.614  16.610  0.00  0.00    +0.000 A 
ATOM      3  C   UNL     1      47.351   4.853  15.378  0.00  0.00    +0.000 A 
ATOM      4  C   UNL     1      47.902   5.819  14.537  0.00  0.00    +0.000 A 
ATOM      5  C   UNL     1      49.035   6.527  14.930  0.00  0.00    +0.000 A 
ATOM      6  N   UNL     1      49.628   7.482  14.139  0.00  0.00    +0.000 N 
ATOM      7  N   UNL     1      49.608   6.313  16.131  0.00  0.00    +0.000 NA
ATOM      8  C   UNL     1      49.050   5.378  16.951  0.00  0.00    +0.000 A 
ATOM      9  H   UNL     1      50.467   7.892  14.530  0.00  0.00    +0.000 HD
BRANCH   2  11
ATOM     10  N   UNL     1      48.124   3.429  18.718  0.00  0.00    +0.000 N 
ATOM     11  C   UNL     1      47.427   3.603  17.553  0.00  0.00    +0.000 C 
ATOM     12  O   UNL     1      46.406   2.972  17.319  0.00  0.00    +0.000 OA
ATOM     13  H   UNL     1      47.714   2.806  19.402  0.00  0.00    +0.000 HD
ATOM     14  H   UNL     1      48.816   4.088  19.045  0.00  0.00    +0.000 HD
ENDBRANCH   2  11
ENDBRANCH   1   6
BRANCH   1  15
ATOM     15  C   UNL     1      48.466   9.164  12.736  0.00  0.00    +0.000 C 
BRANCH  15  16
ATOM     16  C   UNL     1      47.026   8.980  12.309  0.00  0.00    +0.000 A 
ATOM     17  C   UNL     1      46.257  10.076  11.916  0.00  0.00    +0.000 A 
ATOM     18  C   UNL     1      44.968   9.868  11.448  0.00  0.00    +0.000 A 
ATOM     19  F   UNL     1      44.237  10.916  11.043  0.00  0.00    +0.000 F 
ATOM     20  C   UNL     1      44.431   8.587  11.356  0.00  0.00    +0.000 A 
ATOM     21  C   UNL     1      45.171   7.457  11.727  0.00  0.00    +0.000 A 
ATOM     22  C   UNL     1      46.472   7.687  12.211  0.00  0.00    +0.000 A 
BRANCH  21  23
ATOM     23  N   UNL     1      44.662   6.187  11.555  0.00  0.00    +0.000 N 
ATOM     24  C   UNL     1      45.208   5.222  10.588  0.00  0.00    +0.000 C 
ATOM     25  C   UNL     1      44.041   4.485   9.903  0.00  0.00    +0.000 C 
ATOM     26  O   UNL     1      43.155   3.871  10.853  0.00  0.00    +0.000 OA
ATOM     27  C   UNL     1      42.612   4.860  11.746  0.00  0.00    +0.000 C 
ATOM     28  C   UNL     1      43.727   5.580  12.520  0.00  0.00    +0.000 C 
ENDBRANCH  21  23
ENDBRANCH  15  16
ENDBRANCH   1  15
TORSDOF 5
ENDMDL
