MODEL 1
REMARK VINA RESULT:    -7.708      0.000      0.000
REMARK INTER + INTRA:          -9.617
REMARK INTER:                  -9.060
REMARK INTRA:                  -0.556
REMARK UNBOUND:                -0.556
REMARK  Name = 
REMARK  3 active torsions:
REMARK  status: ('A' for Active; 'I' for Inactive)
REMARK    1  A    between atoms: N_6  and  C_7
REMARK    2  A    between atoms: C_7  and  C_8
REMARK    3  A    between atoms: C_12  and  N_13
REMARK                            x       y       z     vdW  Elec       q    Type
REMARK                         _______ _______ _______ _____ _____    ______ ____
ROOT
ATOM      1  C   UNL     1      44.544   4.707  12.079  0.00  0.00    +0.000 C 
ATOM      2  C   UNL     1      43.299   4.919  12.941  0.00  0.00    +0.000 C 
ATOM      3  C   UNL     1      43.539   5.805  11.770  0.00  0.00    +0.000 C 
ENDROOT
BRANCH   1   9
ATOM      4 CL   UNL     1      46.711   3.023   5.825  0.00  0.00    +0.000 Cl
ATOM      5  C   UNL     1      46.053   3.126   7.402  0.00  0.00    +0.000 A 
ATOM      6  C   UNL     1      45.625   1.988   8.073  0.00  0.00    +0.000 A 
ATOM      7  C   UNL     1      45.135   2.125   9.375  0.00  0.00    +0.000 A 
ATOM      8  C   UNL     1      45.096   3.381   9.987  0.00  0.00    +0.000 A 
ATOM      9  N   UNL     1      44.624   3.431  11.326  0.00  0.00    +0.000 N 
ATOM     10  N   UNL     1      45.478   4.489   9.322  0.00  0.00    +0.000 NA
ATOM     11  C   UNL     1      45.943   4.339   8.059  0.00  0.00    +0.000 A 
ATOM     12  H   UNL     1      45.162   2.738  11.841  0.00  0.00    +0.000 HD
ENDBRANCH   1   9
BRANCH   1  13
ATOM     13  C   UNL     1      45.868   5.150  12.691  0.00  0.00    +0.000 A 
ATOM     14  C   UNL     1      46.605   6.190  12.116  0.00  0.00    +0.000 A 
ATOM     15  C   UNL     1      47.649   6.779  12.817  0.00  0.00    +0.000 A 
ATOM     16  C   UNL     1      47.965   6.327  14.099  0.00  0.00    +0.000 A 
ATOM     17  C   UNL     1      47.306   5.235  14.685  0.00  0.00    +0.000 A 
ATOM     18  C   UNL     1      46.307   4.625  13.925  0.00  0.00    +0.000 A 
BRANCH  17  19
ATOM     19  N   UNL     1      47.602   4.837  15.978  0.00  0.00    +0.000 N 
ATOM     20  C   UNL     1      48.481   5.610  16.857  0.00  0.00    +0.000 C 
ATOM     21  C   UNL     1      49.783   4.863  17.139  0.00  0.00    +0.000 C 
ATOM     22  C   UNL     1      49.510   3.447  17.638  0.00  0.00    +0.000 C 
ATOM     23  C   UNL     1      48.631   2.697  16.645  0.00  0.00    +0.000 C 
ATOM     24  C   UNL     1      47.330   3.449  16.360  0.00  0.00    +0.000 C 
ENDBRANCH  17  19
ENDBRANCH   1  13
TORSDOF 3
ENDMDL
MODEL 2
REMARK VINA RESULT:    -7.573      2.128      3.689
REMARK INTER + INTRA:          -9.458
REMARK INTER:                  -8.695
REMARK INTRA:                  -0.763
REMARK UNBOUND:                -0.556
REMARK  Name = 
REMARK  3 active torsions:
REMARK  status: ('A' for Active; 'I' for Inactive)
REMARK    1  A    between atoms: N_6  and  C_7
REMARK    2  A    between atoms: C_7  and  C_8
REMARK    3  A    between atoms: C_12  and  N_13
REMARK                            x       y       z     vdW  Elec       q    Type
REMARK                         _______ _______ _______ _____ _____    ______ ____
ROOT
ATOM      1  C   UNL     1      44.080   4.784  11.605  0.00  0.00    +0.000 C 
ATOM      2  C   UNL     1      42.696   4.989  12.221  0.00  0.00    +0.000 C 
ATOM      3  C   UNL     1      43.105   5.809  11.048  0.00  0.00    +0.000 C 
ENDROOT
BRANCH   1   9
ATOM      4 CL   UNL     1      47.171   2.826   5.838  0.00  0.00    +0.000 Cl
ATOM      5  C   UNL     1      46.302   2.993   7.304  0.00  0.00    +0.000 A 
ATOM      6  C   UNL     1      45.858   1.877   8.002  0.00  0.00    +0.000 A 
ATOM      7  C   UNL     1      45.190   2.068   9.214  0.00  0.00    +0.000 A 
ATOM      8  C   UNL     1      44.991   3.358   9.714  0.00  0.00    +0.000 A 
ATOM      9  N   UNL     1      44.340   3.468  10.972  0.00  0.00    +0.000 N 
ATOM     10  N   UNL     1      45.389   4.442   9.019  0.00  0.00    +0.000 NA
ATOM     11  C   UNL     1      46.029   4.238   7.842  0.00  0.00    +0.000 A 
ATOM     12  H   UNL     1      44.846   2.854  11.606  0.00  0.00    +0.000 HD
ENDBRANCH   1   9
BRANCH   1  13
ATOM     13  C   UNL     1      45.258   5.332  12.403  0.00  0.00    +0.000 A 
ATOM     14  C   UNL     1      45.802   4.600  13.464  0.00  0.00    +0.000 A 
ATOM     15  C   UNL     1      47.031   4.956  14.002  0.00  0.00    +0.000 A 
ATOM     16  C   UNL     1      47.725   6.050  13.483  0.00  0.00    +0.000 A 
ATOM     17  C   UNL     1      47.184   6.862  12.474  0.00  0.00    +0.000 A 
ATOM     18  C   UNL     1      45.917   6.515  12.002  0.00  0.00    +0.000 A 
BRANCH  17  19
ATOM     19  N   UNL     1      47.913   7.911  11.940  0.00  0.00    +0.000 N 
ATOM     20  C   UNL     1      49.285   7.751  11.455  0.00  0.00    +0.000 C 
ATOM     21  C   UNL     1      50.278   8.507  12.336  0.00  0.00    +0.000 C 
ATOM     22  C   UNL     1      49.859   9.964  12.515  0.00  0.00    +0.000 C 
ATOM     23  C   UNL     1      48.440  10.041  13.066  0.00  0.00    +0.000 C 
ATOM     24  C   UNL     1      47.448   9.279  12.186  0.00  0.00    +0.000 C 
ENDBRANCH  17  19
ENDBRANCH   1  13
TORSDOF 3
ENDMDL
MODEL 3
REMARK VINA RESULT:    -7.205      2.689      4.717
REMARK INTER + INTRA:          -9.024
REMARK INTER:                  -8.407
REMARK INTRA:                  -0.618
REMARK UNBOUND:                -0.556
REMARK  Name = 
REMARK  3 active torsions:
REMARK  status: ('A' for Active; 'I' for Inactive)
REMARK    1  A    between atoms: N_6  and  C_7
REMARK    2  A    between atoms: C_7  and  C_8
REMARK    3  A    between atoms: C_12  and  N_13
REMARK                            x       y       z     vdW  Elec       q    Type
REMARK                         _______ _______ _______ _____ _____    ______ ____
ROOT
ATOM      1  C   UNL     1      43.973   5.005  11.980  0.00  0.00    +0.000 C 
ATOM      2  C   UNL     1      42.726   5.035  12.865  0.00  0.00    +0.000 C 
ATOM      3  C   UNL     1      42.721   5.762  11.566  0.00  0.00    +0.000 C 
ENDROOT
BRANCH   1   9
ATOM      4 CL   UNL     1      46.700   3.001   6.048  0.00  0.00    +0.000 Cl
ATOM      5  C   UNL     1      45.974   3.172   7.590  0.00  0.00    +0.000 A 
ATOM      6  C   UNL     1      45.781   2.071   8.414  0.00  0.00    +0.000 A 
ATOM      7  C   UNL     1      45.222   2.273   9.679  0.00  0.00    +0.000 A 
ATOM      8  C   UNL     1      44.885   3.561  10.104  0.00  0.00    +0.000 A 
ATOM      9  N   UNL     1      44.361   3.689  11.418  0.00  0.00    +0.000 N 
ATOM     10  N   UNL     1      45.040   4.623   9.290  0.00  0.00    +0.000 NA
ATOM     11  C   UNL     1      45.575   4.408   8.065  0.00  0.00    +0.000 A 
ATOM     12  H   UNL     1      45.017   3.211  12.032  0.00  0.00    +0.000 HD
ENDBRANCH   1   9
BRANCH   1  13
ATOM     13  C   UNL     1      45.151   5.850  12.452  0.00  0.00    +0.000 A 
ATOM     14  C   UNL     1      46.402   5.265  12.675  0.00  0.00    +0.000 A 
ATOM     15  C   UNL     1      47.530   6.061  12.827  0.00  0.00    +0.000 A 
ATOM     16  C   UNL     1      47.413   7.450  12.760  0.00  0.00    +0.000 A 
ATOM     17  C   UNL     1      46.169   8.084  12.618  0.00  0.00    +0.000 A 
ATOM     18  C   UNL     1      45.048   7.255  12.535  0.00  0.00    +0.000 A 
BRANCH  17  19
ATOM     19  N   UNL     1      46.083   9.461  12.503  0.00  0.00    +0.000 N 
ATOM     20  C   UNL     1      44.858  10.140  12.076  0.00  0.00    +0.000 C 
ATOM     21  C   UNL     1      45.033  10.797  10.709  0.00  0.00    +0.000 C 
ATOM     22  C   UNL     1      46.270  11.691  10.680  0.00  0.00    +0.000 C 
ATOM     23  C   UNL     1      47.505  10.897  11.089  0.00  0.00    +0.000 C 
ATOM     24  C   UNL     1      47.326  10.235  12.456  0.00  0.00    +0.000 C 
ENDBRANCH  17  19
ENDBRANCH   1  13
TORSDOF 3
ENDMDL
MODEL 4
REMARK VINA RESULT:    -6.792      2.741      6.839
REMARK INTER + INTRA:          -8.539
REMARK INTER:                  -7.817
REMARK INTRA:                  -0.723
REMARK UNBOUND:                -0.556
REMARK  Name = 
REMARK  3 active torsions:
REMARK  status: ('A' for Active; 'I' for Inactive)
REMARK    1  A    between atoms: N_6  and  C_7
REMARK    2  A    between atoms: C_7  and  C_8
REMARK    3  A    between atoms: C_12  and  N_13
REMARK                            x       y       z     vdW  Elec       q    Type
REMARK                         _______ _______ _______ _____ _____    ______ ____
ROOT
ATOM      1  C   UNL     1      46.356   5.022  13.607  0.00  0.00    +0.000 C 
ATOM      2  C   UNL     1      46.689   3.990  14.686  0.00  0.00    +0.000 C 
ATOM      3  C   UNL     1      47.520   4.056  13.452  0.00  0.00    +0.000 C 
ENDROOT
BRANCH   1   9
ATOM      4 CL   UNL     1      49.778  10.270  10.887  0.00  0.00    +0.000 Cl
ATOM      5  C   UNL     1      48.868   9.166  11.828  0.00  0.00    +0.000 A 
ATOM      6  C   UNL     1      48.177   9.589  12.956  0.00  0.00    +0.000 A 
ATOM      7  C   UNL     1      47.416   8.655  13.664  0.00  0.00    +0.000 A 
ATOM      8  C   UNL     1      47.343   7.329  13.228  0.00  0.00    +0.000 A 
ATOM      9  N   UNL     1      46.516   6.449  13.977  0.00  0.00    +0.000 N 
ATOM     10  N   UNL     1      48.042   6.911  12.155  0.00  0.00    +0.000 NA
ATOM     11  C   UNL     1      48.780   7.828  11.485  0.00  0.00    +0.000 A 
ATOM     12  H   UNL     1      45.611   6.909  14.053  0.00  0.00    +0.000 HD
ENDBRANCH   1   9
BRANCH   1  13
ATOM     13  C   UNL     1      45.119   4.735  12.762  0.00  0.00    +0.000 A 
ATOM     14  C   UNL     1      43.890   5.323  13.078  0.00  0.00    +0.000 A 
ATOM     15  C   UNL     1      42.845   5.293  12.164  0.00  0.00    +0.000 A 
ATOM     16  C   UNL     1      43.022   4.671  10.928  0.00  0.00    +0.000 A 
ATOM     17  C   UNL     1      44.210   4.000  10.597  0.00  0.00    +0.000 A 
ATOM     18  C   UNL     1      45.216   3.993  11.566  0.00  0.00    +0.000 A 
BRANCH  17  19
ATOM     19  N   UNL     1      44.382   3.434   9.346  0.00  0.00    +0.000 N 
ATOM     20  C   UNL     1      44.484   1.988   9.143  0.00  0.00    +0.000 C 
ATOM     21  C   UNL     1      45.884   1.589   8.679  0.00  0.00    +0.000 C 
ATOM     22  C   UNL     1      46.318   2.409   7.467  0.00  0.00    +0.000 C 
ATOM     23  C   UNL     1      46.227   3.899   7.777  0.00  0.00    +0.000 C 
ATOM     24  C   UNL     1      44.827   4.296   8.247  0.00  0.00    +0.000 C 
ENDBRANCH  17  19
ENDBRANCH   1  13
TORSDOF 3
ENDMDL
MODEL 5
REMARK VINA RESULT:    -6.738      3.440      7.221
REMARK INTER + INTRA:          -8.476
REMARK INTER:                  -7.949
REMARK INTRA:                  -0.526
REMARK UNBOUND:                -0.556
REMARK  Name = 
REMARK  3 active torsions:
REMARK  status: ('A' for Active; 'I' for Inactive)
REMARK    1  A    between atoms: N_6  and  C_7
REMARK    2  A    between atoms: C_7  and  C_8
REMARK    3  A    between atoms: C_12  and  N_13
REMARK                            x       y       z     vdW  Elec       q    Type
REMARK                         _______ _______ _______ _____ _____    ______ ____
ROOT
ATOM      1  C   UNL     1      45.602   6.871  11.764  0.00  0.00    +0.000 C 
ATOM      2  C   UNL     1      44.582   7.909  11.294  0.00  0.00    +0.000 C 
ATOM      3  C   UNL     1      44.801   7.704  12.752  0.00  0.00    +0.000 C 
ENDROOT
BRANCH   1   9
ATOM      4 CL   UNL     1      51.284   7.612  15.480  0.00  0.00    +0.000 Cl
ATOM      5  C   UNL     1      50.055   7.529  14.291  0.00  0.00    +0.000 A 
ATOM      6  C   UNL     1      50.359   7.639  12.941  0.00  0.00    +0.000 A 
ATOM      7  C   UNL     1      49.322   7.522  12.010  0.00  0.00    +0.000 A 
ATOM      8  C   UNL     1      48.014   7.282  12.438  0.00  0.00    +0.000 A 
ATOM      9  N   UNL     1      47.023   7.135  11.431  0.00  0.00    +0.000 N 
ATOM     10  N   UNL     1      47.714   7.211  13.750  0.00  0.00    +0.000 NA
ATOM     11  C   UNL     1      48.729   7.334  14.638  0.00  0.00    +0.000 A 
ATOM     12  H   UNL     1      47.381   6.435  10.784  0.00  0.00    +0.000 HD
ENDBRANCH   1   9
BRANCH   1  13
ATOM     13  C   UNL     1      45.191   5.411  11.617  0.00  0.00    +0.000 A 
ATOM     14  C   UNL     1      44.435   4.780  12.611  0.00  0.00    +0.000 A 
ATOM     15  C   UNL     1      43.826   3.558  12.357  0.00  0.00    +0.000 A 
ATOM     16  C   UNL     1      43.972   2.957  11.107  0.00  0.00    +0.000 A 
ATOM     17  C   UNL     1      44.785   3.511  10.106  0.00  0.00    +0.000 A 
ATOM     18  C   UNL     1      45.436   4.706  10.418  0.00  0.00    +0.000 A 
BRANCH  17  19
ATOM     19  N   UNL     1      44.875   2.922   8.856  0.00  0.00    +0.000 N 
ATOM     20  C   UNL     1      45.169   1.499   8.676  0.00  0.00    +0.000 C 
ATOM     21  C   UNL     1      46.539   1.291   8.035  0.00  0.00    +0.000 C 
ATOM     22  C   UNL     1      46.681   2.112   6.756  0.00  0.00    +0.000 C 
ATOM     23  C   UNL     1      46.406   3.584   7.040  0.00  0.00    +0.000 C 
ATOM     24  C   UNL     1      45.036   3.791   7.687  0.00  0.00    +0.000 C 
ENDBRANCH  17  19
ENDBRANCH   1  13
TORSDOF 3
ENDMDL
MODEL 6
REMARK VINA RESULT:    -6.400      5.389      7.869
REMARK INTER + INTRA:          -8.079
REMARK INTER:                  -7.515
REMARK INTRA:                  -0.564
REMARK UNBOUND:                -0.556
REMARK  Name = 
REMARK  3 active torsions:
REMARK  status: ('A' for Active; 'I' for Inactive)
REMARK    1  A    between atoms: N_6  and  C_7
REMARK    2  A    between atoms: C_7  and  C_8
REMARK    3  A    between atoms: C_12  and  N_13
REMARK                            x       y       z     vdW  Elec       q    Type
REMARK                         _______ _______ _______ _____ _____    ______ ____
ROOT
ATOM      1  C   UNL     1      43.776  10.596  10.792  0.00  0.00    +0.000 C 
ATOM      2  C   UNL     1      44.673  11.471   9.915  0.00  0.00    +0.000 C 
ATOM      3  C   UNL     1      43.582  10.677   9.286  0.00  0.00    +0.000 C 
ENDROOT
BRANCH   1   9
ATOM      4 CL   UNL     1      37.064  10.579  12.052  0.00  0.00    +0.000 Cl
ATOM      5  C   UNL     1      38.753  10.842  11.954  0.00  0.00    +0.000 A 
ATOM      6  C   UNL     1      39.396  11.688  12.848  0.00  0.00    +0.000 A 
ATOM      7  C   UNL     1      40.783  11.834  12.750  0.00  0.00    +0.000 A 
ATOM      8  C   UNL     1      41.500  11.128  11.780  0.00  0.00    +0.000 A 
ATOM      9  N   UNL     1      42.910  11.298  11.770  0.00  0.00    +0.000 N 
ATOM     10  N   UNL     1      40.870  10.336  10.890  0.00  0.00    +0.000 NA
ATOM     11  C   UNL     1      39.526  10.212  10.995  0.00  0.00    +0.000 A 
ATOM     12  H   UNL     1      43.222  11.123  12.723  0.00  0.00    +0.000 HD
ENDBRANCH   1   9
BRANCH   1  13
ATOM     13  C   UNL     1      44.405   9.315  11.328  0.00  0.00    +0.000 A 
ATOM     14  C   UNL     1      45.453   9.369  12.252  0.00  0.00    +0.000 A 
ATOM     15  C   UNL     1      45.833   8.228  12.947  0.00  0.00    +0.000 A 
ATOM     16  C   UNL     1      45.167   7.023  12.719  0.00  0.00    +0.000 A 
ATOM     17  C   UNL     1      44.164   6.902  11.745  0.00  0.00    +0.000 A 
ATOM     18  C   UNL     1      43.853   8.053  11.018  0.00  0.00    +0.000 A 
BRANCH  17  19
ATOM     19  N   UNL     1      43.483   5.709  11.572  0.00  0.00    +0.000 N 
ATOM     20  C   UNL     1      42.865   4.986  12.686  0.00  0.00    +0.000 C 
ATOM     21  C   UNL     1      43.579   3.663  12.954  0.00  0.00    +0.000 C 
ATOM     22  C   UNL     1      43.700   2.833  11.678  0.00  0.00    +0.000 C 
ATOM     23  C   UNL     1      44.394   3.640  10.587  0.00  0.00    +0.000 C 
ATOM     24  C   UNL     1      43.682   4.968  10.324  0.00  0.00    +0.000 C 
ENDBRANCH  17  19
ENDBRANCH   1  13
TORSDOF 3
ENDMDL
MODEL 7
REMARK VINA RESULT:    -6.096      3.008      4.473
REMARK INTER + INTRA:          -7.721
REMARK INTER:                  -7.036
REMARK INTRA:                  -0.685
REMARK UNBOUND:                -0.556
REMARK  Name = 
REMARK  3 active torsions:
REMARK  status: ('A' for Active; 'I' for Inactive)
REMARK    1  A    between atoms: N_6  and  C_7
REMARK    2  A    between atoms: C_7  and  C_8
REMARK    3  A    between atoms: C_12  and  N_13
REMARK                            x       y       z     vdW  Elec       q    Type
REMARK                         _______ _______ _______ _____ _____    ______ ____
ROOT
ATOM      1  C   UNL     1      48.235   7.739  13.408  0.00  0.00    +0.000 C 
ATOM      2  C   UNL     1      49.138   8.612  12.535  0.00  0.00    +0.000 C 
ATOM      3  C   UNL     1      49.303   7.132  12.512  0.00  0.00    +0.000 C 
ENDROOT
BRANCH   1   9
ATOM      4 CL   UNL     1      43.587   2.820  12.496  0.00  0.00    +0.000 Cl
ATOM      5  C   UNL     1      44.508   4.258  12.609  0.00  0.00    +0.000 A 
ATOM      6  C   UNL     1      43.910   5.503  12.461  0.00  0.00    +0.000 A 
ATOM      7  C   UNL     1      44.702   6.646  12.605  0.00  0.00    +0.000 A 
ATOM      8  C   UNL     1      46.062   6.530  12.908  0.00  0.00    +0.000 A 
ATOM      9  N   UNL     1      46.789   7.738  13.079  0.00  0.00    +0.000 N 
ATOM     10  N   UNL     1      46.648   5.321  13.015  0.00  0.00    +0.000 NA
ATOM     11  C   UNL     1      45.868   4.224  12.866  0.00  0.00    +0.000 A 
ATOM     12  H   UNL     1      46.263   8.291  13.751  0.00  0.00    +0.000 HD
ENDBRANCH   1   9
BRANCH   1  13
ATOM     13  C   UNL     1      48.531   7.753  14.904  0.00  0.00    +0.000 A 
ATOM     14  C   UNL     1      48.382   8.928  15.648  0.00  0.00    +0.000 A 
ATOM     15  C   UNL     1      48.375   8.880  17.036  0.00  0.00    +0.000 A 
ATOM     16  C   UNL     1      48.519   7.656  17.689  0.00  0.00    +0.000 A 
ATOM     17  C   UNL     1      48.751   6.462  16.987  0.00  0.00    +0.000 A 
ATOM     18  C   UNL     1      48.819   6.557  15.596  0.00  0.00    +0.000 A 
BRANCH  17  19
ATOM     19  N   UNL     1      48.840   5.252  17.654  0.00  0.00    +0.000 N 
ATOM     20  C   UNL     1      50.093   4.764  18.234  0.00  0.00    +0.000 C 
ATOM     21  C   UNL     1      50.605   3.530  17.495  0.00  0.00    +0.000 C 
ATOM     22  C   UNL     1      49.522   2.460  17.390  0.00  0.00    +0.000 C 
ATOM     23  C   UNL     1      48.272   3.036  16.734  0.00  0.00    +0.000 C 
ATOM     24  C   UNL     1      47.764   4.275  17.472  0.00  0.00    +0.000 C 
ENDBRANCH  17  19
ENDBRANCH   1  13
TORSDOF 3
ENDMDL
MODEL 8
REMARK VINA RESULT:    -6.063      2.193      3.110
REMARK INTER + INTRA:          -7.683
REMARK INTER:                  -6.970
REMARK INTRA:                  -0.713
REMARK UNBOUND:                -0.556
REMARK  Name = 
REMARK  3 active torsions:
REMARK  status: ('A' for Active; 'I' for Inactive)
REMARK    1  A    between atoms: N_6  and  C_7
REMARK    2  A    between atoms: C_7  and  C_8
REMARK    3  A    between atoms: C_12  and  N_13
REMARK                            x       y       z     vdW  Elec       q    Type
REMARK                         _______ _______ _______ _____ _____    ______ ____
ROOT
ATOM      1  C   UNL     1      45.694   7.606  12.460  0.00  0.00    +0.000 C 
ATOM      2  C   UNL     1      45.131   8.952  12.920  0.00  0.00    +0.000 C 
ATOM      3  C   UNL     1      45.268   8.672  11.464  0.00  0.00    +0.000 C 
ENDROOT
BRANCH   1   9
ATOM      4 CL   UNL     1      44.361   1.793   9.132  0.00  0.00    +0.000 Cl
ATOM      5  C   UNL     1      44.457   3.142  10.182  0.00  0.00    +0.000 A 
ATOM      6  C   UNL     1      43.824   3.132  11.418  0.00  0.00    +0.000 A 
ATOM      7  C   UNL     1      43.970   4.243  12.253  0.00  0.00    +0.000 A 
ATOM      8  C   UNL     1      44.752   5.330  11.852  0.00  0.00    +0.000 A 
ATOM      9  N   UNL     1      44.885   6.403  12.773  0.00  0.00    +0.000 N 
ATOM     10  N   UNL     1      45.336   5.354  10.638  0.00  0.00    +0.000 NA
ATOM     11  C   UNL     1      45.178   4.272   9.839  0.00  0.00    +0.000 A 
ATOM     12  H   UNL     1      45.180   5.985  13.653  0.00  0.00    +0.000 HD
ENDBRANCH   1   9
BRANCH   1  13
ATOM     13  C   UNL     1      47.195   7.408  12.643  0.00  0.00    +0.000 A 
ATOM     14  C   UNL     1      48.071   7.579  11.566  0.00  0.00    +0.000 A 
ATOM     15  C   UNL     1      49.439   7.678  11.786  0.00  0.00    +0.000 A 
ATOM     16  C   UNL     1      49.940   7.605  13.086  0.00  0.00    +0.000 A 
ATOM     17  C   UNL     1      49.108   7.355  14.189  0.00  0.00    +0.000 A 
ATOM     18  C   UNL     1      47.747   7.194  13.924  0.00  0.00    +0.000 A 
BRANCH  17  19
ATOM     19  N   UNL     1      49.621   7.337  15.475  0.00  0.00    +0.000 N 
ATOM     20  C   UNL     1      50.997   7.733  15.780  0.00  0.00    +0.000 C 
ATOM     21  C   UNL     1      51.829   6.540  16.245  0.00  0.00    +0.000 C 
ATOM     22  C   UNL     1      51.139   5.798  17.387  0.00  0.00    +0.000 C 
ATOM     23  C   UNL     1      49.733   5.381  16.972  0.00  0.00    +0.000 C 
ATOM     24  C   UNL     1      48.903   6.576  16.501  0.00  0.00    +0.000 C 
ENDBRANCH  17  19
ENDBRANCH   1  13
TORSDOF 3
ENDMDL
MODEL 9
REMARK VINA RESULT:    -5.992      3.982      7.559
REMARK INTER + INTRA:          -7.600
REMARK INTER:                  -6.815
REMARK INTRA:                  -0.784
REMARK UNBOUND:                -0.556
REMARK  Name = 
REMARK  3 active torsions:
REMARK  status: ('A' for Active; 'I' for Inactive)
REMARK    1  A    between atoms: N_6  and  C_7
REMARK    2  A    between atoms: C_7  and  C_8
REMARK    3  A    between atoms: C_12  and  N_13
REMARK                            x       y       z     vdW  Elec       q    Type
REMARK                         _______ _______ _______ _____ _____    ______ ____
ROOT
ATOM      1  C   UNL     1      48.667   7.826  12.707  0.00  0.00    +0.000 C 
ATOM      2  C   UNL     1      49.537   7.682  11.457  0.00  0.00    +0.000 C 
ATOM      3  C   UNL     1      49.551   8.961  12.218  0.00  0.00    +0.000 C 
ENDROOT
BRANCH   1   9
ATOM      4 CL   UNL     1      48.323   8.596  19.484  0.00  0.00    +0.000 Cl
ATOM      5  C   UNL     1      48.578   8.119  17.859  0.00  0.00    +0.000 A 
ATOM      6  C   UNL     1      49.058   6.852  17.554  0.00  0.00    +0.000 A 
ATOM      7  C   UNL     1      49.208   6.500  16.210  0.00  0.00    +0.000 A 
ATOM      8  C   UNL     1      48.864   7.404  15.201  0.00  0.00    +0.000 A 
ATOM      9  N   UNL     1      49.006   6.957  13.860  0.00  0.00    +0.000 N 
ATOM     10  N   UNL     1      48.433   8.646  15.498  0.00  0.00    +0.000 NA
ATOM     11  C   UNL     1      48.300   8.973  16.806  0.00  0.00    +0.000 A 
ATOM     12  H   UNL     1      48.512   6.070  13.804  0.00  0.00    +0.000 HD
ENDBRANCH   1   9
BRANCH   1  13
ATOM     13  C   UNL     1      47.169   7.981  12.467  0.00  0.00    +0.000 A 
ATOM     14  C   UNL     1      46.616   9.240  12.211  0.00  0.00    +0.000 A 
ATOM     15  C   UNL     1      45.322   9.349  11.719  0.00  0.00    +0.000 A 
ATOM     16  C   UNL     1      44.570   8.197  11.482  0.00  0.00    +0.000 A 
ATOM     17  C   UNL     1      45.053   6.917  11.799  0.00  0.00    +0.000 A 
ATOM     18  C   UNL     1      46.332   6.850  12.354  0.00  0.00    +0.000 A 
BRANCH  17  19
ATOM     19  N   UNL     1      44.310   5.786  11.508  0.00  0.00    +0.000 N 
ATOM     20  C   UNL     1      43.029   5.498  12.156  0.00  0.00    +0.000 C 
ATOM     21  C   UNL     1      43.127   4.275  13.065  0.00  0.00    +0.000 C 
ATOM     22  C   UNL     1      43.719   3.080  12.321  0.00  0.00    +0.000 C 
ATOM     23  C   UNL     1      45.069   3.449  11.719  0.00  0.00    +0.000 C 
ATOM     24  C   UNL     1      44.970   4.678  10.813  0.00  0.00    +0.000 C 
ENDBRANCH  17  19
ENDBRANCH   1  13
TORSDOF 3
ENDMDL
