MODEL 1
REMARK VINA RESULT:    -8.238      0.000      0.000
REMARK INTER + INTRA:         -13.003
REMARK INTER:                 -11.849
REMARK INTRA:                  -1.153
REMARK UNBOUND:                -1.153
REMARK  Name = 
REMARK  8 active torsions:
REMARK  status: ('A' for Active; 'I' for Inactive)
REMARK    1  A    between atoms: C_2  and  C_22
REMARK    2  A    between atoms: N_3  and  C_4
REMARK    3  A    between atoms: C_4  and  C_5
REMARK    4  A    between atoms: C_8  and  C_9
REMARK    5  A    between atoms: C_9  and  N_10
REMARK    6  A    between atoms: N_10  and  C_11
REMARK    7  A    between atoms: C_11  and  C_12
REMARK    8  A    between atoms: C_12  and  O_13
REMARK                            x       y       z     vdW  Elec       q    Type
REMARK                         _______ _______ _______ _____ _____    ______ ____
ROOT
ATOM      1  C   UNL     1      48.122   6.838  14.235  0.00  0.00    +0.000 A 
ATOM      2  C   UNL     1      48.152   7.486  12.995  0.00  0.00    +0.000 A 
ATOM      3  C   UNL     1      47.348   7.045  11.943  0.00  0.00    +0.000 A 
ATOM      4  C   UNL     1      46.465   5.971  12.123  0.00  0.00    +0.000 A 
ATOM      5  C   UNL     1      46.510   5.256  13.327  0.00  0.00    +0.000 A 
ATOM      6  C   UNL     1      47.328   5.690  14.378  0.00  0.00    +0.000 A 
ENDROOT
BRANCH   1   7
ATOM      7  C   UNL     1      48.877   7.420  15.406  0.00  0.00    +0.000 C 
BRANCH   7  10
ATOM      8  O   UNL     1      48.814   5.883  17.771  0.00  0.00    +0.000 OA
ATOM      9  C   UNL     1      49.800   5.809  17.044  0.00  0.00    +0.000 C 
ATOM     10  N   UNL     1      49.909   6.520  15.878  0.00  0.00    +0.000 N 
ATOM     11  H   UNL     1      50.656   6.305  15.227  0.00  0.00    +0.000 HD
BRANCH   9  12
ATOM     12  C   UNL     1      50.961   4.982  17.429  0.00  0.00    +0.000 A 
ATOM     13  C   UNL     1      52.117   5.599  17.894  0.00  0.00    +0.000 A 
ATOM     14  S   UNL     1      53.377   4.513  18.268  0.00  0.00    +0.000 S 
ATOM     15  C   UNL     1      52.409   3.171  17.871  0.00  0.00    +0.000 A 
ATOM     16  N   UNL     1      52.889   1.904  18.004  0.00  0.00    +0.000 NA
ATOM     17  C   UNL     1      52.036   0.978  17.707  0.00  0.00    +0.000 A 
ATOM     18  N   UNL     1      50.760   1.209  17.266  0.00  0.00    +0.000 N 
ATOM     19  C   UNL     1      50.259   2.471  17.048  0.00  0.00    +0.000 A 
ATOM     20  O   UNL     1      49.152   2.636  16.547  0.00  0.00    +0.000 OA
ATOM     21  C   UNL     1      51.154   3.549  17.423  0.00  0.00    +0.000 A 
ATOM     22  H   UNL     1      50.155   0.440  17.016  0.00  0.00    +0.000 HD
ENDBRANCH   9  12
ENDBRANCH   7  10
ENDBRANCH   1   7
BRANCH   4  23
ATOM     23  C   UNL     1      45.318   5.793  11.150  0.00  0.00    +0.000 C 
BRANCH  23  24
ATOM     24  N   UNL     1      44.789   4.437  10.998  0.00  0.00    +0.000 N 
ATOM     25  C   UNL     1      45.176   3.789   9.801  0.00  0.00    +0.000 A 
ATOM     26  C   UNL     1      45.659   4.482   8.680  0.00  0.00    +0.000 A 
ATOM     27  C   UNL     1      46.138   3.794   7.565  0.00  0.00    +0.000 A 
ATOM     28  C   UNL     1      46.100   2.413   7.565  0.00  0.00    +0.000 A 
ATOM     29  C   UNL     1      45.557   1.790   8.672  0.00  0.00    +0.000 A 
ATOM     30  N   UNL     1      45.090   2.443   9.766  0.00  0.00    +0.000 NA
BRANCH  24  31
ATOM     31  C   UNL     1      43.334   4.262  11.226  0.00  0.00    +0.000 C 
BRANCH  31  32
ATOM     32  C   UNL     1      42.670   5.480  11.883  0.00  0.00    +0.000 C 
BRANCH  32  33
ATOM     33  O   UNL     1      42.579   5.345  13.300  0.00  0.00    +0.000 OA
ATOM     34  H   UNL     1      41.818   4.760  13.463  0.00  0.00    +0.000 HD
ENDBRANCH  32  33
ENDBRANCH  31  32
ENDBRANCH  24  31
ENDBRANCH  23  24
ENDBRANCH   4  23
TORSDOF 8
ENDMDL
MODEL 2
REMARK VINA RESULT:    -7.586      2.540      3.659
REMARK INTER + INTRA:         -12.066
REMARK INTER:                 -10.891
REMARK INTRA:                  -1.175
REMARK UNBOUND:                -1.153
REMARK  Name = 
REMARK  8 active torsions:
REMARK  status: ('A' for Active; 'I' for Inactive)
REMARK    1  A    between atoms: C_2  and  C_22
REMARK    2  A    between atoms: N_3  and  C_4
REMARK    3  A    between atoms: C_4  and  C_5
REMARK    4  A    between atoms: C_8  and  C_9
REMARK    5  A    between atoms: C_9  and  N_10
REMARK    6  A    between atoms: N_10  and  C_11
REMARK    7  A    between atoms: C_11  and  C_12
REMARK    8  A    between atoms: C_12  and  O_13
REMARK                            x       y       z     vdW  Elec       q    Type
REMARK                         _______ _______ _______ _____ _____    ______ ____
ROOT
ATOM      1  C   UNL     1      48.408   6.962  13.661  0.00  0.00    +0.000 A 
ATOM      2  C   UNL     1      48.250   7.542  12.397  0.00  0.00    +0.000 A 
ATOM      3  C   UNL     1      47.272   7.074  11.519  0.00  0.00    +0.000 A 
ATOM      4  C   UNL     1      46.403   6.043  11.903  0.00  0.00    +0.000 A 
ATOM      5  C   UNL     1      46.627   5.392  13.124  0.00  0.00    +0.000 A 
ATOM      6  C   UNL     1      47.619   5.853  14.000  0.00  0.00    +0.000 A 
ENDROOT
BRANCH   1   7
ATOM      7  C   UNL     1      49.362   7.579  14.657  0.00  0.00    +0.000 C 
BRANCH   7  10
ATOM      8  O   UNL     1      50.859   5.982  16.436  0.00  0.00    +0.000 OA
ATOM      9  C   UNL     1      49.792   6.453  16.820  0.00  0.00    +0.000 C 
ATOM     10  N   UNL     1      49.006   7.240  16.019  0.00  0.00    +0.000 N 
ATOM     11  H   UNL     1      48.224   7.743  16.423  0.00  0.00    +0.000 HD
BRANCH   9  12
ATOM     12  C   UNL     1      49.267   6.138  18.163  0.00  0.00    +0.000 A 
ATOM     13  C   UNL     1      49.408   4.850  18.669  0.00  0.00    +0.000 A 
ATOM     14  S   UNL     1      48.725   4.638  20.216  0.00  0.00    +0.000 S 
ATOM     15  C   UNL     1      48.257   6.272  20.292  0.00  0.00    +0.000 A 
ATOM     16  N   UNL     1      47.635   6.768  21.397  0.00  0.00    +0.000 NA
ATOM     17  C   UNL     1      47.371   8.033  21.338  0.00  0.00    +0.000 A 
ATOM     18  N   UNL     1      47.653   8.836  20.265  0.00  0.00    +0.000 N 
ATOM     19  C   UNL     1      48.214   8.363  19.102  0.00  0.00    +0.000 A 
ATOM     20  O   UNL     1      48.348   9.089  18.122  0.00  0.00    +0.000 OA
ATOM     21  C   UNL     1      48.586   6.962  19.136  0.00  0.00    +0.000 A 
ATOM     22  H   UNL     1      47.388   9.810  20.269  0.00  0.00    +0.000 HD
ENDBRANCH   9  12
ENDBRANCH   7  10
ENDBRANCH   1   7
BRANCH   4  23
ATOM     23  C   UNL     1      45.107   5.854  11.143  0.00  0.00    +0.000 C 
BRANCH  23  24
ATOM     24  N   UNL     1      44.618   4.482  11.008  0.00  0.00    +0.000 N 
ATOM     25  C   UNL     1      45.046   3.820   9.833  0.00  0.00    +0.000 A 
ATOM     26  C   UNL     1      45.533   4.502   8.708  0.00  0.00    +0.000 A 
ATOM     27  C   UNL     1      46.052   3.805   7.617  0.00  0.00    +0.000 A 
ATOM     28  C   UNL     1      46.052   2.424   7.644  0.00  0.00    +0.000 A 
ATOM     29  C   UNL     1      45.502   1.810   8.754  0.00  0.00    +0.000 A 
ATOM     30  N   UNL     1      44.996   2.472   9.824  0.00  0.00    +0.000 NA
BRANCH  24  31
ATOM     31  C   UNL     1      43.163   4.272  11.211  0.00  0.00    +0.000 C 
BRANCH  31  32
ATOM     32  C   UNL     1      42.476   5.437  11.937  0.00  0.00    +0.000 C 
BRANCH  32  33
ATOM     33  O   UNL     1      42.544   5.305  13.355  0.00  0.00    +0.000 OA
ATOM     34  H   UNL     1      43.488   5.382  13.584  0.00  0.00    +0.000 HD
ENDBRANCH  32  33
ENDBRANCH  31  32
ENDBRANCH  24  31
ENDBRANCH  23  24
ENDBRANCH   4  23
TORSDOF 8
ENDMDL
MODEL 3
REMARK VINA RESULT:    -7.505      2.394      2.684
REMARK INTER + INTRA:         -11.949
REMARK INTER:                 -10.687
REMARK INTRA:                  -1.263
REMARK UNBOUND:                -1.153
REMARK  Name = 
REMARK  8 active torsions:
REMARK  status: ('A' for Active; 'I' for Inactive)
REMARK    1  A    between atoms: C_2  and  C_22
REMARK    2  A    between atoms: N_3  and  C_4
REMARK    3  A    between atoms: C_4  and  C_5
REMARK    4  A    between atoms: C_8  and  C_9
REMARK    5  A    between atoms: C_9  and  N_10
REMARK    6  A    between atoms: N_10  and  C_11
REMARK    7  A    between atoms: C_11  and  C_12
REMARK    8  A    between atoms: C_12  and  O_13
REMARK                            x       y       z     vdW  Elec       q    Type
REMARK                         _______ _______ _______ _____ _____    ______ ____
ROOT
ATOM      1  C   UNL     1      47.107   8.162  13.542  0.00  0.00    +0.000 A 
ATOM      2  C   UNL     1      47.675   6.946  13.144  0.00  0.00    +0.000 A 
ATOM      3  C   UNL     1      47.047   6.150  12.185  0.00  0.00    +0.000 A 
ATOM      4  C   UNL     1      45.859   6.574  11.573  0.00  0.00    +0.000 A 
ATOM      5  C   UNL     1      45.236   7.738  12.044  0.00  0.00    +0.000 A 
ATOM      6  C   UNL     1      45.860   8.529  13.018  0.00  0.00    +0.000 A 
ENDROOT
BRANCH   1   7
ATOM      7  C   UNL     1      47.873   9.084  14.461  0.00  0.00    +0.000 C 
BRANCH   7  10
ATOM      8  O   UNL     1      50.330   8.081  15.418  0.00  0.00    +0.000 OA
ATOM      9  C   UNL     1      49.340   8.009  16.141  0.00  0.00    +0.000 C 
ATOM     10  N   UNL     1      48.112   8.474  15.752  0.00  0.00    +0.000 N 
ATOM     11  H   UNL     1      47.365   8.550  16.435  0.00  0.00    +0.000 HD
BRANCH   9  12
ATOM     12  C   UNL     1      49.416   7.352  17.461  0.00  0.00    +0.000 A 
ATOM     13  C   UNL     1      49.853   8.078  18.563  0.00  0.00    +0.000 A 
ATOM     14  S   UNL     1      49.914   7.172  20.006  0.00  0.00    +0.000 S 
ATOM     15  C   UNL     1      49.309   5.787  19.224  0.00  0.00    +0.000 A 
ATOM     16  N   UNL     1      49.086   4.637  19.919  0.00  0.00    +0.000 NA
ATOM     17  C   UNL     1      48.588   3.675  19.212  0.00  0.00    +0.000 A 
ATOM     18  N   UNL     1      48.319   3.756  17.871  0.00  0.00    +0.000 N 
ATOM     19  C   UNL     1      48.595   4.872  17.117  0.00  0.00    +0.000 A 
ATOM     20  O   UNL     1      48.444   4.867  15.899  0.00  0.00    +0.000 OA
ATOM     21  C   UNL     1      49.099   6.002  17.872  0.00  0.00    +0.000 A 
ATOM     22  H   UNL     1      47.963   2.955  17.370  0.00  0.00    +0.000 HD
ENDBRANCH   9  12
ENDBRANCH   7  10
ENDBRANCH   1   7
BRANCH   4  23
ATOM     23  C   UNL     1      45.441   5.940  10.263  0.00  0.00    +0.000 C 
BRANCH  23  24
ATOM     24  N   UNL     1      44.974   4.554  10.323  0.00  0.00    +0.000 N 
ATOM     25  C   UNL     1      45.411   3.741   9.251  0.00  0.00    +0.000 A 
ATOM     26  C   UNL     1      45.887   4.266   8.040  0.00  0.00    +0.000 A 
ATOM     27  C   UNL     1      46.416   3.431   7.056  0.00  0.00    +0.000 A 
ATOM     28  C   UNL     1      46.437   2.068   7.277  0.00  0.00    +0.000 A 
ATOM     29  C   UNL     1      45.899   1.607   8.463  0.00  0.00    +0.000 A 
ATOM     30  N   UNL     1      45.383   2.404   9.432  0.00  0.00    +0.000 NA
BRANCH  24  31
ATOM     31  C   UNL     1      43.524   4.352  10.559  0.00  0.00    +0.000 C 
BRANCH  31  32
ATOM     32  C   UNL     1      43.218   3.574  11.846  0.00  0.00    +0.000 C 
BRANCH  32  33
ATOM     33  O   UNL     1      43.012   2.183  11.600  0.00  0.00    +0.000 OA
ATOM     34  H   UNL     1      42.048   2.066  11.531  0.00  0.00    +0.000 HD
ENDBRANCH  32  33
ENDBRANCH  31  32
ENDBRANCH  24  31
ENDBRANCH  23  24
ENDBRANCH   4  23
TORSDOF 8
ENDMDL
MODEL 4
REMARK VINA RESULT:    -7.469      2.258      2.609
REMARK INTER + INTRA:         -11.897
REMARK INTER:                 -10.820
REMARK INTRA:                  -1.077
REMARK UNBOUND:                -1.153
REMARK  Name = 
REMARK  8 active torsions:
REMARK  status: ('A' for Active; 'I' for Inactive)
REMARK    1  A    between atoms: C_2  and  C_22
REMARK    2  A    between atoms: N_3  and  C_4
REMARK    3  A    between atoms: C_4  and  C_5
REMARK    4  A    between atoms: C_8  and  C_9
REMARK    5  A    between atoms: C_9  and  N_10
REMARK    6  A    between atoms: N_10  and  C_11
REMARK    7  A    between atoms: C_11  and  C_12
REMARK    8  A    between atoms: C_12  and  O_13
REMARK                            x       y       z     vdW  Elec       q    Type
REMARK                         _______ _______ _______ _____ _____    ______ ____
ROOT
ATOM      1  C   UNL     1      48.704   7.073  13.255  0.00  0.00    +0.000 A 
ATOM      2  C   UNL     1      48.523   7.517  11.940  0.00  0.00    +0.000 A 
ATOM      3  C   UNL     1      47.440   7.068  11.182  0.00  0.00    +0.000 A 
ATOM      4  C   UNL     1      46.494   6.195  11.738  0.00  0.00    +0.000 A 
ATOM      5  C   UNL     1      46.731   5.668  13.014  0.00  0.00    +0.000 A 
ATOM      6  C   UNL     1      47.825   6.109  13.770  0.00  0.00    +0.000 A 
ENDROOT
BRANCH   1   7
ATOM      7  C   UNL     1      49.786   7.685  14.112  0.00  0.00    +0.000 C 
BRANCH   7  10
ATOM      8  O   UNL     1      48.248   8.979  16.091  0.00  0.00    +0.000 OA
ATOM      9  C   UNL     1      48.887   7.978  16.400  0.00  0.00    +0.000 C 
ATOM     10  N   UNL     1      49.657   7.291  15.499  0.00  0.00    +0.000 N 
ATOM     11  H   UNL     1      50.032   6.382  15.750  0.00  0.00    +0.000 HD
BRANCH   9  12
ATOM     12  C   UNL     1      48.906   7.495  17.796  0.00  0.00    +0.000 A 
ATOM     13  C   UNL     1      48.987   8.413  18.837  0.00  0.00    +0.000 A 
ATOM     14  S   UNL     1      49.030   7.699  20.384  0.00  0.00    +0.000 S 
ATOM     15  C   UNL     1      48.891   6.137  19.726  0.00  0.00    +0.000 A 
ATOM     16  N   UNL     1      48.835   5.043  20.535  0.00  0.00    +0.000 NA
ATOM     17  C   UNL     1      48.689   3.922  19.905  0.00  0.00    +0.000 A 
ATOM     18  N   UNL     1      48.621   3.799  18.543  0.00  0.00    +0.000 N 
ATOM     19  C   UNL     1      48.746   4.867  17.687  0.00  0.00    +0.000 A 
ATOM     20  O   UNL     1      48.791   4.704  16.472  0.00  0.00    +0.000 OA
ATOM     21  C   UNL     1      48.850   6.157  18.341  0.00  0.00    +0.000 A 
ATOM     22  H   UNL     1      48.542   2.889  18.113  0.00  0.00    +0.000 HD
ENDBRANCH   9  12
ENDBRANCH   7  10
ENDBRANCH   1   7
BRANCH   4  23
ATOM     23  C   UNL     1      45.135   6.073  11.081  0.00  0.00    +0.000 C 
BRANCH  23  24
ATOM     24  N   UNL     1      44.573   4.725  10.981  0.00  0.00    +0.000 N 
ATOM     25  C   UNL     1      45.008   3.991   9.852  0.00  0.00    +0.000 A 
ATOM     26  C   UNL     1      45.580   4.596   8.722  0.00  0.00    +0.000 A 
ATOM     27  C   UNL     1      46.101   3.825   7.684  0.00  0.00    +0.000 A 
ATOM     28  C   UNL     1      46.019   2.449   7.766  0.00  0.00    +0.000 A 
ATOM     29  C   UNL     1      45.391   1.914   8.875  0.00  0.00    +0.000 A 
ATOM     30  N   UNL     1      44.881   2.648   9.896  0.00  0.00    +0.000 NA
BRANCH  24  31
ATOM     31  C   UNL     1      43.102   4.606  11.130  0.00  0.00    +0.000 C 
BRANCH  31  32
ATOM     32  C   UNL     1      42.488   5.707  12.006  0.00  0.00    +0.000 C 
BRANCH  32  33
ATOM     33  O   UNL     1      42.743   5.496  13.394  0.00  0.00    +0.000 OA
ATOM     34  H   UNL     1      42.142   4.781  13.669  0.00  0.00    +0.000 HD
ENDBRANCH  32  33
ENDBRANCH  31  32
ENDBRANCH  24  31
ENDBRANCH  23  24
ENDBRANCH   4  23
TORSDOF 8
ENDMDL
MODEL 5
REMARK VINA RESULT:    -7.133      2.987      8.610
REMARK INTER + INTRA:         -11.414
REMARK INTER:                 -10.027
REMARK INTRA:                  -1.387
REMARK UNBOUND:                -1.153
REMARK  Name = 
REMARK  8 active torsions:
REMARK  status: ('A' for Active; 'I' for Inactive)
REMARK    1  A    between atoms: C_2  and  C_22
REMARK    2  A    between atoms: N_3  and  C_4
REMARK    3  A    between atoms: C_4  and  C_5
REMARK    4  A    between atoms: C_8  and  C_9
REMARK    5  A    between atoms: C_9  and  N_10
REMARK    6  A    between atoms: N_10  and  C_11
REMARK    7  A    between atoms: C_11  and  C_12
REMARK    8  A    between atoms: C_12  and  O_13
REMARK                            x       y       z     vdW  Elec       q    Type
REMARK                         _______ _______ _______ _____ _____    ______ ____
ROOT
ATOM      1  C   UNL     1      48.341   8.059  13.186  0.00  0.00    +0.000 A 
ATOM      2  C   UNL     1      49.516   7.347  13.454  0.00  0.00    +0.000 A 
ATOM      3  C   UNL     1      50.021   7.272  14.753  0.00  0.00    +0.000 A 
ATOM      4  C   UNL     1      49.337   7.875  15.819  0.00  0.00    +0.000 A 
ATOM      5  C   UNL     1      48.221   8.675  15.538  0.00  0.00    +0.000 A 
ATOM      6  C   UNL     1      47.723   8.760  14.232  0.00  0.00    +0.000 A 
ENDROOT
BRANCH   1   7
ATOM      7  C   UNL     1      47.723   8.000  11.809  0.00  0.00    +0.000 C 
BRANCH   7  10
ATOM      8  O   UNL     1      44.926   7.695  12.002  0.00  0.00    +0.000 OA
ATOM      9  C   UNL     1      45.609   6.714  11.725  0.00  0.00    +0.000 C 
ATOM     10  N   UNL     1      46.973   6.778  11.611  0.00  0.00    +0.000 N 
ATOM     11  H   UNL     1      47.481   5.992  11.219  0.00  0.00    +0.000 HD
BRANCH   9  12
ATOM     12  C   UNL     1      44.990   5.384  11.560  0.00  0.00    +0.000 A 
ATOM     13  C   UNL     1      44.286   4.820  12.619  0.00  0.00    +0.000 A 
ATOM     14  S   UNL     1      43.658   3.271  12.283  0.00  0.00    +0.000 S 
ATOM     15  C   UNL     1      44.260   3.314  10.692  0.00  0.00    +0.000 A 
ATOM     16  N   UNL     1      44.034   2.281   9.834  0.00  0.00    +0.000 NA
ATOM     17  C   UNL     1      44.512   2.461   8.646  0.00  0.00    +0.000 A 
ATOM     18  N   UNL     1      45.214   3.568   8.250  0.00  0.00    +0.000 N 
ATOM     19  C   UNL     1      45.526   4.602   9.102  0.00  0.00    +0.000 A 
ATOM     20  O   UNL     1      46.251   5.523   8.741  0.00  0.00    +0.000 OA
ATOM     21  C   UNL     1      44.963   4.480  10.432  0.00  0.00    +0.000 A 
ATOM     22  H   UNL     1      45.591   3.631   7.315  0.00  0.00    +0.000 HD
ENDBRANCH   9  12
ENDBRANCH   7  10
ENDBRANCH   1   7
BRANCH   4  23
ATOM     23  C   UNL     1      49.643   7.426  17.233  0.00  0.00    +0.000 C 
BRANCH  23  24
ATOM     24  N   UNL     1      50.282   6.118  17.383  0.00  0.00    +0.000 N 
ATOM     25  C   UNL     1      49.384   5.025  17.398  0.00  0.00    +0.000 A 
ATOM     26  C   UNL     1      48.013   5.168  17.661  0.00  0.00    +0.000 A 
ATOM     27  C   UNL     1      47.146   4.081  17.549  0.00  0.00    +0.000 A 
ATOM     28  C   UNL     1      47.662   2.846  17.206  0.00  0.00    +0.000 A 
ATOM     29  C   UNL     1      49.028   2.757  17.019  0.00  0.00    +0.000 A 
ATOM     30  N   UNL     1      49.886   3.804  17.120  0.00  0.00    +0.000 NA
BRANCH  24  31
ATOM     31  C   UNL     1      51.267   5.984  18.484  0.00  0.00    +0.000 C 
BRANCH  31  32
ATOM     32  C   UNL     1      50.619   5.849  19.869  0.00  0.00    +0.000 C 
BRANCH  32  33
ATOM     33  O   UNL     1      50.626   4.501  20.339  0.00  0.00    +0.000 OA
ATOM     34  H   UNL     1      51.394   4.077  19.916  0.00  0.00    +0.000 HD
ENDBRANCH  32  33
ENDBRANCH  31  32
ENDBRANCH  24  31
ENDBRANCH  23  24
ENDBRANCH   4  23
TORSDOF 8
ENDMDL
MODEL 6
REMARK VINA RESULT:    -6.733      4.190      5.587
REMARK INTER + INTRA:         -10.838
REMARK INTER:                  -9.488
REMARK INTRA:                  -1.350
REMARK UNBOUND:                -1.153
REMARK  Name = 
REMARK  8 active torsions:
REMARK  status: ('A' for Active; 'I' for Inactive)
REMARK    1  A    between atoms: C_2  and  C_22
REMARK    2  A    between atoms: N_3  and  C_4
REMARK    3  A    between atoms: C_4  and  C_5
REMARK    4  A    between atoms: C_8  and  C_9
REMARK    5  A    between atoms: C_9  and  N_10
REMARK    6  A    between atoms: N_10  and  C_11
REMARK    7  A    between atoms: C_11  and  C_12
REMARK    8  A    between atoms: C_12  and  O_13
REMARK                            x       y       z     vdW  Elec       q    Type
REMARK                         _______ _______ _______ _____ _____    ______ ____
ROOT
ATOM      1  C   UNL     1      45.674   6.500  12.604  0.00  0.00    +0.000 A 
ATOM      2  C   UNL     1      46.454   7.593  12.999  0.00  0.00    +0.000 A 
ATOM      3  C   UNL     1      46.137   8.883  12.572  0.00  0.00    +0.000 A 
ATOM      4  C   UNL     1      45.008   9.112  11.772  0.00  0.00    +0.000 A 
ATOM      5  C   UNL     1      44.289   8.010  11.290  0.00  0.00    +0.000 A 
ATOM      6  C   UNL     1      44.616   6.713  11.709  0.00  0.00    +0.000 A 
ENDROOT
BRANCH   1   7
ATOM      7  C   UNL     1      45.935   5.137  13.199  0.00  0.00    +0.000 C 
BRANCH   7  10
ATOM      8  O   UNL     1      47.394   3.085  14.471  0.00  0.00    +0.000 OA
ATOM      9  C   UNL     1      47.315   4.180  15.019  0.00  0.00    +0.000 C 
ATOM     10  N   UNL     1      46.627   5.229  14.467  0.00  0.00    +0.000 N 
ATOM     11  H   UNL     1      46.726   6.158  14.864  0.00  0.00    +0.000 HD
BRANCH   9  12
ATOM     12  C   UNL     1      47.914   4.405  16.349  0.00  0.00    +0.000 A 
ATOM     13  C   UNL     1      47.547   3.587  17.412  0.00  0.00    +0.000 A 
ATOM     14  S   UNL     1      48.302   3.992  18.887  0.00  0.00    +0.000 S 
ATOM     15  C   UNL     1      49.187   5.245  18.151  0.00  0.00    +0.000 A 
ATOM     16  N   UNL     1      50.073   5.987  18.870  0.00  0.00    +0.000 NA
ATOM     17  C   UNL     1      50.706   6.878  18.180  0.00  0.00    +0.000 A 
ATOM     18  N   UNL     1      50.514   7.106  16.843  0.00  0.00    +0.000 N 
ATOM     19  C   UNL     1      49.581   6.430  16.094  0.00  0.00    +0.000 A 
ATOM     20  O   UNL     1      49.359   6.738  14.927  0.00  0.00    +0.000 OA
ATOM     21  C   UNL     1      48.883   5.376  16.805  0.00  0.00    +0.000 A 
ATOM     22  H   UNL     1      51.017   7.843  16.370  0.00  0.00    +0.000 HD
ENDBRANCH   9  12
ENDBRANCH   7  10
ENDBRANCH   1   7
BRANCH   4  23
ATOM     23  C   UNL     1      44.441  10.513  11.688  0.00  0.00    +0.000 C 
BRANCH  23  24
ATOM     24  N   UNL     1      43.368  10.731  10.716  0.00  0.00    +0.000 N 
ATOM     25  C   UNL     1      43.809  11.172   9.446  0.00  0.00    +0.000 A 
ATOM     26  C   UNL     1      45.072  11.745   9.234  0.00  0.00    +0.000 A 
ATOM     27  C   UNL     1      45.509  12.058   7.947  0.00  0.00    +0.000 A 
ATOM     28  C   UNL     1      44.664  11.825   6.879  0.00  0.00    +0.000 A 
ATOM     29  C   UNL     1      43.411  11.315   7.158  0.00  0.00    +0.000 A 
ATOM     30  N   UNL     1      42.970  11.002   8.403  0.00  0.00    +0.000 NA
BRANCH  24  31
ATOM     31  C   UNL     1      42.217  11.550  11.170  0.00  0.00    +0.000 C 
BRANCH  31  32
ATOM     32  C   UNL     1      40.952  10.724  11.444  0.00  0.00    +0.000 C 
BRANCH  32  33
ATOM     33  O   UNL     1      41.141   9.338  11.162  0.00  0.00    +0.000 OA
ATOM     34  H   UNL     1      41.583   8.965  11.945  0.00  0.00    +0.000 HD
ENDBRANCH  32  33
ENDBRANCH  31  32
ENDBRANCH  24  31
ENDBRANCH  23  24
ENDBRANCH   4  23
TORSDOF 8
ENDMDL
MODEL 7
REMARK VINA RESULT:    -6.325      3.594      9.599
REMARK INTER + INTRA:         -10.252
REMARK INTER:                  -8.783
REMARK INTRA:                  -1.469
REMARK UNBOUND:                -1.153
REMARK  Name = 
REMARK  8 active torsions:
REMARK  status: ('A' for Active; 'I' for Inactive)
REMARK    1  A    between atoms: C_2  and  C_22
REMARK    2  A    between atoms: N_3  and  C_4
REMARK    3  A    between atoms: C_4  and  C_5
REMARK    4  A    between atoms: C_8  and  C_9
REMARK    5  A    between atoms: C_9  and  N_10
REMARK    6  A    between atoms: N_10  and  C_11
REMARK    7  A    between atoms: C_11  and  C_12
REMARK    8  A    between atoms: C_12  and  O_13
REMARK                            x       y       z     vdW  Elec       q    Type
REMARK                         _______ _______ _______ _____ _____    ______ ____
ROOT
ATOM      1  C   UNL     1      48.001   7.717  13.905  0.00  0.00    +0.000 A 
ATOM      2  C   UNL     1      47.998   8.907  14.642  0.00  0.00    +0.000 A 
ATOM      3  C   UNL     1      48.459   8.928  15.959  0.00  0.00    +0.000 A 
ATOM      4  C   UNL     1      48.970   7.766  16.554  0.00  0.00    +0.000 A 
ATOM      5  C   UNL     1      48.876   6.554  15.856  0.00  0.00    +0.000 A 
ATOM      6  C   UNL     1      48.401   6.531  14.539  0.00  0.00    +0.000 A 
ENDROOT
BRANCH   1   7
ATOM      7  C   UNL     1      47.648   7.741  12.437  0.00  0.00    +0.000 C 
BRANCH   7  10
ATOM      8  O   UNL     1      44.856   7.373  12.584  0.00  0.00    +0.000 OA
ATOM      9  C   UNL     1      45.550   6.459  12.150  0.00  0.00    +0.000 C 
ATOM     10  N   UNL     1      46.912   6.558  12.044  0.00  0.00    +0.000 N 
ATOM     11  H   UNL     1      47.428   5.852  11.528  0.00  0.00    +0.000 HD
BRANCH   9  12
ATOM     12  C   UNL     1      44.945   5.166  11.772  0.00  0.00    +0.000 A 
ATOM     13  C   UNL     1      44.213   4.451  12.714  0.00  0.00    +0.000 A 
ATOM     14  S   UNL     1      43.607   2.966  12.135  0.00  0.00    +0.000 S 
ATOM     15  C   UNL     1      44.258   3.244  10.587  0.00  0.00    +0.000 A 
ATOM     16  N   UNL     1      44.067   2.347   9.581  0.00  0.00    +0.000 NA
ATOM     17  C   UNL     1      44.580   2.700   8.448  0.00  0.00    +0.000 A 
ATOM     18  N   UNL     1      45.286   3.856   8.241  0.00  0.00    +0.000 N 
ATOM     19  C   UNL     1      45.564   4.754   9.244  0.00  0.00    +0.000 A 
ATOM     20  O   UNL     1      46.292   5.720   9.046  0.00  0.00    +0.000 OA
ATOM     21  C   UNL     1      44.960   4.437  10.524  0.00  0.00    +0.000 A 
ATOM     22  H   UNL     1      45.691   4.056   7.338  0.00  0.00    +0.000 HD
ENDBRANCH   9  12
ENDBRANCH   7  10
ENDBRANCH   1   7
BRANCH   4  23
ATOM     23  C   UNL     1      49.847   7.896  17.782  0.00  0.00    +0.000 C 
BRANCH  23  24
ATOM     24  N   UNL     1      49.592   6.956  18.874  0.00  0.00    +0.000 N 
ATOM     25  C   UNL     1      48.812   7.482  19.930  0.00  0.00    +0.000 A 
ATOM     26  C   UNL     1      48.640   8.859  20.138  0.00  0.00    +0.000 A 
ATOM     27  C   UNL     1      47.769   9.331  21.120  0.00  0.00    +0.000 A 
ATOM     28  C   UNL     1      47.097   8.421  21.912  0.00  0.00    +0.000 A 
ATOM     29  C   UNL     1      47.355   7.080  21.699  0.00  0.00    +0.000 A 
ATOM     30  N   UNL     1      48.196   6.603  20.747  0.00  0.00    +0.000 NA
BRANCH  24  31
ATOM     31  C   UNL     1      50.769   6.236  19.418  0.00  0.00    +0.000 C 
BRANCH  31  32
ATOM     32  C   UNL     1      50.779   4.739  19.078  0.00  0.00    +0.000 C 
BRANCH  32  33
ATOM     33  O   UNL     1      49.545   4.103  19.407  0.00  0.00    +0.000 OA
ATOM     34  H   UNL     1      48.963   4.240  18.639  0.00  0.00    +0.000 HD
ENDBRANCH  32  33
ENDBRANCH  31  32
ENDBRANCH  24  31
ENDBRANCH  23  24
ENDBRANCH   4  23
TORSDOF 8
ENDMDL
MODEL 8
REMARK VINA RESULT:    -6.285      4.300     10.039
REMARK INTER + INTRA:         -10.193
REMARK INTER:                  -9.245
REMARK INTRA:                  -0.949
REMARK UNBOUND:                -1.153
REMARK  Name = 
REMARK  8 active torsions:
REMARK  status: ('A' for Active; 'I' for Inactive)
REMARK    1  A    between atoms: C_2  and  C_22
REMARK    2  A    between atoms: N_3  and  C_4
REMARK    3  A    between atoms: C_4  and  C_5
REMARK    4  A    between atoms: C_8  and  C_9
REMARK    5  A    between atoms: C_9  and  N_10
REMARK    6  A    between atoms: N_10  and  C_11
REMARK    7  A    between atoms: C_11  and  C_12
REMARK    8  A    between atoms: C_12  and  O_13
REMARK                            x       y       z     vdW  Elec       q    Type
REMARK                         _______ _______ _______ _____ _____    ______ ____
ROOT
ATOM      1  C   UNL     1      47.898   4.317  17.886  0.00  0.00    +0.000 A 
ATOM      2  C   UNL     1      46.974   5.204  18.451  0.00  0.00    +0.000 A 
ATOM      3  C   UNL     1      47.313   5.963  19.572  0.00  0.00    +0.000 A 
ATOM      4  C   UNL     1      48.598   5.880  20.128  0.00  0.00    +0.000 A 
ATOM      5  C   UNL     1      49.487   4.918  19.630  0.00  0.00    +0.000 A 
ATOM      6  C   UNL     1      49.141   4.146  18.513  0.00  0.00    +0.000 A 
ENDROOT
BRANCH   1   7
ATOM      7  C   UNL     1      47.573   3.621  16.586  0.00  0.00    +0.000 C 
BRANCH   7  10
ATOM      8  O   UNL     1      47.172   3.164  13.831  0.00  0.00    +0.000 OA
ATOM      9  C   UNL     1      46.771   4.216  14.320  0.00  0.00    +0.000 C 
ATOM     10  N   UNL     1      46.925   4.514  15.648  0.00  0.00    +0.000 N 
ATOM     11  H   UNL     1      46.436   5.310  16.044  0.00  0.00    +0.000 HD
BRANCH   9  12
ATOM     12  C   UNL     1      46.150   5.254  13.473  0.00  0.00    +0.000 A 
ATOM     13  C   UNL     1      46.852   6.421  13.195  0.00  0.00    +0.000 A 
ATOM     14  S   UNL     1      45.988   7.532  12.231  0.00  0.00    +0.000 S 
ATOM     15  C   UNL     1      44.661   6.474  12.108  0.00  0.00    +0.000 A 
ATOM     16  N   UNL     1      43.567   6.814  11.372  0.00  0.00    +0.000 NA
ATOM     17  C   UNL     1      42.650   5.903  11.330  0.00  0.00    +0.000 A 
ATOM     18  N   UNL     1      42.721   4.698  11.977  0.00  0.00    +0.000 N 
ATOM     19  C   UNL     1      43.774   4.344  12.787  0.00  0.00    +0.000 A 
ATOM     20  O   UNL     1      43.751   3.304  13.438  0.00  0.00    +0.000 OA
ATOM     21  C   UNL     1      44.859   5.304  12.823  0.00  0.00    +0.000 A 
ATOM     22  H   UNL     1      41.953   4.044  11.931  0.00  0.00    +0.000 HD
ENDBRANCH   9  12
ENDBRANCH   7  10
ENDBRANCH   1   7
BRANCH   4  23
ATOM     23  C   UNL     1      49.078   6.995  21.033  0.00  0.00    +0.000 C 
BRANCH  23  24
ATOM     24  N   UNL     1      49.289   8.302  20.410  0.00  0.00    +0.000 N 
ATOM     25  C   UNL     1      48.373   9.300  20.819  0.00  0.00    +0.000 A 
ATOM     26  C   UNL     1      47.142   9.004  21.424  0.00  0.00    +0.000 A 
ATOM     27  C   UNL     1      46.323  10.020  21.916  0.00  0.00    +0.000 A 
ATOM     28  C   UNL     1      46.727  11.333  21.770  0.00  0.00    +0.000 A 
ATOM     29  C   UNL     1      47.920  11.563  21.112  0.00  0.00    +0.000 A 
ATOM     30  N   UNL     1      48.730  10.588  20.630  0.00  0.00    +0.000 NA
BRANCH  24  31
ATOM     31  C   UNL     1      49.438   8.319  18.935  0.00  0.00    +0.000 C 
BRANCH  31  32
ATOM     32  C   UNL     1      50.843   8.723  18.468  0.00  0.00    +0.000 C 
BRANCH  32  33
ATOM     33  O   UNL     1      51.051  10.132  18.540  0.00  0.00    +0.000 OA
ATOM     34  H   UNL     1      51.546  10.286  19.365  0.00  0.00    +0.000 HD
ENDBRANCH  32  33
ENDBRANCH  31  32
ENDBRANCH  24  31
ENDBRANCH  23  24
ENDBRANCH   4  23
TORSDOF 8
ENDMDL
MODEL 9
REMARK VINA RESULT:    -6.276      4.400      6.347
REMARK INTER + INTRA:         -10.180
REMARK INTER:                  -8.923
REMARK INTRA:                  -1.257
REMARK UNBOUND:                -1.153
REMARK  Name = 
REMARK  8 active torsions:
REMARK  status: ('A' for Active; 'I' for Inactive)
REMARK    1  A    between atoms: C_2  and  C_22
REMARK    2  A    between atoms: N_3  and  C_4
REMARK    3  A    between atoms: C_4  and  C_5
REMARK    4  A    between atoms: C_8  and  C_9
REMARK    5  A    between atoms: C_9  and  N_10
REMARK    6  A    between atoms: N_10  and  C_11
REMARK    7  A    between atoms: C_11  and  C_12
REMARK    8  A    between atoms: C_12  and  O_13
REMARK                            x       y       z     vdW  Elec       q    Type
REMARK                         _______ _______ _______ _____ _____    ______ ____
ROOT
ATOM      1  C   UNL     1      45.365   6.318  12.639  0.00  0.00    +0.000 A 
ATOM      2  C   UNL     1      44.245   6.311  11.798  0.00  0.00    +0.000 A 
ATOM      3  C   UNL     1      43.747   7.503  11.270  0.00  0.00    +0.000 A 
ATOM      4  C   UNL     1      44.384   8.723  11.539  0.00  0.00    +0.000 A 
ATOM      5  C   UNL     1      45.438   8.745  12.463  0.00  0.00    +0.000 A 
ATOM      6  C   UNL     1      45.928   7.549  13.004  0.00  0.00    +0.000 A 
ENDROOT
BRANCH   1   7
ATOM      7  C   UNL     1      45.985   5.012  13.075  0.00  0.00    +0.000 C 
BRANCH   7  10
ATOM      8  O   UNL     1      47.387   2.983  14.444  0.00  0.00    +0.000 OA
ATOM      9  C   UNL     1      47.293   4.091  14.965  0.00  0.00    +0.000 C 
ATOM     10  N   UNL     1      46.631   5.130  14.365  0.00  0.00    +0.000 N 
ATOM     11  H   UNL     1      46.719   6.067  14.744  0.00  0.00    +0.000 HD
BRANCH   9  12
ATOM     12  C   UNL     1      47.845   4.343  16.311  0.00  0.00    +0.000 A 
ATOM     13  C   UNL     1      47.472   3.521  17.368  0.00  0.00    +0.000 A 
ATOM     14  S   UNL     1      48.169   3.959  18.861  0.00  0.00    +0.000 S 
ATOM     15  C   UNL     1      49.035   5.235  18.143  0.00  0.00    +0.000 A 
ATOM     16  N   UNL     1      49.875   6.010  18.884  0.00  0.00    +0.000 NA
ATOM     17  C   UNL     1      50.500   6.917  18.205  0.00  0.00    +0.000 A 
ATOM     18  N   UNL     1      50.341   7.130  16.862  0.00  0.00    +0.000 N 
ATOM     19  C   UNL     1      49.453   6.419  16.090  0.00  0.00    +0.000 A 
ATOM     20  O   UNL     1      49.257   6.713  14.916  0.00  0.00    +0.000 OA
ATOM     21  C   UNL     1      48.768   5.348  16.788  0.00  0.00    +0.000 A 
ATOM     22  H   UNL     1      50.835   7.879  16.399  0.00  0.00    +0.000 HD
ENDBRANCH   9  12
ENDBRANCH   7  10
ENDBRANCH   1   7
BRANCH   4  23
ATOM     23  C   UNL     1      44.113   9.907  10.634  0.00  0.00    +0.000 C 
BRANCH  23  24
ATOM     24  N   UNL     1      43.607  11.122  11.275  0.00  0.00    +0.000 N 
ATOM     25  C   UNL     1      42.208  11.134  11.486  0.00  0.00    +0.000 A 
ATOM     26  C   UNL     1      41.326  10.286  10.799  0.00  0.00    +0.000 A 
ATOM     27  C   UNL     1      39.969  10.251  11.123  0.00  0.00    +0.000 A 
ATOM     28  C   UNL     1      39.496  11.089  12.113  0.00  0.00    +0.000 A 
ATOM     29  C   UNL     1      40.403  11.944  12.711  0.00  0.00    +0.000 A 
ATOM     30  N   UNL     1      41.725  11.990  12.411  0.00  0.00    +0.000 NA
BRANCH  24  31
ATOM     31  C   UNL     1      44.046  12.413  10.692  0.00  0.00    +0.000 C 
BRANCH  31  32
ATOM     32  C   UNL     1      44.308  12.341   9.181  0.00  0.00    +0.000 C 
BRANCH  32  33
ATOM     33  O   UNL     1      43.144  12.652   8.417  0.00  0.00    +0.000 OA
ATOM     34  H   UNL     1      42.772  13.458   8.816  0.00  0.00    +0.000 HD
ENDBRANCH  32  33
ENDBRANCH  31  32
ENDBRANCH  24  31
ENDBRANCH  23  24
ENDBRANCH   4  23
TORSDOF 8
ENDMDL
