MODEL 1
REMARK VINA RESULT:    -7.146      0.000      0.000
REMARK INTER + INTRA:         -12.801
REMARK INTER:                 -11.950
REMARK INTRA:                  -0.851
REMARK UNBOUND:                -0.851
REMARK  Name = 
REMARK  13 active torsions:
REMARK  status: ('A' for Active; 'I' for Inactive)
REMARK    1  A    between atoms: C_1  and  C_2
REMARK    2  A    between atoms: C_2  and  C_3
REMARK    3  A    between atoms: C_6  and  C_7
REMARK    4  A    between atoms: C_7  and  C_8
REMARK    5  A    between atoms: C_8  and  C_9
REMARK    6  A    between atoms: C_14  and  C_15
REMARK    7  A    between atoms: C_15  and  N_16
REMARK    8  A    between atoms: N_16  and  C_17
REMARK    9  A    between atoms: C_17  and  C_18
REMARK   10  A    between atoms: C_18  and  C_19
REMARK   11  A    between atoms: C_19  and  C_20
REMARK   12  A    between atoms: C_20  and  C_21
REMARK   13  A    between atoms: C_21  and  O_22
REMARK                            x       y       z     vdW  Elec       q    Type
REMARK                         _______ _______ _______ _____ _____    ______ ____
ROOT
ATOM      1  C   UNL     1      44.353   5.379  12.132  0.00  0.00    +0.000 A 
ATOM      2  C   UNL     1      44.604   6.723  11.822  0.00  0.00    +0.000 A 
ATOM      3  C   UNL     1      45.681   7.388  12.407  0.00  0.00    +0.000 A 
ATOM      4 CL   UNL     1      45.982   9.037  12.012  0.00  0.00    +0.000 Cl
ATOM      5  C   UNL     1      46.517   6.730  13.307  0.00  0.00    +0.000 A 
ATOM      6  C   UNL     1      46.286   5.386  13.631  0.00  0.00    +0.000 A 
ATOM      7  C   UNL     1      45.207   4.719  13.030  0.00  0.00    +0.000 A 
ENDROOT
BRANCH   1   8
ATOM      8  C   UNL     1      43.197   4.648  11.484  0.00  0.00    +0.000 C 
BRANCH   8   9
ATOM      9  C   UNL     1      43.570   3.227  11.045  0.00  0.00    +0.000 C 
BRANCH   9  13
ATOM     10  C   UNL     1      45.892   3.180   7.531  0.00  0.00    +0.000 A 
ATOM     11  C   UNL     1      45.827   2.068   8.361  0.00  0.00    +0.000 A 
ATOM     12  N   UNL     1      45.084   2.034   9.493  0.00  0.00    +0.000 NA
ATOM     13  C   UNL     1      44.400   3.166   9.787  0.00  0.00    +0.000 A 
ATOM     14  C   UNL     1      44.459   4.275   8.948  0.00  0.00    +0.000 A 
ATOM     15  N   UNL     1      45.199   4.308   7.815  0.00  0.00    +0.000 NA
BRANCH  10  17
ATOM     16  C   UNL     1      47.774   2.039   6.364  0.00  0.00    +0.000 C 
ATOM     17  C   UNL     1      46.789   3.198   6.327  0.00  0.00    +0.000 C 
ENDBRANCH  10  17
ENDBRANCH   9  13
ENDBRANCH   8   9
ENDBRANCH   1   8
BRANCH   6  18
ATOM     18  C   UNL     1      47.195   4.666  14.599  0.00  0.00    +0.000 C 
BRANCH  18  19
ATOM     19  N   UNL     1      48.049   5.612  15.315  0.00  0.00    +0.000 NA
ATOM     20  H   UNL     1      47.596   6.525  15.324  0.00  0.00    +0.000 HD
BRANCH  19  21
ATOM     21  C   UNL     1      48.302   5.169  16.683  0.00  0.00    +0.000 C 
BRANCH  21  22
ATOM     22  C   UNL     1      47.291   4.086  17.067  0.00  0.00    +0.000 C 
BRANCH  22  23
ATOM     23  C   UNL     1      47.984   2.898  17.737  0.00  0.00    +0.000 C 
BRANCH  23  24
ATOM     24  C   UNL     1      49.491   3.119  17.846  0.00  0.00    +0.000 C 
BRANCH  24  25
ATOM     25  C   UNL     1      50.268   2.042  17.101  0.00  0.00    +0.000 C 
BRANCH  25  26
ATOM     26  O   UNL     1      49.540   1.630  15.952  0.00  0.00    +0.000 OA
ATOM     27  H   UNL     1      49.400   0.669  16.023  0.00  0.00    +0.000 HD
ENDBRANCH  25  26
ENDBRANCH  24  25
ENDBRANCH  23  24
ENDBRANCH  22  23
ENDBRANCH  21  22
ENDBRANCH  19  21
ENDBRANCH  18  19
ENDBRANCH   6  18
TORSDOF 12
ENDMDL
MODEL 2
REMARK VINA RESULT:    -6.758      1.196      1.568
REMARK INTER + INTRA:         -12.153
REMARK INTER:                 -10.961
REMARK INTRA:                  -1.192
REMARK UNBOUND:                -0.851
REMARK  Name = 
REMARK  13 active torsions:
REMARK  status: ('A' for Active; 'I' for Inactive)
REMARK    1  A    between atoms: C_1  and  C_2
REMARK    2  A    between atoms: C_2  and  C_3
REMARK    3  A    between atoms: C_6  and  C_7
REMARK    4  A    between atoms: C_7  and  C_8
REMARK    5  A    between atoms: C_8  and  C_9
REMARK    6  A    between atoms: C_14  and  C_15
REMARK    7  A    between atoms: C_15  and  N_16
REMARK    8  A    between atoms: N_16  and  C_17
REMARK    9  A    between atoms: C_17  and  C_18
REMARK   10  A    between atoms: C_18  and  C_19
REMARK   11  A    between atoms: C_19  and  C_20
REMARK   12  A    between atoms: C_20  and  C_21
REMARK   13  A    between atoms: C_21  and  O_22
REMARK                            x       y       z     vdW  Elec       q    Type
REMARK                         _______ _______ _______ _____ _____    ______ ____
ROOT
ATOM      1  C   UNL     1      45.464   5.917  12.549  0.00  0.00    +0.000 A 
ATOM      2  C   UNL     1      44.902   7.159  12.217  0.00  0.00    +0.000 A 
ATOM      3  C   UNL     1      45.580   8.339  12.520  0.00  0.00    +0.000 A 
ATOM      4 CL   UNL     1      44.883   9.856  12.100  0.00  0.00    +0.000 Cl
ATOM      5  C   UNL     1      46.819   8.301  13.157  0.00  0.00    +0.000 A 
ATOM      6  C   UNL     1      47.401   7.072  13.497  0.00  0.00    +0.000 A 
ATOM      7  C   UNL     1      46.718   5.887  13.180  0.00  0.00    +0.000 A 
ENDROOT
BRANCH   1   8
ATOM      8  C   UNL     1      44.739   4.634  12.205  0.00  0.00    +0.000 C 
BRANCH   8   9
ATOM      9  C   UNL     1      44.065   4.690  10.828  0.00  0.00    +0.000 C 
BRANCH   9  13
ATOM     10  C   UNL     1      46.223   2.738   7.782  0.00  0.00    +0.000 A 
ATOM     11  C   UNL     1      45.511   2.016   8.732  0.00  0.00    +0.000 A 
ATOM     12  N   UNL     1      44.794   2.602   9.721  0.00  0.00    +0.000 NA
ATOM     13  C   UNL     1      44.812   3.956   9.743  0.00  0.00    +0.000 A 
ATOM     14  C   UNL     1      45.517   4.677   8.784  0.00  0.00    +0.000 A 
ATOM     15  N   UNL     1      46.232   4.093   7.794  0.00  0.00    +0.000 NA
BRANCH  10  17
ATOM     16  C   UNL     1      47.055   2.811   5.436  0.00  0.00    +0.000 C 
ATOM     17  C   UNL     1      47.065   2.045   6.751  0.00  0.00    +0.000 C 
ENDBRANCH  10  17
ENDBRANCH   9  13
ENDBRANCH   8   9
ENDBRANCH   1   8
BRANCH   6  18
ATOM     18  C   UNL     1      48.748   7.026  14.179  0.00  0.00    +0.000 C 
BRANCH  18  19
ATOM     19  N   UNL     1      48.809   5.925  15.139  0.00  0.00    +0.000 NA
ATOM     20  H   UNL     1      49.653   5.380  14.964  0.00  0.00    +0.000 HD
BRANCH  19  21
ATOM     21  C   UNL     1      48.813   6.418  16.513  0.00  0.00    +0.000 C 
BRANCH  21  22
ATOM     22  C   UNL     1      48.719   5.238  17.483  0.00  0.00    +0.000 C 
BRANCH  22  23
ATOM     23  C   UNL     1      47.309   4.645  17.495  0.00  0.00    +0.000 C 
BRANCH  23  24
ATOM     24  C   UNL     1      47.344   3.119  17.440  0.00  0.00    +0.000 C 
BRANCH  24  25
ATOM     25  C   UNL     1      48.292   2.622  16.357  0.00  0.00    +0.000 C 
BRANCH  25  26
ATOM     26  O   UNL     1      47.767   2.936  15.075  0.00  0.00    +0.000 OA
ATOM     27  H   UNL     1      46.797   2.920  15.143  0.00  0.00    +0.000 HD
ENDBRANCH  25  26
ENDBRANCH  24  25
ENDBRANCH  23  24
ENDBRANCH  22  23
ENDBRANCH  21  22
ENDBRANCH  19  21
ENDBRANCH  18  19
ENDBRANCH   6  18
TORSDOF 12
ENDMDL
MODEL 3
REMARK VINA RESULT:    -6.630      1.576      2.150
REMARK INTER + INTRA:         -11.939
REMARK INTER:                 -10.779
REMARK INTRA:                  -1.160
REMARK UNBOUND:                -0.851
REMARK  Name = 
REMARK  13 active torsions:
REMARK  status: ('A' for Active; 'I' for Inactive)
REMARK    1  A    between atoms: C_1  and  C_2
REMARK    2  A    between atoms: C_2  and  C_3
REMARK    3  A    between atoms: C_6  and  C_7
REMARK    4  A    between atoms: C_7  and  C_8
REMARK    5  A    between atoms: C_8  and  C_9
REMARK    6  A    between atoms: C_14  and  C_15
REMARK    7  A    between atoms: C_15  and  N_16
REMARK    8  A    between atoms: N_16  and  C_17
REMARK    9  A    between atoms: C_17  and  C_18
REMARK   10  A    between atoms: C_18  and  C_19
REMARK   11  A    between atoms: C_19  and  C_20
REMARK   12  A    between atoms: C_20  and  C_21
REMARK   13  A    between atoms: C_21  and  O_22
REMARK                            x       y       z     vdW  Elec       q    Type
REMARK                         _______ _______ _______ _____ _____    ______ ____
ROOT
ATOM      1  C   UNL     1      44.978   4.830  12.317  0.00  0.00    +0.000 A 
ATOM      2  C   UNL     1      45.576   6.042  11.940  0.00  0.00    +0.000 A 
ATOM      3  C   UNL     1      46.736   6.479  12.578  0.00  0.00    +0.000 A 
ATOM      4 CL   UNL     1      47.464   7.965  12.101  0.00  0.00    +0.000 Cl
ATOM      5  C   UNL     1      47.313   5.723  13.596  0.00  0.00    +0.000 A 
ATOM      6  C   UNL     1      46.734   4.508  13.988  0.00  0.00    +0.000 A 
ATOM      7  C   UNL     1      45.572   4.068  13.335  0.00  0.00    +0.000 A 
ENDROOT
BRANCH   1   8
ATOM      8  C   UNL     1      43.729   4.344  11.614  0.00  0.00    +0.000 C 
BRANCH   8   9
ATOM      9  C   UNL     1      43.716   4.702  10.122  0.00  0.00    +0.000 C 
BRANCH   9  13
ATOM     10  C   UNL     1      46.347   2.365   7.807  0.00  0.00    +0.000 A 
ATOM     11  C   UNL     1      46.280   3.743   7.643  0.00  0.00    +0.000 A 
ATOM     12  N   UNL     1      45.458   4.534   8.373  0.00  0.00    +0.000 NA
ATOM     13  C   UNL     1      44.683   3.901   9.286  0.00  0.00    +0.000 A 
ATOM     14  C   UNL     1      44.760   2.522   9.456  0.00  0.00    +0.000 A 
ATOM     15  N   UNL     1      45.583   1.731   8.729  0.00  0.00    +0.000 NA
BRANCH  10  17
ATOM     16  C   UNL     1      47.704   2.313   5.719  0.00  0.00    +0.000 C 
ATOM     17  C   UNL     1      47.218   1.519   6.923  0.00  0.00    +0.000 C 
ENDBRANCH  10  17
ENDBRANCH   9  13
ENDBRANCH   8   9
ENDBRANCH   1   8
BRANCH   6  18
ATOM     18  C   UNL     1      47.362   3.681  15.085  0.00  0.00    +0.000 C 
BRANCH  18  19
ATOM     19  N   UNL     1      46.662   3.879  16.354  0.00  0.00    +0.000 NA
ATOM     20  H   UNL     1      45.694   3.575  16.249  0.00  0.00    +0.000 HD
BRANCH  19  21
ATOM     21  C   UNL     1      47.301   3.135  17.435  0.00  0.00    +0.000 C 
BRANCH  21  22
ATOM     22  C   UNL     1      48.812   3.378  17.402  0.00  0.00    +0.000 C 
BRANCH  22  23
ATOM     23  C   UNL     1      49.233   4.382  18.477  0.00  0.00    +0.000 C 
BRANCH  23  24
ATOM     24  C   UNL     1      50.067   5.517  17.887  0.00  0.00    +0.000 C 
BRANCH  24  25
ATOM     25  C   UNL     1      49.352   6.184  16.719  0.00  0.00    +0.000 C 
BRANCH  25  26
ATOM     26  O   UNL     1      48.083   6.664  17.140  0.00  0.00    +0.000 OA
ATOM     27  H   UNL     1      47.555   6.837  16.342  0.00  0.00    +0.000 HD
ENDBRANCH  25  26
ENDBRANCH  24  25
ENDBRANCH  23  24
ENDBRANCH  22  23
ENDBRANCH  21  22
ENDBRANCH  19  21
ENDBRANCH  18  19
ENDBRANCH   6  18
TORSDOF 12
ENDMDL
MODEL 4
REMARK VINA RESULT:    -6.416      3.583      6.048
REMARK INTER + INTRA:         -11.581
REMARK INTER:                 -10.743
REMARK INTRA:                  -0.837
REMARK UNBOUND:                -0.851
REMARK  Name = 
REMARK  13 active torsions:
REMARK  status: ('A' for Active; 'I' for Inactive)
REMARK    1  A    between atoms: C_1  and  C_2
REMARK    2  A    between atoms: C_2  and  C_3
REMARK    3  A    between atoms: C_6  and  C_7
REMARK    4  A    between atoms: C_7  and  C_8
REMARK    5  A    between atoms: C_8  and  C_9
REMARK    6  A    between atoms: C_14  and  C_15
REMARK    7  A    between atoms: C_15  and  N_16
REMARK    8  A    between atoms: N_16  and  C_17
REMARK    9  A    between atoms: C_17  and  C_18
REMARK   10  A    between atoms: C_18  and  C_19
REMARK   11  A    between atoms: C_19  and  C_20
REMARK   12  A    between atoms: C_20  and  C_21
REMARK   13  A    between atoms: C_21  and  O_22
REMARK                            x       y       z     vdW  Elec       q    Type
REMARK                         _______ _______ _______ _____ _____    ______ ____
ROOT
ATOM      1  C   UNL     1      44.527   5.165  12.338  0.00  0.00    +0.000 A 
ATOM      2  C   UNL     1      45.272   4.425  13.268  0.00  0.00    +0.000 A 
ATOM      3  C   UNL     1      46.388   4.992  13.882  0.00  0.00    +0.000 A 
ATOM      4 CL   UNL     1      47.289   4.075  15.027  0.00  0.00    +0.000 Cl
ATOM      5  C   UNL     1      46.778   6.294  13.579  0.00  0.00    +0.000 A 
ATOM      6  C   UNL     1      46.048   7.053  12.654  0.00  0.00    +0.000 A 
ATOM      7  C   UNL     1      44.920   6.481  12.047  0.00  0.00    +0.000 A 
ENDROOT
BRANCH   1   8
ATOM      8  C   UNL     1      43.304   4.559  11.684  0.00  0.00    +0.000 C 
BRANCH   8   9
ATOM      9  C   UNL     1      43.561   3.142  11.154  0.00  0.00    +0.000 C 
BRANCH   9  13
ATOM     10  C   UNL     1      45.823   3.132   7.601  0.00  0.00    +0.000 A 
ATOM     11  C   UNL     1      45.710   1.988   8.382  0.00  0.00    +0.000 A 
ATOM     12  N   UNL     1      44.984   1.942   9.524  0.00  0.00    +0.000 NA
ATOM     13  C   UNL     1      44.366   3.094   9.880  0.00  0.00    +0.000 A 
ATOM     14  C   UNL     1      44.473   4.236   9.092  0.00  0.00    +0.000 A 
ATOM     15  N   UNL     1      45.196   4.281   7.948  0.00  0.00    +0.000 NA
BRANCH  10  17
ATOM     16  C   UNL     1      47.941   2.299   6.589  0.00  0.00    +0.000 C 
ATOM     17  C   UNL     1      46.701   3.157   6.384  0.00  0.00    +0.000 C 
ENDBRANCH  10  17
ENDBRANCH   9  13
ENDBRANCH   8   9
ENDBRANCH   1   8
BRANCH   6  18
ATOM     18  C   UNL     1      46.463   8.469  12.329  0.00  0.00    +0.000 C 
BRANCH  18  19
ATOM     19  N   UNL     1      45.310   9.368  12.348  0.00  0.00    +0.000 NA
ATOM     20  H   UNL     1      45.022   9.517  13.315  0.00  0.00    +0.000 HD
BRANCH  19  21
ATOM     21  C   UNL     1      45.624  10.648  11.721  0.00  0.00    +0.000 C 
BRANCH  21  22
ATOM     22  C   UNL     1      44.347  11.269  11.151  0.00  0.00    +0.000 C 
BRANCH  22  23
ATOM     23  C   UNL     1      43.655  10.314  10.178  0.00  0.00    +0.000 C 
BRANCH  23  24
ATOM     24  C   UNL     1      42.300  10.857   9.729  0.00  0.00    +0.000 C 
BRANCH  24  25
ATOM     25  C   UNL     1      41.186  10.427  10.673  0.00  0.00    +0.000 C 
BRANCH  25  26
ATOM     26  O   UNL     1      41.471   9.138  11.200  0.00  0.00    +0.000 OA
ATOM     27  H   UNL     1      40.814   8.954  11.894  0.00  0.00    +0.000 HD
ENDBRANCH  25  26
ENDBRANCH  24  25
ENDBRANCH  23  24
ENDBRANCH  22  23
ENDBRANCH  21  22
ENDBRANCH  19  21
ENDBRANCH  18  19
ENDBRANCH   6  18
TORSDOF 12
ENDMDL
MODEL 5
REMARK VINA RESULT:    -6.271      3.063      4.412
REMARK INTER + INTRA:         -11.338
REMARK INTER:                 -10.197
REMARK INTRA:                  -1.140
REMARK UNBOUND:                -0.851
REMARK  Name = 
REMARK  13 active torsions:
REMARK  status: ('A' for Active; 'I' for Inactive)
REMARK    1  A    between atoms: C_1  and  C_2
REMARK    2  A    between atoms: C_2  and  C_3
REMARK    3  A    between atoms: C_6  and  C_7
REMARK    4  A    between atoms: C_7  and  C_8
REMARK    5  A    between atoms: C_8  and  C_9
REMARK    6  A    between atoms: C_14  and  C_15
REMARK    7  A    between atoms: C_15  and  N_16
REMARK    8  A    between atoms: N_16  and  C_17
REMARK    9  A    between atoms: C_17  and  C_18
REMARK   10  A    between atoms: C_18  and  C_19
REMARK   11  A    between atoms: C_19  and  C_20
REMARK   12  A    between atoms: C_20  and  C_21
REMARK   13  A    between atoms: C_21  and  O_22
REMARK                            x       y       z     vdW  Elec       q    Type
REMARK                         _______ _______ _______ _____ _____    ______ ____
ROOT
ATOM      1  C   UNL     1      44.926   5.223  12.297  0.00  0.00    +0.000 A 
ATOM      2  C   UNL     1      44.407   6.421  11.785  0.00  0.00    +0.000 A 
ATOM      3  C   UNL     1      45.079   7.624  11.999  0.00  0.00    +0.000 A 
ATOM      4 CL   UNL     1      44.436   9.087  11.358  0.00  0.00    +0.000 Cl
ATOM      5  C   UNL     1      46.268   7.652  12.724  0.00  0.00    +0.000 A 
ATOM      6  C   UNL     1      46.806   6.467  13.245  0.00  0.00    +0.000 A 
ATOM      7  C   UNL     1      46.131   5.258  13.017  0.00  0.00    +0.000 A 
ENDROOT
BRANCH   1   8
ATOM      8  C   UNL     1      44.208   3.913  12.051  0.00  0.00    +0.000 C 
BRANCH   8   9
ATOM      9  C   UNL     1      43.605   3.829  10.643  0.00  0.00    +0.000 C 
BRANCH   9  13
ATOM     10  C   UNL     1      46.378   2.755   7.661  0.00  0.00    +0.000 A 
ATOM     11  C   UNL     1      45.804   1.794   8.484  0.00  0.00    +0.000 A 
ATOM     12  N   UNL     1      44.899   2.093   9.447  0.00  0.00    +0.000 NA
ATOM     13  C   UNL     1      44.581   3.403   9.576  0.00  0.00    +0.000 A 
ATOM     14  C   UNL     1      45.150   4.362   8.743  0.00  0.00    +0.000 A 
ATOM     15  N   UNL     1      46.052   4.064   7.778  0.00  0.00    +0.000 NA
BRANCH  10  17
ATOM     16  C   UNL     1      47.003   2.770   5.250  0.00  0.00    +0.000 C 
ATOM     17  C   UNL     1      47.434   2.387   6.658  0.00  0.00    +0.000 C 
ENDBRANCH  10  17
ENDBRANCH   9  13
ENDBRANCH   8   9
ENDBRANCH   1   8
BRANCH   6  18
ATOM     18  C   UNL     1      48.100   6.492  14.024  0.00  0.00    +0.000 C 
BRANCH  18  19
ATOM     19  N   UNL     1      49.251   6.532  13.123  0.00  0.00    +0.000 NA
ATOM     20  H   UNL     1      48.943   6.292  12.181  0.00  0.00    +0.000 HD
BRANCH  19  21
ATOM     21  C   UNL     1      49.877   7.851  13.120  0.00  0.00    +0.000 C 
BRANCH  21  22
ATOM     22  C   UNL     1      49.995   8.361  11.682  0.00  0.00    +0.000 C 
BRANCH  22  23
ATOM     23  C   UNL     1      49.092   9.573  11.449  0.00  0.00    +0.000 C 
BRANCH  23  24
ATOM     24  C   UNL     1      49.684  10.838  12.068  0.00  0.00    +0.000 C 
BRANCH  24  25
ATOM     25  C   UNL     1      48.809  11.368  13.196  0.00  0.00    +0.000 C 
BRANCH  25  26
ATOM     26  O   UNL     1      47.470  10.931  13.015  0.00  0.00    +0.000 OA
ATOM     27  H   UNL     1      47.377  10.075  13.469  0.00  0.00    +0.000 HD
ENDBRANCH  25  26
ENDBRANCH  24  25
ENDBRANCH  23  24
ENDBRANCH  22  23
ENDBRANCH  21  22
ENDBRANCH  19  21
ENDBRANCH  18  19
ENDBRANCH   6  18
TORSDOF 12
ENDMDL
MODEL 6
REMARK VINA RESULT:    -6.244      2.583      3.526
REMARK INTER + INTRA:         -11.294
REMARK INTER:                 -10.074
REMARK INTRA:                  -1.220
REMARK UNBOUND:                -0.851
REMARK  Name = 
REMARK  13 active torsions:
REMARK  status: ('A' for Active; 'I' for Inactive)
REMARK    1  A    between atoms: C_1  and  C_2
REMARK    2  A    between atoms: C_2  and  C_3
REMARK    3  A    between atoms: C_6  and  C_7
REMARK    4  A    between atoms: C_7  and  C_8
REMARK    5  A    between atoms: C_8  and  C_9
REMARK    6  A    between atoms: C_14  and  C_15
REMARK    7  A    between atoms: C_15  and  N_16
REMARK    8  A    between atoms: N_16  and  C_17
REMARK    9  A    between atoms: C_17  and  C_18
REMARK   10  A    between atoms: C_18  and  C_19
REMARK   11  A    between atoms: C_19  and  C_20
REMARK   12  A    between atoms: C_20  and  C_21
REMARK   13  A    between atoms: C_21  and  O_22
REMARK                            x       y       z     vdW  Elec       q    Type
REMARK                         _______ _______ _______ _____ _____    ______ ____
ROOT
ATOM      1  C   UNL     1      45.367   5.658  11.804  0.00  0.00    +0.000 A 
ATOM      2  C   UNL     1      45.557   4.831  12.921  0.00  0.00    +0.000 A 
ATOM      3  C   UNL     1      46.739   4.909  13.657  0.00  0.00    +0.000 A 
ATOM      4 CL   UNL     1      46.957   3.894  15.031  0.00  0.00    +0.000 Cl
ATOM      5  C   UNL     1      47.743   5.803  13.293  0.00  0.00    +0.000 A 
ATOM      6  C   UNL     1      47.575   6.640  12.181  0.00  0.00    +0.000 A 
ATOM      7  C   UNL     1      46.379   6.565  11.451  0.00  0.00    +0.000 A 
ENDROOT
BRANCH   1   8
ATOM      8  C   UNL     1      44.078   5.589  11.014  0.00  0.00    +0.000 C 
BRANCH   8   9
ATOM      9  C   UNL     1      43.758   4.167  10.533  0.00  0.00    +0.000 C 
BRANCH   9  13
ATOM     10  C   UNL     1      46.374   2.573   7.642  0.00  0.00    +0.000 A 
ATOM     11  C   UNL     1      46.099   3.935   7.687  0.00  0.00    +0.000 A 
ATOM     12  N   UNL     1      45.275   4.492   8.605  0.00  0.00    +0.000 NA
ATOM     13  C   UNL     1      44.713   3.637   9.493  0.00  0.00    +0.000 A 
ATOM     14  C   UNL     1      44.997   2.275   9.452  0.00  0.00    +0.000 A 
ATOM     15  N   UNL     1      45.823   1.718   8.536  0.00  0.00    +0.000 NA
BRANCH  10  17
ATOM     16  C   UNL     1      47.087   2.777   5.264  0.00  0.00    +0.000 C 
ATOM     17  C   UNL     1      47.234   1.990   6.558  0.00  0.00    +0.000 C 
ENDBRANCH  10  17
ENDBRANCH   9  13
ENDBRANCH   8   9
ENDBRANCH   1   8
BRANCH   6  18
ATOM     18  C   UNL     1      48.657   7.617  11.789  0.00  0.00    +0.000 C 
BRANCH  18  19
ATOM     19  N   UNL     1      49.945   7.228  12.363  0.00  0.00    +0.000 NA
ATOM     20  H   UNL     1      50.476   6.710  11.663  0.00  0.00    +0.000 HD
BRANCH  19  21
ATOM     21  C   UNL     1      50.705   8.395  12.800  0.00  0.00    +0.000 C 
BRANCH  21  22
ATOM     22  C   UNL     1      50.205   8.849  14.174  0.00  0.00    +0.000 C 
BRANCH  22  23
ATOM     23  C   UNL     1      50.264   7.706  15.188  0.00  0.00    +0.000 C 
BRANCH  23  24
ATOM     24  C   UNL     1      48.983   7.626  16.016  0.00  0.00    +0.000 C 
BRANCH  24  25
ATOM     25  C   UNL     1      48.930   6.345  16.838  0.00  0.00    +0.000 C 
BRANCH  25  26
ATOM     26  O   UNL     1      47.853   6.409  17.762  0.00  0.00    +0.000 OA
ATOM     27  H   UNL     1      47.254   7.116  17.466  0.00  0.00    +0.000 HD
ENDBRANCH  25  26
ENDBRANCH  24  25
ENDBRANCH  23  24
ENDBRANCH  22  23
ENDBRANCH  21  22
ENDBRANCH  19  21
ENDBRANCH  18  19
ENDBRANCH   6  18
TORSDOF 12
ENDMDL
MODEL 7
REMARK VINA RESULT:    -6.213      4.689      8.265
REMARK INTER + INTRA:         -11.242
REMARK INTER:                 -10.351
REMARK INTRA:                  -0.891
REMARK UNBOUND:                -0.851
REMARK  Name = 
REMARK  13 active torsions:
REMARK  status: ('A' for Active; 'I' for Inactive)
REMARK    1  A    between atoms: C_1  and  C_2
REMARK    2  A    between atoms: C_2  and  C_3
REMARK    3  A    between atoms: C_6  and  C_7
REMARK    4  A    between atoms: C_7  and  C_8
REMARK    5  A    between atoms: C_8  and  C_9
REMARK    6  A    between atoms: C_14  and  C_15
REMARK    7  A    between atoms: C_15  and  N_16
REMARK    8  A    between atoms: N_16  and  C_17
REMARK    9  A    between atoms: C_17  and  C_18
REMARK   10  A    between atoms: C_18  and  C_19
REMARK   11  A    between atoms: C_19  and  C_20
REMARK   12  A    between atoms: C_20  and  C_21
REMARK   13  A    between atoms: C_21  and  O_22
REMARK                            x       y       z     vdW  Elec       q    Type
REMARK                         _______ _______ _______ _____ _____    ______ ____
ROOT
ATOM      1  C   UNL     1      45.296   8.377  12.137  0.00  0.00    +0.000 A 
ATOM      2  C   UNL     1      46.361   7.949  12.942  0.00  0.00    +0.000 A 
ATOM      3  C   UNL     1      46.770   6.615  12.913  0.00  0.00    +0.000 A 
ATOM      4 CL   UNL     1      48.085   6.104  13.900  0.00  0.00    +0.000 Cl
ATOM      5  C   UNL     1      46.126   5.695  12.089  0.00  0.00    +0.000 A 
ATOM      6  C   UNL     1      45.060   6.101  11.275  0.00  0.00    +0.000 A 
ATOM      7  C   UNL     1      44.660   7.446  11.301  0.00  0.00    +0.000 A 
ENDROOT
BRANCH   1   8
ATOM      8  C   UNL     1      44.862   9.827  12.153  0.00  0.00    +0.000 C 
BRANCH   8   9
ATOM      9  C   UNL     1      43.988  10.193  10.946  0.00  0.00    +0.000 C 
BRANCH   9  13
ATOM     10  C   UNL     1      40.000  11.134  11.919  0.00  0.00    +0.000 A 
ATOM     11  C   UNL     1      41.049  11.948  12.329  0.00  0.00    +0.000 A 
ATOM     12  N   UNL     1      42.344  11.690  12.029  0.00  0.00    +0.000 NA
ATOM     13  C   UNL     1      42.572  10.572  11.300  0.00  0.00    +0.000 A 
ATOM     14  C   UNL     1      41.519   9.764  10.882  0.00  0.00    +0.000 A 
ATOM     15  N   UNL     1      40.224  10.022  11.179  0.00  0.00    +0.000 NA
BRANCH  10  17
ATOM     16  C   UNL     1      37.652  10.302  11.895  0.00  0.00    +0.000 C 
ATOM     17  C   UNL     1      38.586  11.418  12.340  0.00  0.00    +0.000 C 
ENDBRANCH  10  17
ENDBRANCH   9  13
ENDBRANCH   8   9
ENDBRANCH   1   8
BRANCH   6  18
ATOM     18  C   UNL     1      44.365   5.107  10.374  0.00  0.00    +0.000 C 
BRANCH  18  19
ATOM     19  N   UNL     1      44.764   3.739  10.700  0.00  0.00    +0.000 NA
ATOM     20  H   UNL     1      44.031   3.305  11.260  0.00  0.00    +0.000 HD
BRANCH  19  21
ATOM     21  C   UNL     1      44.997   2.952   9.492  0.00  0.00    +0.000 C 
BRANCH  21  22
ATOM     22  C   UNL     1      45.068   3.882   8.278  0.00  0.00    +0.000 C 
BRANCH  22  23
ATOM     23  C   UNL     1      46.404   3.737   7.549  0.00  0.00    +0.000 C 
BRANCH  23  24
ATOM     24  C   UNL     1      46.478   2.423   6.774  0.00  0.00    +0.000 C 
BRANCH  24  25
ATOM     25  C   UNL     1      47.865   1.801   6.863  0.00  0.00    +0.000 C 
BRANCH  25  26
ATOM     26  O   UNL     1      48.530   1.920   5.613  0.00  0.00    +0.000 OA
ATOM     27  H   UNL     1      48.998   1.083   5.449  0.00  0.00    +0.000 HD
ENDBRANCH  25  26
ENDBRANCH  24  25
ENDBRANCH  23  24
ENDBRANCH  22  23
ENDBRANCH  21  22
ENDBRANCH  19  21
ENDBRANCH  18  19
ENDBRANCH   6  18
TORSDOF 12
ENDMDL
MODEL 8
REMARK VINA RESULT:    -6.087      2.934      8.282
REMARK INTER + INTRA:         -11.031
REMARK INTER:                 -10.096
REMARK INTRA:                  -0.936
REMARK UNBOUND:                -0.851
REMARK  Name = 
REMARK  13 active torsions:
REMARK  status: ('A' for Active; 'I' for Inactive)
REMARK    1  A    between atoms: C_1  and  C_2
REMARK    2  A    between atoms: C_2  and  C_3
REMARK    3  A    between atoms: C_6  and  C_7
REMARK    4  A    between atoms: C_7  and  C_8
REMARK    5  A    between atoms: C_8  and  C_9
REMARK    6  A    between atoms: C_14  and  C_15
REMARK    7  A    between atoms: C_15  and  N_16
REMARK    8  A    between atoms: N_16  and  C_17
REMARK    9  A    between atoms: C_17  and  C_18
REMARK   10  A    between atoms: C_18  and  C_19
REMARK   11  A    between atoms: C_19  and  C_20
REMARK   12  A    between atoms: C_20  and  C_21
REMARK   13  A    between atoms: C_21  and  O_22
REMARK                            x       y       z     vdW  Elec       q    Type
REMARK                         _______ _______ _______ _____ _____    ______ ____
ROOT
ATOM      1  C   UNL     1      46.109   6.848  12.119  0.00  0.00    +0.000 A 
ATOM      2  C   UNL     1      45.004   6.410  12.864  0.00  0.00    +0.000 A 
ATOM      3  C   UNL     1      44.150   5.437  12.345  0.00  0.00    +0.000 A 
ATOM      4 CL   UNL     1      42.802   4.903  13.273  0.00  0.00    +0.000 Cl
ATOM      5  C   UNL     1      44.379   4.892  11.083  0.00  0.00    +0.000 A 
ATOM      6  C   UNL     1      45.478   5.314  10.321  0.00  0.00    +0.000 A 
ATOM      7  C   UNL     1      46.340   6.285  10.853  0.00  0.00    +0.000 A 
ENDROOT
BRANCH   1   8
ATOM      8  C   UNL     1      47.048   7.889  12.687  0.00  0.00    +0.000 C 
BRANCH   8   9
ATOM      9  C   UNL     1      48.409   7.301  13.083  0.00  0.00    +0.000 C 
BRANCH   9  13
ATOM     10  C   UNL     1      48.703   6.340  17.174  0.00  0.00    +0.000 A 
ATOM     11  C   UNL     1      48.237   5.411  16.251  0.00  0.00    +0.000 A 
ATOM     12  N   UNL     1      48.137   5.673  14.926  0.00  0.00    +0.000 NA
ATOM     13  C   UNL     1      48.515   6.914  14.537  0.00  0.00    +0.000 A 
ATOM     14  C   UNL     1      48.992   7.839  15.461  0.00  0.00    +0.000 A 
ATOM     15  N   UNL     1      49.095   7.577  16.785  0.00  0.00    +0.000 NA
BRANCH  10  17
ATOM     16  C   UNL     1      47.313   5.850  19.182  0.00  0.00    +0.000 C 
ATOM     17  C   UNL     1      48.725   6.031  18.643  0.00  0.00    +0.000 C 
ENDBRANCH  10  17
ENDBRANCH   9  13
ENDBRANCH   8   9
ENDBRANCH   1   8
BRANCH   6  18
ATOM     18  C   UNL     1      45.735   4.720   8.957  0.00  0.00    +0.000 C 
BRANCH  18  19
ATOM     19  N   UNL     1      44.492   4.240   8.354  0.00  0.00    +0.000 NA
ATOM     20  H   UNL     1      44.333   4.743   7.481  0.00  0.00    +0.000 HD
BRANCH  19  21
ATOM     21  C   UNL     1      44.547   2.804   8.097  0.00  0.00    +0.000 C 
BRANCH  21  22
ATOM     22  C   UNL     1      45.820   2.219   8.712  0.00  0.00    +0.000 C 
BRANCH  22  23
ATOM     23  C   UNL     1      46.555   1.324   7.713  0.00  0.00    +0.000 C 
BRANCH  23  24
ATOM     24  C   UNL     1      47.633   2.098   6.957  0.00  0.00    +0.000 C 
BRANCH  24  25
ATOM     25  C   UNL     1      47.076   2.732   5.689  0.00  0.00    +0.000 C 
BRANCH  25  26
ATOM     26  O   UNL     1      46.856   4.120   5.900  0.00  0.00    +0.000 OA
ATOM     27  H   UNL     1      47.418   4.396   6.645  0.00  0.00    +0.000 HD
ENDBRANCH  25  26
ENDBRANCH  24  25
ENDBRANCH  23  24
ENDBRANCH  22  23
ENDBRANCH  21  22
ENDBRANCH  19  21
ENDBRANCH  18  19
ENDBRANCH   6  18
TORSDOF 12
ENDMDL
MODEL 9
REMARK VINA RESULT:    -6.040      3.761      4.696
REMARK INTER + INTRA:         -10.952
REMARK INTER:                 -10.245
REMARK INTRA:                  -0.707
REMARK UNBOUND:                -0.851
REMARK  Name = 
REMARK  13 active torsions:
REMARK  status: ('A' for Active; 'I' for Inactive)
REMARK    1  A    between atoms: C_1  and  C_2
REMARK    2  A    between atoms: C_2  and  C_3
REMARK    3  A    between atoms: C_6  and  C_7
REMARK    4  A    between atoms: C_7  and  C_8
REMARK    5  A    between atoms: C_8  and  C_9
REMARK    6  A    between atoms: C_14  and  C_15
REMARK    7  A    between atoms: C_15  and  N_16
REMARK    8  A    between atoms: N_16  and  C_17
REMARK    9  A    between atoms: C_17  and  C_18
REMARK   10  A    between atoms: C_18  and  C_19
REMARK   11  A    between atoms: C_19  and  C_20
REMARK   12  A    between atoms: C_20  and  C_21
REMARK   13  A    between atoms: C_21  and  O_22
REMARK                            x       y       z     vdW  Elec       q    Type
REMARK                         _______ _______ _______ _____ _____    ______ ____
ROOT
ATOM      1  C   UNL     1      45.153   5.789  12.151  0.00  0.00    +0.000 A 
ATOM      2  C   UNL     1      45.520   4.989  13.243  0.00  0.00    +0.000 A 
ATOM      3  C   UNL     1      46.764   5.159  13.850  0.00  0.00    +0.000 A 
ATOM      4 CL   UNL     1      47.199   4.174  15.193  0.00  0.00    +0.000 Cl
ATOM      5  C   UNL     1      47.656   6.120  13.380  0.00  0.00    +0.000 A 
ATOM      6  C   UNL     1      47.310   6.932  12.291  0.00  0.00    +0.000 A 
ATOM      7  C   UNL     1      46.053   6.764  11.692  0.00  0.00    +0.000 A 
ENDROOT
BRANCH   1   8
ATOM      8  C   UNL     1      43.796   5.620  11.503  0.00  0.00    +0.000 C 
BRANCH   8   9
ATOM      9  C   UNL     1      43.528   4.174  11.067  0.00  0.00    +0.000 C 
BRANCH   9  13
ATOM     10  C   UNL     1      45.932   2.995   7.815  0.00  0.00    +0.000 A 
ATOM     11  C   UNL     1      45.507   2.073   8.764  0.00  0.00    +0.000 A 
ATOM     12  N   UNL     1      44.724   2.405   9.818  0.00  0.00    +0.000 NA
ATOM     13  C   UNL     1      44.374   3.710   9.908  0.00  0.00    +0.000 A 
ATOM     14  C   UNL     1      44.792   4.630   8.951  0.00  0.00    +0.000 A 
ATOM     15  N   UNL     1      45.572   4.299   7.896  0.00  0.00    +0.000 NA
BRANCH  10  17
ATOM     16  C   UNL     1      47.434   1.207   6.949  0.00  0.00    +0.000 C 
ATOM     17  C   UNL     1      46.862   2.596   6.706  0.00  0.00    +0.000 C 
ENDBRANCH  10  17
ENDBRANCH   9  13
ENDBRANCH   8   9
ENDBRANCH   1   8
BRANCH   6  18
ATOM     18  C   UNL     1      48.271   7.982  11.785  0.00  0.00    +0.000 C 
BRANCH  18  19
ATOM     19  N   UNL     1      49.657   7.567  11.999  0.00  0.00    +0.000 NA
ATOM     20  H   UNL     1      49.869   6.788  11.377  0.00  0.00    +0.000 HD
BRANCH  19  21
ATOM     21  C   UNL     1      50.585   8.667  11.750  0.00  0.00    +0.000 C 
BRANCH  21  22
ATOM     22  C   UNL     1      51.957   8.106  11.372  0.00  0.00    +0.000 C 
BRANCH  22  23
ATOM     23  C   UNL     1      51.865   7.209  10.136  0.00  0.00    +0.000 C 
BRANCH  23  24
ATOM     24  C   UNL     1      53.195   7.153   9.386  0.00  0.00    +0.000 C 
BRANCH  24  25
ATOM     25  C   UNL     1      54.195   6.249  10.094  0.00  0.00    +0.000 C 
BRANCH  25  26
ATOM     26  O   UNL     1      53.554   5.054  10.515  0.00  0.00    +0.000 OA
ATOM     27  H   UNL     1      54.246   4.439  10.815  0.00  0.00    +0.000 HD
ENDBRANCH  25  26
ENDBRANCH  24  25
ENDBRANCH  23  24
ENDBRANCH  22  23
ENDBRANCH  21  22
ENDBRANCH  19  21
ENDBRANCH  18  19
ENDBRANCH   6  18
TORSDOF 12
ENDMDL
