MODEL 1
REMARK VINA RESULT:    -8.522      0.000      0.000
REMARK INTER + INTRA:         -12.312
REMARK INTER:                 -11.262
REMARK INTRA:                  -1.050
REMARK UNBOUND:                -1.050
REMARK  Name = 
REMARK  6 active torsions:
REMARK  status: ('A' for Active; 'I' for Inactive)
REMARK    1  A    between atoms: N_1  and  C_2
REMARK    2  A    between atoms: C_6  and  C_7
REMARK    3  A    between atoms: C_7  and  C_8
REMARK    4  A    between atoms: C_11  and  C_12
REMARK    5  A    between atoms: C_12  and  N_13
REMARK    6  A    between atoms: C_14  and  C_16
REMARK                            x       y       z     vdW  Elec       q    Type
REMARK                         _______ _______ _______ _____ _____    ______ ____
ROOT
ATOM      1  C   UNL     1      44.793   4.695  10.200  0.00  0.00    +0.000 A 
ATOM      2  C   UNL     1      44.280   4.859  11.494  0.00  0.00    +0.000 A 
ATOM      3  C   UNL     1      44.823   5.813  12.360  0.00  0.00    +0.000 A 
ATOM      4  C   UNL     1      45.880   6.633  11.945  0.00  0.00    +0.000 A 
ATOM      5  C   UNL     1      46.434   6.426  10.675  0.00  0.00    +0.000 A 
ATOM      6  C   UNL     1      45.889   5.473   9.808  0.00  0.00    +0.000 A 
ENDROOT
BRANCH   1   7
ATOM      7  C   UNL     1      44.157   3.718   9.237  0.00  0.00    +0.000 C 
BRANCH   7  12
ATOM      8  C   UNL     1      46.620   2.814   6.447  0.00  0.00    +0.000 A 
ATOM      9  C   UNL     1      47.059   1.562   6.879  0.00  0.00    +0.000 A 
ATOM     10  C   UNL     1      46.503   0.969   8.015  0.00  0.00    +0.000 A 
ATOM     11  C   UNL     1      45.543   1.651   8.762  0.00  0.00    +0.000 A 
ATOM     12  C   UNL     1      45.148   2.944   8.396  0.00  0.00    +0.000 A 
ATOM     13  C   UNL     1      45.705   3.515   7.238  0.00  0.00    +0.000 A 
BRANCH   8  14
ATOM     14  N   UNL     1      47.262   3.455   5.377  0.00  0.00    +0.000 N 
ATOM     15  H   UNL     1      47.516   2.824   4.623  0.00  0.00    +0.000 HD
ATOM     16  H   UNL     1      46.762   4.271   5.039  0.00  0.00    +0.000 HD
ENDBRANCH   8  14
ENDBRANCH   7  12
ENDBRANCH   1   7
BRANCH   4  17
ATOM     17  C   UNL     1      46.422   7.713  12.845  0.00  0.00    +0.000 C 
BRANCH  17  18
ATOM     18  N   UNL     1      46.981   7.165  14.049  0.00  0.00    +0.000 N 
ATOM     19  C   UNL     1      48.279   6.724  14.095  0.00  0.00    +0.000 C 
ATOM     20  O   UNL     1      49.034   6.814  13.130  0.00  0.00    +0.000 OA
ATOM     21  H   UNL     1      46.326   6.863  14.765  0.00  0.00    +0.000 HD
BRANCH  19  22
ATOM     22  C   UNL     1      48.745   6.200  15.385  0.00  0.00    +0.000 A 
ATOM     23  C   UNL     1      49.822   6.797  16.025  0.00  0.00    +0.000 A 
ATOM     24  S   UNL     1      50.174   6.117  17.549  0.00  0.00    +0.000 S 
ATOM     25  C   UNL     1      48.935   4.961  17.380  0.00  0.00    +0.000 A 
ATOM     26  N   UNL     1      48.703   4.037  18.351  0.00  0.00    +0.000 NA
ATOM     27  C   UNL     1      47.759   3.201  18.074  0.00  0.00    +0.000 A 
ATOM     28  N   UNL     1      47.027   3.202  16.915  0.00  0.00    +0.000 N 
ATOM     29  C   UNL     1      47.206   4.135  15.921  0.00  0.00    +0.000 A 
ATOM     30  O   UNL     1      46.505   4.133  14.913  0.00  0.00    +0.000 OA
ATOM     31  C   UNL     1      48.259   5.098  16.181  0.00  0.00    +0.000 A 
ATOM     32  H   UNL     1      46.300   2.521  16.761  0.00  0.00    +0.000 HD
ENDBRANCH  19  22
ENDBRANCH  17  18
ENDBRANCH   4  17
TORSDOF 6
ENDMDL
MODEL 2
REMARK VINA RESULT:    -8.006      1.781      2.399
REMARK INTER + INTRA:         -11.630
REMARK INTER:                 -10.759
REMARK INTRA:                  -0.870
REMARK UNBOUND:                -1.050
REMARK  Name = 
REMARK  6 active torsions:
REMARK  status: ('A' for Active; 'I' for Inactive)
REMARK    1  A    between atoms: N_1  and  C_2
REMARK    2  A    between atoms: C_6  and  C_7
REMARK    3  A    between atoms: C_7  and  C_8
REMARK    4  A    between atoms: C_11  and  C_12
REMARK    5  A    between atoms: C_12  and  N_13
REMARK    6  A    between atoms: C_14  and  C_16
REMARK                            x       y       z     vdW  Elec       q    Type
REMARK                         _______ _______ _______ _____ _____    ______ ____
ROOT
ATOM      1  C   UNL     1      45.035   4.599  10.384  0.00  0.00    +0.000 A 
ATOM      2  C   UNL     1      45.681   5.807  10.086  0.00  0.00    +0.000 A 
ATOM      3  C   UNL     1      46.398   6.493  11.071  0.00  0.00    +0.000 A 
ATOM      4  C   UNL     1      46.496   5.978  12.370  0.00  0.00    +0.000 A 
ATOM      5  C   UNL     1      45.800   4.804  12.683  0.00  0.00    +0.000 A 
ATOM      6  C   UNL     1      45.085   4.116  11.698  0.00  0.00    +0.000 A 
ENDROOT
BRANCH   1   7
ATOM      7  C   UNL     1      44.324   3.817   9.302  0.00  0.00    +0.000 C 
BRANCH   7  12
ATOM      8  C   UNL     1      46.658   2.797   6.442  0.00  0.00    +0.000 A 
ATOM      9  C   UNL     1      47.028   1.514   6.849  0.00  0.00    +0.000 A 
ATOM     10  C   UNL     1      46.465   0.943   7.992  0.00  0.00    +0.000 A 
ATOM     11  C   UNL     1      45.567   1.674   8.770  0.00  0.00    +0.000 A 
ATOM     12  C   UNL     1      45.245   2.994   8.428  0.00  0.00    +0.000 A 
ATOM     13  C   UNL     1      45.807   3.543   7.262  0.00  0.00    +0.000 A 
BRANCH   8  14
ATOM     14  N   UNL     1      47.313   3.409   5.362  0.00  0.00    +0.000 N 
ATOM     15  H   UNL     1      47.907   4.185   5.639  0.00  0.00    +0.000 HD
ATOM     16  H   UNL     1      47.800   2.750   4.763  0.00  0.00    +0.000 HD
ENDBRANCH   8  14
ENDBRANCH   7  12
ENDBRANCH   1   7
BRANCH   4  17
ATOM     17  C   UNL     1      47.328   6.673  13.416  0.00  0.00    +0.000 C 
BRANCH  17  18
ATOM     18  N   UNL     1      47.366   5.925  14.642  0.00  0.00    +0.000 N 
ATOM     19  C   UNL     1      48.491   5.905  15.429  0.00  0.00    +0.000 C 
ATOM     20  O   UNL     1      49.496   6.553  15.148  0.00  0.00    +0.000 OA
ATOM     21  H   UNL     1      46.658   5.207  14.766  0.00  0.00    +0.000 HD
BRANCH  19  22
ATOM     22  C   UNL     1      48.407   5.120  16.666  0.00  0.00    +0.000 A 
ATOM     23  C   UNL     1      48.159   3.755  16.604  0.00  0.00    +0.000 A 
ATOM     24  S   UNL     1      48.178   2.987  18.126  0.00  0.00    +0.000 S 
ATOM     25  C   UNL     1      48.459   4.462  18.928  0.00  0.00    +0.000 A 
ATOM     26  N   UNL     1      48.568   4.513  20.283  0.00  0.00    +0.000 NA
ATOM     27  C   UNL     1      48.743   5.700  20.758  0.00  0.00    +0.000 A 
ATOM     28  N   UNL     1      48.818   6.842  20.004  0.00  0.00    +0.000 N 
ATOM     29  C   UNL     1      48.744   6.836  18.631  0.00  0.00    +0.000 A 
ATOM     30  O   UNL     1      48.857   7.872  17.983  0.00  0.00    +0.000 OA
ATOM     31  C   UNL     1      48.544   5.524  18.045  0.00  0.00    +0.000 A 
ATOM     32  H   UNL     1      48.959   7.741  20.438  0.00  0.00    +0.000 HD
ENDBRANCH  19  22
ENDBRANCH  17  18
ENDBRANCH   4  17
TORSDOF 6
ENDMDL
MODEL 3
REMARK VINA RESULT:    -7.836      2.473      3.340
REMARK INTER + INTRA:         -11.405
REMARK INTER:                 -10.300
REMARK INTRA:                  -1.105
REMARK UNBOUND:                -1.050
REMARK  Name = 
REMARK  6 active torsions:
REMARK  status: ('A' for Active; 'I' for Inactive)
REMARK    1  A    between atoms: N_1  and  C_2
REMARK    2  A    between atoms: C_6  and  C_7
REMARK    3  A    between atoms: C_7  and  C_8
REMARK    4  A    between atoms: C_11  and  C_12
REMARK    5  A    between atoms: C_12  and  N_13
REMARK    6  A    between atoms: C_14  and  C_16
REMARK                            x       y       z     vdW  Elec       q    Type
REMARK                         _______ _______ _______ _____ _____    ______ ____
ROOT
ATOM      1  C   UNL     1      44.932   4.496   9.796  0.00  0.00    +0.000 A 
ATOM      2  C   UNL     1      45.788   5.600   9.906  0.00  0.00    +0.000 A 
ATOM      3  C   UNL     1      46.200   6.061  11.160  0.00  0.00    +0.000 A 
ATOM      4  C   UNL     1      45.776   5.418  12.330  0.00  0.00    +0.000 A 
ATOM      5  C   UNL     1      44.872   4.354  12.223  0.00  0.00    +0.000 A 
ATOM      6  C   UNL     1      44.462   3.891  10.969  0.00  0.00    +0.000 A 
ENDROOT
BRANCH   1   7
ATOM      7  C   UNL     1      44.549   3.950   8.439  0.00  0.00    +0.000 C 
BRANCH   7  12
ATOM      8  C   UNL     1      47.281   2.435   6.223  0.00  0.00    +0.000 A 
ATOM      9  C   UNL     1      47.467   1.198   6.844  0.00  0.00    +0.000 A 
ATOM     10  C   UNL     1      46.659   0.815   7.916  0.00  0.00    +0.000 A 
ATOM     11  C   UNL     1      45.694   1.690   8.415  0.00  0.00    +0.000 A 
ATOM     12  C   UNL     1      45.546   2.969   7.863  0.00  0.00    +0.000 A 
ATOM     13  C   UNL     1      46.355   3.328   6.770  0.00  0.00    +0.000 A 
BRANCH   8  14
ATOM     14  N   UNL     1      48.169   2.863   5.225  0.00  0.00    +0.000 N 
ATOM     15  H   UNL     1      49.144   2.815   5.506  0.00  0.00    +0.000 HD
ATOM     16  H   UNL     1      48.009   2.416   4.327  0.00  0.00    +0.000 HD
ENDBRANCH   8  14
ENDBRANCH   7  12
ENDBRANCH   1   7
BRANCH   4  17
ATOM     17  C   UNL     1      46.274   5.862  13.681  0.00  0.00    +0.000 C 
BRANCH  17  18
ATOM     18  N   UNL     1      47.615   6.370  13.609  0.00  0.00    +0.000 N 
ATOM     19  C   UNL     1      47.875   7.712  13.724  0.00  0.00    +0.000 C 
ATOM     20  O   UNL     1      46.987   8.534  13.935  0.00  0.00    +0.000 OA
ATOM     21  H   UNL     1      48.317   5.759  13.201  0.00  0.00    +0.000 HD
BRANCH  19  22
ATOM     22  C   UNL     1      49.286   8.111  13.651  0.00  0.00    +0.000 A 
ATOM     23  C   UNL     1      49.710   8.971  12.647  0.00  0.00    +0.000 A 
ATOM     24  S   UNL     1      51.358   9.396  12.762  0.00  0.00    +0.000 S 
ATOM     25  C   UNL     1      51.576   8.398  14.124  0.00  0.00    +0.000 A 
ATOM     26  N   UNL     1      52.792   8.290  14.725  0.00  0.00    +0.000 NA
ATOM     27  C   UNL     1      52.821   7.471  15.723  0.00  0.00    +0.000 A 
ATOM     28  N   UNL     1      51.747   6.750  16.175  0.00  0.00    +0.000 N 
ATOM     29  C   UNL     1      50.493   6.850  15.619  0.00  0.00    +0.000 A 
ATOM     30  O   UNL     1      49.543   6.221  16.074  0.00  0.00    +0.000 OA
ATOM     31  C   UNL     1      50.407   7.756  14.490  0.00  0.00    +0.000 A 
ATOM     32  H   UNL     1      51.835   6.127  16.963  0.00  0.00    +0.000 HD
ENDBRANCH  19  22
ENDBRANCH  17  18
ENDBRANCH   4  17
TORSDOF 6
ENDMDL
MODEL 4
REMARK VINA RESULT:    -7.633      2.841      4.463
REMARK INTER + INTRA:         -11.137
REMARK INTER:                 -10.142
REMARK INTRA:                  -0.995
REMARK UNBOUND:                -1.050
REMARK  Name = 
REMARK  6 active torsions:
REMARK  status: ('A' for Active; 'I' for Inactive)
REMARK    1  A    between atoms: N_1  and  C_2
REMARK    2  A    between atoms: C_6  and  C_7
REMARK    3  A    between atoms: C_7  and  C_8
REMARK    4  A    between atoms: C_11  and  C_12
REMARK    5  A    between atoms: C_12  and  N_13
REMARK    6  A    between atoms: C_14  and  C_16
REMARK                            x       y       z     vdW  Elec       q    Type
REMARK                         _______ _______ _______ _____ _____    ______ ____
ROOT
ATOM      1  C   UNL     1      45.163   4.459   9.886  0.00  0.00    +0.000 A 
ATOM      2  C   UNL     1      44.909   3.742  11.063  0.00  0.00    +0.000 A 
ATOM      3  C   UNL     1      45.297   4.251  12.306  0.00  0.00    +0.000 A 
ATOM      4  C   UNL     1      45.933   5.495  12.399  0.00  0.00    +0.000 A 
ATOM      5  C   UNL     1      46.243   6.183  11.218  0.00  0.00    +0.000 A 
ATOM      6  C   UNL     1      45.853   5.675   9.976  0.00  0.00    +0.000 A 
ENDROOT
BRANCH   1   7
ATOM      7  C   UNL     1      44.676   3.945   8.550  0.00  0.00    +0.000 C 
BRANCH   7  12
ATOM      8  C   UNL     1      47.260   2.478   6.134  0.00  0.00    +0.000 A 
ATOM      9  C   UNL     1      47.445   1.209   6.686  0.00  0.00    +0.000 A 
ATOM     10  C   UNL     1      46.680   0.792   7.777  0.00  0.00    +0.000 A 
ATOM     11  C   UNL     1      45.762   1.664   8.363  0.00  0.00    +0.000 A 
ATOM     12  C   UNL     1      45.620   2.971   7.880  0.00  0.00    +0.000 A 
ATOM     13  C   UNL     1      46.385   3.365   6.767  0.00  0.00    +0.000 A 
BRANCH   8  14
ATOM     14  N   UNL     1      48.110   2.933   5.116  0.00  0.00    +0.000 N 
ATOM     15  H   UNL     1      48.563   2.183   4.603  0.00  0.00    +0.000 HD
ATOM     16  H   UNL     1      47.670   3.606   4.496  0.00  0.00    +0.000 HD
ENDBRANCH   8  14
ENDBRANCH   7  12
ENDBRANCH   1   7
BRANCH   4  17
ATOM     17  C   UNL     1      46.288   6.085  13.739  0.00  0.00    +0.000 C 
BRANCH  17  18
ATOM     18  N   UNL     1      46.984   7.334  13.600  0.00  0.00    +0.000 N 
ATOM     19  C   UNL     1      48.332   7.428  13.839  0.00  0.00    +0.000 C 
ATOM     20  O   UNL     1      49.011   6.450  14.140  0.00  0.00    +0.000 OA
ATOM     21  H   UNL     1      46.418   8.178  13.593  0.00  0.00    +0.000 HD
BRANCH  19  22
ATOM     22  C   UNL     1      48.937   8.751  13.648  0.00  0.00    +0.000 A 
ATOM     23  C   UNL     1      48.599   9.795  14.498  0.00  0.00    +0.000 A 
ATOM     24  S   UNL     1      49.456  11.236  14.187  0.00  0.00    +0.000 S 
ATOM     25  C   UNL     1      50.267  10.532  12.866  0.00  0.00    +0.000 A 
ATOM     26  N   UNL     1      51.159  11.248  12.129  0.00  0.00    +0.000 NA
ATOM     27  C   UNL     1      51.670  10.600  11.136  0.00  0.00    +0.000 A 
ATOM     28  N   UNL     1      51.370   9.303  10.810  0.00  0.00    +0.000 N 
ATOM     29  C   UNL     1      50.499   8.532  11.543  0.00  0.00    +0.000 A 
ATOM     30  O   UNL     1      50.284   7.360  11.248  0.00  0.00    +0.000 OA
ATOM     31  C   UNL     1      49.893   9.214  12.670  0.00  0.00    +0.000 A 
ATOM     32  H   UNL     1      51.807   8.852  10.021  0.00  0.00    +0.000 HD
ENDBRANCH  19  22
ENDBRANCH  17  18
ENDBRANCH   4  17
TORSDOF 6
ENDMDL
MODEL 5
REMARK VINA RESULT:    -7.491      2.070      2.943
REMARK INTER + INTRA:         -10.949
REMARK INTER:                 -10.360
REMARK INTRA:                  -0.589
REMARK UNBOUND:                -1.050
REMARK  Name = 
REMARK  6 active torsions:
REMARK  status: ('A' for Active; 'I' for Inactive)
REMARK    1  A    between atoms: N_1  and  C_2
REMARK    2  A    between atoms: C_6  and  C_7
REMARK    3  A    between atoms: C_7  and  C_8
REMARK    4  A    between atoms: C_11  and  C_12
REMARK    5  A    between atoms: C_12  and  N_13
REMARK    6  A    between atoms: C_14  and  C_16
REMARK                            x       y       z     vdW  Elec       q    Type
REMARK                         _______ _______ _______ _____ _____    ______ ____
ROOT
ATOM      1  C   UNL     1      45.332   4.459  10.411  0.00  0.00    +0.000 A 
ATOM      2  C   UNL     1      45.105   3.416  11.319  0.00  0.00    +0.000 A 
ATOM      3  C   UNL     1      45.328   3.601  12.687  0.00  0.00    +0.000 A 
ATOM      4  C   UNL     1      45.769   4.837  13.177  0.00  0.00    +0.000 A 
ATOM      5  C   UNL     1      46.056   5.859  12.263  0.00  0.00    +0.000 A 
ATOM      6  C   UNL     1      45.830   5.675  10.896  0.00  0.00    +0.000 A 
ENDROOT
BRANCH   1   7
ATOM      7  C   UNL     1      45.018   4.285   8.942  0.00  0.00    +0.000 C 
BRANCH   7  12
ATOM      8  C   UNL     1      47.435   2.361   6.678  0.00  0.00    +0.000 A 
ATOM      9  C   UNL     1      47.220   1.054   7.115  0.00  0.00    +0.000 A 
ATOM     10  C   UNL     1      46.241   0.778   8.072  0.00  0.00    +0.000 A 
ATOM     11  C   UNL     1      45.506   1.817   8.642  0.00  0.00    +0.000 A 
ATOM     12  C   UNL     1      45.762   3.146   8.281  0.00  0.00    +0.000 A 
ATOM     13  C   UNL     1      46.738   3.401   7.301  0.00  0.00    +0.000 A 
BRANCH   8  14
ATOM     14  N   UNL     1      48.496   2.647   5.807  0.00  0.00    +0.000 N 
ATOM     15  H   UNL     1      48.204   2.764   4.841  0.00  0.00    +0.000 HD
ATOM     16  H   UNL     1      49.080   3.414   6.124  0.00  0.00    +0.000 HD
ENDBRANCH   8  14
ENDBRANCH   7  12
ENDBRANCH   1   7
BRANCH   4  17
ATOM     17  C   UNL     1      45.941   5.066  14.656  0.00  0.00    +0.000 C 
BRANCH  17  18
ATOM     18  N   UNL     1      47.199   4.557  15.126  0.00  0.00    +0.000 N 
ATOM     19  C   UNL     1      47.304   3.933  16.344  0.00  0.00    +0.000 C 
ATOM     20  O   UNL     1      46.328   3.743  17.066  0.00  0.00    +0.000 OA
ATOM     21  H   UNL     1      48.037   4.911  14.673  0.00  0.00    +0.000 HD
BRANCH  19  22
ATOM     22  C   UNL     1      48.636   3.440  16.711  0.00  0.00    +0.000 A 
ATOM     23  C   UNL     1      48.963   2.108  16.498  0.00  0.00    +0.000 A 
ATOM     24  S   UNL     1      50.576   1.727  16.902  0.00  0.00    +0.000 S 
ATOM     25  C   UNL     1      50.876   3.316  17.432  0.00  0.00    +0.000 A 
ATOM     26  N   UNL     1      52.093   3.670  17.929  0.00  0.00    +0.000 NA
ATOM     27  C   UNL     1      52.167   4.896  18.327  0.00  0.00    +0.000 A 
ATOM     28  N   UNL     1      51.138   5.800  18.277  0.00  0.00    +0.000 N 
ATOM     29  C   UNL     1      49.902   5.495  17.757  0.00  0.00    +0.000 A 
ATOM     30  O   UNL     1      49.015   6.340  17.688  0.00  0.00    +0.000 OA
ATOM     31  C   UNL     1      49.764   4.127  17.296  0.00  0.00    +0.000 A 
ATOM     32  H   UNL     1      51.263   6.746  18.603  0.00  0.00    +0.000 HD
ENDBRANCH  19  22
ENDBRANCH  17  18
ENDBRANCH   4  17
TORSDOF 6
ENDMDL
MODEL 6
REMARK VINA RESULT:    -7.465      2.814      4.033
REMARK INTER + INTRA:         -10.914
REMARK INTER:                 -10.009
REMARK INTRA:                  -0.905
REMARK UNBOUND:                -1.050
REMARK  Name = 
REMARK  6 active torsions:
REMARK  status: ('A' for Active; 'I' for Inactive)
REMARK    1  A    between atoms: N_1  and  C_2
REMARK    2  A    between atoms: C_6  and  C_7
REMARK    3  A    between atoms: C_7  and  C_8
REMARK    4  A    between atoms: C_11  and  C_12
REMARK    5  A    between atoms: C_12  and  N_13
REMARK    6  A    between atoms: C_14  and  C_16
REMARK                            x       y       z     vdW  Elec       q    Type
REMARK                         _______ _______ _______ _____ _____    ______ ____
ROOT
ATOM      1  C   UNL     1      45.099   4.408   9.869  0.00  0.00    +0.000 A 
ATOM      2  C   UNL     1      44.839   3.661  11.026  0.00  0.00    +0.000 A 
ATOM      3  C   UNL     1      45.198   4.149  12.285  0.00  0.00    +0.000 A 
ATOM      4  C   UNL     1      45.811   5.402  12.415  0.00  0.00    +0.000 A 
ATOM      5  C   UNL     1      46.127   6.121  11.255  0.00  0.00    +0.000 A 
ATOM      6  C   UNL     1      45.766   5.633   9.996  0.00  0.00    +0.000 A 
ENDROOT
BRANCH   1   7
ATOM      7  C   UNL     1      44.642   3.915   8.514  0.00  0.00    +0.000 C 
BRANCH   7  12
ATOM      8  C   UNL     1      47.254   2.469   6.116  0.00  0.00    +0.000 A 
ATOM      9  C   UNL     1      47.449   1.204   6.671  0.00  0.00    +0.000 A 
ATOM     10  C   UNL     1      46.682   0.781   7.759  0.00  0.00    +0.000 A 
ATOM     11  C   UNL     1      45.752   1.645   8.338  0.00  0.00    +0.000 A 
ATOM     12  C   UNL     1      45.599   2.950   7.851  0.00  0.00    +0.000 A 
ATOM     13  C   UNL     1      46.366   3.349   6.742  0.00  0.00    +0.000 A 
BRANCH   8  14
ATOM     14  N   UNL     1      48.106   2.932   5.101  0.00  0.00    +0.000 N 
ATOM     15  H   UNL     1      48.169   2.299   4.309  0.00  0.00    +0.000 HD
ATOM     16  H   UNL     1      47.906   3.884   4.813  0.00  0.00    +0.000 HD
ENDBRANCH   8  14
ENDBRANCH   7  12
ENDBRANCH   1   7
BRANCH   4  17
ATOM     17  C   UNL     1      46.134   5.969  13.773  0.00  0.00    +0.000 C 
BRANCH  17  18
ATOM     18  N   UNL     1      46.775   7.250  13.673  0.00  0.00    +0.000 N 
ATOM     19  C   UNL     1      48.113   7.400  13.938  0.00  0.00    +0.000 C 
ATOM     20  O   UNL     1      48.831   6.448  14.230  0.00  0.00    +0.000 OA
ATOM     21  H   UNL     1      46.172   8.068  13.674  0.00  0.00    +0.000 HD
BRANCH  19  22
ATOM     22  C   UNL     1      48.660   8.753  13.786  0.00  0.00    +0.000 A 
ATOM     23  C   UNL     1      49.043   9.207  12.532  0.00  0.00    +0.000 A 
ATOM     24  S   UNL     1      49.576  10.827  12.524  0.00  0.00    +0.000 S 
ATOM     25  C   UNL     1      49.369  10.960  14.208  0.00  0.00    +0.000 A 
ATOM     26  N   UNL     1      49.666  12.117  14.861  0.00  0.00    +0.000 NA
ATOM     27  C   UNL     1      49.497  12.064  16.140  0.00  0.00    +0.000 A 
ATOM     28  N   UNL     1      49.060  10.962  16.826  0.00  0.00    +0.000 N 
ATOM     29  C   UNL     1      48.719   9.783  16.206  0.00  0.00    +0.000 A 
ATOM     30  O   UNL     1      48.290   8.827  16.847  0.00  0.00    +0.000 OA
ATOM     31  C   UNL     1      48.894   9.788  14.767  0.00  0.00    +0.000 A 
ATOM     32  H   UNL     1      48.946  10.987  17.828  0.00  0.00    +0.000 HD
ENDBRANCH  19  22
ENDBRANCH  17  18
ENDBRANCH   4  17
TORSDOF 6
ENDMDL
MODEL 7
REMARK VINA RESULT:    -7.066      4.273      9.030
REMARK INTER + INTRA:         -10.388
REMARK INTER:                  -9.727
REMARK INTRA:                  -0.661
REMARK UNBOUND:                -1.050
REMARK  Name = 
REMARK  6 active torsions:
REMARK  status: ('A' for Active; 'I' for Inactive)
REMARK    1  A    between atoms: N_1  and  C_2
REMARK    2  A    between atoms: C_6  and  C_7
REMARK    3  A    between atoms: C_7  and  C_8
REMARK    4  A    between atoms: C_11  and  C_12
REMARK    5  A    between atoms: C_12  and  N_13
REMARK    6  A    between atoms: C_14  and  C_16
REMARK                            x       y       z     vdW  Elec       q    Type
REMARK                         _______ _______ _______ _____ _____    ______ ____
ROOT
ATOM      1  C   UNL     1      51.575   3.175  17.780  0.00  0.00    +0.000 A 
ATOM      2  C   UNL     1      50.851   4.363  17.947  0.00  0.00    +0.000 A 
ATOM      3  C   UNL     1      49.486   4.414  17.648  0.00  0.00    +0.000 A 
ATOM      4  C   UNL     1      48.814   3.272  17.191  0.00  0.00    +0.000 A 
ATOM      5  C   UNL     1      49.551   2.103  16.966  0.00  0.00    +0.000 A 
ATOM      6  C   UNL     1      50.915   2.052  17.267  0.00  0.00    +0.000 A 
ENDROOT
BRANCH   1   7
ATOM      7  C   UNL     1      53.033   3.100  18.176  0.00  0.00    +0.000 C 
BRANCH   7  12
ATOM      8  C   UNL     1      54.046  -0.593  18.087  0.00  0.00    +0.000 A 
ATOM      9  C   UNL     1      54.901  -0.604  16.984  0.00  0.00    +0.000 A 
ATOM     10  C   UNL     1      55.222   0.583  16.323  0.00  0.00    +0.000 A 
ATOM     11  C   UNL     1      54.643   1.787  16.726  0.00  0.00    +0.000 A 
ATOM     12  C   UNL     1      53.716   1.811  17.776  0.00  0.00    +0.000 A 
ATOM     13  C   UNL     1      53.422   0.607  18.442  0.00  0.00    +0.000 A 
BRANCH   8  14
ATOM     14  N   UNL     1      53.636  -1.800  18.673  0.00  0.00    +0.000 N 
ATOM     15  H   UNL     1      54.408  -2.368  19.007  0.00  0.00    +0.000 HD
ATOM     16  H   UNL     1      52.917  -1.679  19.379  0.00  0.00    +0.000 HD
ENDBRANCH   8  14
ENDBRANCH   7  12
ENDBRANCH   1   7
BRANCH   4  17
ATOM     17  C   UNL     1      47.329   3.298  16.937  0.00  0.00    +0.000 C 
BRANCH  17  18
ATOM     18  N   UNL     1      46.970   4.334  16.009  0.00  0.00    +0.000 N 
ATOM     19  C   UNL     1      46.981   4.112  14.655  0.00  0.00    +0.000 C 
ATOM     20  O   UNL     1      47.255   3.015  14.176  0.00  0.00    +0.000 OA
ATOM     21  H   UNL     1      46.978   5.288  16.359  0.00  0.00    +0.000 HD
BRANCH  19  22
ATOM     22  C   UNL     1      46.579   5.240  13.807  0.00  0.00    +0.000 A 
ATOM     23  C   UNL     1      47.426   6.330  13.658  0.00  0.00    +0.000 A 
ATOM     24  S   UNL     1      46.840   7.508  12.573  0.00  0.00    +0.000 S 
ATOM     25  C   UNL     1      45.405   6.630  12.310  0.00  0.00    +0.000 A 
ATOM     26  N   UNL     1      44.439   7.102  11.475  0.00  0.00    +0.000 NA
ATOM     27  C   UNL     1      43.391   6.352  11.399  0.00  0.00    +0.000 A 
ATOM     28  N   UNL     1      43.218   5.176  12.081  0.00  0.00    +0.000 N 
ATOM     29  C   UNL     1      44.178   4.646  12.910  0.00  0.00    +0.000 A 
ATOM     30  O   UNL     1      44.009   3.569  13.474  0.00  0.00    +0.000 OA
ATOM     31  C   UNL     1      45.377   5.452  13.034  0.00  0.00    +0.000 A 
ATOM     32  H   UNL     1      42.373   4.635  11.975  0.00  0.00    +0.000 HD
ENDBRANCH  19  22
ENDBRANCH  17  18
ENDBRANCH   4  17
TORSDOF 6
ENDMDL
MODEL 8
REMARK VINA RESULT:    -7.006      2.707      3.461
REMARK INTER + INTRA:         -10.308
REMARK INTER:                  -9.221
REMARK INTRA:                  -1.087
REMARK UNBOUND:                -1.050
REMARK  Name = 
REMARK  6 active torsions:
REMARK  status: ('A' for Active; 'I' for Inactive)
REMARK    1  A    between atoms: N_1  and  C_2
REMARK    2  A    between atoms: C_6  and  C_7
REMARK    3  A    between atoms: C_7  and  C_8
REMARK    4  A    between atoms: C_11  and  C_12
REMARK    5  A    between atoms: C_12  and  N_13
REMARK    6  A    between atoms: C_14  and  C_16
REMARK                            x       y       z     vdW  Elec       q    Type
REMARK                         _______ _______ _______ _____ _____    ______ ____
ROOT
ATOM      1  C   UNL     1      45.440   4.873  11.961  0.00  0.00    +0.000 A 
ATOM      2  C   UNL     1      45.638   6.257  11.866  0.00  0.00    +0.000 A 
ATOM      3  C   UNL     1      46.554   6.905  12.699  0.00  0.00    +0.000 A 
ATOM      4  C   UNL     1      47.303   6.181  13.636  0.00  0.00    +0.000 A 
ATOM      5  C   UNL     1      47.060   4.808  13.774  0.00  0.00    +0.000 A 
ATOM      6  C   UNL     1      46.146   4.159  12.939  0.00  0.00    +0.000 A 
ENDROOT
BRANCH   1   7
ATOM      7  C   UNL     1      44.507   4.160  11.009  0.00  0.00    +0.000 C 
BRANCH   7  12
ATOM      8  C   UNL     1      46.010   1.881   8.322  0.00  0.00    +0.000 A 
ATOM      9  C   UNL     1      46.299   2.811   7.321  0.00  0.00    +0.000 A 
ATOM     10  C   UNL     1      46.093   4.174   7.539  0.00  0.00    +0.000 A 
ATOM     11  C   UNL     1      45.542   4.616   8.742  0.00  0.00    +0.000 A 
ATOM     12  C   UNL     1      45.166   3.696   9.729  0.00  0.00    +0.000 A 
ATOM     13  C   UNL     1      45.400   2.328   9.498  0.00  0.00    +0.000 A 
BRANCH   8  14
ATOM     14  N   UNL     1      46.107   0.507   8.057  0.00  0.00    +0.000 N 
ATOM     15  H   UNL     1      46.718   0.290   7.274  0.00  0.00    +0.000 HD
ATOM     16  H   UNL     1      46.330  -0.045   8.879  0.00  0.00    +0.000 HD
ENDBRANCH   8  14
ENDBRANCH   7  12
ENDBRANCH   1   7
BRANCH   4  17
ATOM     17  C   UNL     1      48.344   6.859  14.486  0.00  0.00    +0.000 C 
BRANCH  17  18
ATOM     18  N   UNL     1      48.134   6.604  15.884  0.00  0.00    +0.000 N 
ATOM     19  C   UNL     1      49.141   6.114  16.677  0.00  0.00    +0.000 C 
ATOM     20  O   UNL     1      50.273   5.914  16.245  0.00  0.00    +0.000 OA
ATOM     21  H   UNL     1      47.171   6.530  16.198  0.00  0.00    +0.000 HD
BRANCH  19  22
ATOM     22  C   UNL     1      48.814   5.909  18.092  0.00  0.00    +0.000 A 
ATOM     23  C   UNL     1      49.043   4.673  18.683  0.00  0.00    +0.000 A 
ATOM     24  S   UNL     1      48.686   4.635  20.350  0.00  0.00    +0.000 S 
ATOM     25  C   UNL     1      48.155   6.252  20.329  0.00  0.00    +0.000 A 
ATOM     26  N   UNL     1      47.690   6.851  21.459  0.00  0.00    +0.000 NA
ATOM     27  C   UNL     1      47.287   8.066  21.288  0.00  0.00    +0.000 A 
ATOM     28  N   UNL     1      47.304   8.736  20.093  0.00  0.00    +0.000 N 
ATOM     29  C   UNL     1      47.792   8.182  18.934  0.00  0.00    +0.000 A 
ATOM     30  O   UNL     1      47.831   8.824  17.888  0.00  0.00    +0.000 OA
ATOM     31  C   UNL     1      48.256   6.815  19.069  0.00  0.00    +0.000 A 
ATOM     32  H   UNL     1      46.976   9.688  20.028  0.00  0.00    +0.000 HD
ENDBRANCH  19  22
ENDBRANCH  17  18
ENDBRANCH   4  17
TORSDOF 6
ENDMDL
MODEL 9
REMARK VINA RESULT:    -6.830      2.589      3.696
REMARK INTER + INTRA:         -10.076
REMARK INTER:                  -8.603
REMARK INTRA:                  -1.473
REMARK UNBOUND:                -1.050
REMARK  Name = 
REMARK  6 active torsions:
REMARK  status: ('A' for Active; 'I' for Inactive)
REMARK    1  A    between atoms: N_1  and  C_2
REMARK    2  A    between atoms: C_6  and  C_7
REMARK    3  A    between atoms: C_7  and  C_8
REMARK    4  A    between atoms: C_11  and  C_12
REMARK    5  A    between atoms: C_12  and  N_13
REMARK    6  A    between atoms: C_14  and  C_16
REMARK                            x       y       z     vdW  Elec       q    Type
REMARK                         _______ _______ _______ _____ _____    ______ ____
ROOT
ATOM      1  C   UNL     1      45.956   7.431  11.821  0.00  0.00    +0.000 A 
ATOM      2  C   UNL     1      47.167   6.728  11.769  0.00  0.00    +0.000 A 
ATOM      3  C   UNL     1      48.268   7.146  12.522  0.00  0.00    +0.000 A 
ATOM      4  C   UNL     1      48.175   8.268  13.357  0.00  0.00    +0.000 A 
ATOM      5  C   UNL     1      46.984   9.006  13.362  0.00  0.00    +0.000 A 
ATOM      6  C   UNL     1      45.883   8.586  12.610  0.00  0.00    +0.000 A 
ENDROOT
BRANCH   1   7
ATOM      7  C   UNL     1      44.743   6.935  11.067  0.00  0.00    +0.000 C 
BRANCH   7  12
ATOM      8  C   UNL     1      44.067   3.172  10.832  0.00  0.00    +0.000 A 
ATOM      9  C   UNL     1      43.627   2.903  12.128  0.00  0.00    +0.000 A 
ATOM     10  C   UNL     1      43.465   3.938  13.052  0.00  0.00    +0.000 A 
ATOM     11  C   UNL     1      43.796   5.246  12.701  0.00  0.00    +0.000 A 
ATOM     12  C   UNL     1      44.319   5.529  11.433  0.00  0.00    +0.000 A 
ATOM     13  C   UNL     1      44.455   4.476  10.511  0.00  0.00    +0.000 A 
BRANCH   8  14
ATOM     14  N   UNL     1      44.340   2.118   9.947  0.00  0.00    +0.000 N 
ATOM     15  H   UNL     1      43.767   2.137   9.109  0.00  0.00    +0.000 HD
ATOM     16  H   UNL     1      45.327   2.020   9.732  0.00  0.00    +0.000 HD
ENDBRANCH   8  14
ENDBRANCH   7  12
ENDBRANCH   1   7
BRANCH   4  17
ATOM     17  C   UNL     1      49.332   8.681  14.228  0.00  0.00    +0.000 C 
BRANCH  17  18
ATOM     18  N   UNL     1      49.436   7.852  15.397  0.00  0.00    +0.000 N 
ATOM     19  C   UNL     1      48.814   8.195  16.571  0.00  0.00    +0.000 C 
ATOM     20  O   UNL     1      48.108   9.195  16.667  0.00  0.00    +0.000 OA
ATOM     21  H   UNL     1      50.191   7.172  15.412  0.00  0.00    +0.000 HD
BRANCH  19  22
ATOM     22  C   UNL     1      48.978   7.263  17.691  0.00  0.00    +0.000 A 
ATOM     23  C   UNL     1      49.427   7.730  18.920  0.00  0.00    +0.000 A 
ATOM     24  S   UNL     1      49.479   6.529  20.130  0.00  0.00    +0.000 S 
ATOM     25  C   UNL     1      48.961   5.330  19.039  0.00  0.00    +0.000 A 
ATOM     26  N   UNL     1      48.808   4.038  19.440  0.00  0.00    +0.000 NA
ATOM     27  C   UNL     1      48.446   3.230  18.500  0.00  0.00    +0.000 A 
ATOM     28  N   UNL     1      48.224   3.593  17.198  0.00  0.00    +0.000 N 
ATOM     29  C   UNL     1      48.336   4.890  16.755  0.00  0.00    +0.000 A 
ATOM     30  O   UNL     1      48.090   5.188  15.590  0.00  0.00    +0.000 OA
ATOM     31  C   UNL     1      48.744   5.840  17.772  0.00  0.00    +0.000 A 
ATOM     32  H   UNL     1      47.940   2.911  16.511  0.00  0.00    +0.000 HD
ENDBRANCH  19  22
ENDBRANCH  17  18
ENDBRANCH   4  17
TORSDOF 6
ENDMDL
