MODEL 1
REMARK VINA RESULT:    -7.643      0.000      0.000
REMARK INTER + INTRA:         -14.243
REMARK INTER:                 -12.781
REMARK INTRA:                  -1.462
REMARK UNBOUND:                -1.462
REMARK  Name = 
REMARK  13 active torsions:
REMARK  status: ('A' for Active; 'I' for Inactive)
REMARK    1  A    between atoms: C_1  and  C_2
REMARK    2  A    between atoms: C_2  and  C_3
REMARK    3  A    between atoms: C_3  and  C_4
REMARK    4  A    between atoms: C_4  and  N_5
REMARK    5  A    between atoms: C_4  and  C_24
REMARK    6  A    between atoms: N_5  and  C_6
REMARK    7  A    between atoms: C_6  and  C_7
REMARK    8  A    between atoms: C_10  and  C_11
REMARK    9  A    between atoms: C_11  and  N_12
REMARK   10  A    between atoms: N_12  and  CA_13
REMARK   11  A    between atoms: CA_13  and  C_14
REMARK   12  A    between atoms: CA_13  and  C_16
REMARK   13  A    between atoms: C_14  and  O_15
REMARK                            x       y       z     vdW  Elec       q    Type
REMARK                         _______ _______ _______ _____ _____    ______ ____
ROOT
ATOM      1  C   UNL     1      47.259   6.202  13.510  0.00  0.00    +0.000 A 
ATOM      2  C   UNL     1      47.247   6.811  12.250  0.00  0.00    +0.000 A 
ATOM      3  C   UNL     1      46.217   6.544  11.342  0.00  0.00    +0.000 A 
ATOM      4  C   UNL     1      45.185   5.652  11.666  0.00  0.00    +0.000 A 
ATOM      5  C   UNL     1      45.195   5.040  12.924  0.00  0.00    +0.000 A 
ATOM      6  C   UNL     1      46.220   5.313  13.833  0.00  0.00    +0.000 A 
ENDROOT
BRANCH   1   7
ATOM      7  C   UNL     1      48.420   6.357  14.466  0.00  0.00    +0.000 C 
BRANCH   7   8
ATOM      8  N   UNL     1      48.495   5.344  15.521  0.00  0.00    +0.000 NA
ATOM      9  H   UNL     1      47.625   4.820  15.555  0.00  0.00    +0.000 HD
BRANCH   8  10
ATOM     10  C   UNL     1      48.772   5.891  16.871  0.00  0.00    +0.000 C 
BRANCH  10  11
ATOM     11  C   UNL     1      50.056   5.244  17.403  0.00  0.00    +0.000 A 
ATOM     12  C   UNL     1      51.156   5.962  17.862  0.00  0.00    +0.000 A 
ATOM     13  S   UNL     1      52.522   5.002  18.185  0.00  0.00    +0.000 S 
ATOM     14  C   UNL     1      51.686   3.583  17.779  0.00  0.00    +0.000 A 
ATOM     15  N   UNL     1      52.318   2.380  17.790  0.00  0.00    +0.000 NA
ATOM     16  C   UNL     1      51.569   1.386  17.451  0.00  0.00    +0.000 A 
ATOM     17  N   UNL     1      50.240   1.482  17.127  0.00  0.00    +0.000 N 
ATOM     18  C   UNL     1      49.530   2.669  17.172  0.00  0.00    +0.000 A 
ATOM     19  O   UNL     1      48.313   2.692  17.058  0.00  0.00    +0.000 OA
ATOM     20  C   UNL     1      50.359   3.832  17.450  0.00  0.00    +0.000 A 
ATOM     21  H   UNL     1      49.693   0.652  16.947  0.00  0.00    +0.000 HD
ENDBRANCH  10  11
BRANCH  10  22
ATOM     22  C   UNL     1      48.834   7.443  16.930  0.00  0.00    +0.000 C 
BRANCH  22  24
ATOM     23  C   UNL     1      47.463   7.242  19.083  0.00  0.00    +0.000 C 
ATOM     24  C   UNL     1      48.278   8.142  18.174  0.00  0.00    +0.000 C 
ENDBRANCH  22  24
ENDBRANCH  10  22
ENDBRANCH   8  10
ENDBRANCH   7   8
ENDBRANCH   1   7
BRANCH   4  25
ATOM     25  C   UNL     1      44.046   5.401  10.705  0.00  0.00    +0.000 C 
BRANCH  25  26
ATOM     26  N   UNL     1      44.503   4.754   9.471  0.00  0.00    +0.000 NA
ATOM     27  H   UNL     1      45.254   5.327   9.078  0.00  0.00    +0.000 HD
BRANCH  26  28
ATOM     28  CA  UNL     1      45.059   3.403   9.719  0.00  0.00    +0.000 C 
BRANCH  28  29
ATOM     29  C   UNL     1      45.812   2.922   8.480  0.00  0.00    +0.000 A 
ATOM     30  C   UNL     1      46.160   1.569   8.340  0.00  0.00    +0.000 A 
ATOM     31  C   UNL     1      46.842   1.122   7.204  0.00  0.00    +0.000 A 
ATOM     32  C   UNL     1      47.186   2.017   6.193  0.00  0.00    +0.000 A 
ATOM     33  C   UNL     1      46.854   3.361   6.318  0.00  0.00    +0.000 A 
ATOM     34  C   UNL     1      46.176   3.811   7.453  0.00  0.00    +0.000 A 
ENDBRANCH  28  29
BRANCH  28  35
ATOM     35  C   UNL     1      43.963   2.384  10.142  0.00  0.00    +0.000 C 
BRANCH  35  36
ATOM     36  O   UNL     1      43.915   2.197  11.559  0.00  0.00    +0.000 OA
ATOM     37  H   UNL     1      43.851   3.098  11.933  0.00  0.00    +0.000 HD
ENDBRANCH  35  36
ENDBRANCH  28  35
ENDBRANCH  26  28
ENDBRANCH  25  26
ENDBRANCH   4  25
TORSDOF 12
ENDMDL
MODEL 2
REMARK VINA RESULT:    -7.411      2.055      3.005
REMARK INTER + INTRA:         -13.856
REMARK INTER:                 -12.391
REMARK INTRA:                  -1.465
REMARK UNBOUND:                -1.462
REMARK  Name = 
REMARK  13 active torsions:
REMARK  status: ('A' for Active; 'I' for Inactive)
REMARK    1  A    between atoms: C_1  and  C_2
REMARK    2  A    between atoms: C_2  and  C_3
REMARK    3  A    between atoms: C_3  and  C_4
REMARK    4  A    between atoms: C_4  and  N_5
REMARK    5  A    between atoms: C_4  and  C_24
REMARK    6  A    between atoms: N_5  and  C_6
REMARK    7  A    between atoms: C_6  and  C_7
REMARK    8  A    between atoms: C_10  and  C_11
REMARK    9  A    between atoms: C_11  and  N_12
REMARK   10  A    between atoms: N_12  and  CA_13
REMARK   11  A    between atoms: CA_13  and  C_14
REMARK   12  A    between atoms: CA_13  and  C_16
REMARK   13  A    between atoms: C_14  and  O_15
REMARK                            x       y       z     vdW  Elec       q    Type
REMARK                         _______ _______ _______ _____ _____    ______ ____
ROOT
ATOM      1  C   UNL     1      47.339   6.335  13.046  0.00  0.00    +0.000 A 
ATOM      2  C   UNL     1      46.370   5.527  13.652  0.00  0.00    +0.000 A 
ATOM      3  C   UNL     1      45.083   5.438  13.113  0.00  0.00    +0.000 A 
ATOM      4  C   UNL     1      44.730   6.165  11.966  0.00  0.00    +0.000 A 
ATOM      5  C   UNL     1      45.696   6.975  11.360  0.00  0.00    +0.000 A 
ATOM      6  C   UNL     1      46.984   7.058  11.895  0.00  0.00    +0.000 A 
ENDROOT
BRANCH   1   7
ATOM      7  C   UNL     1      48.697   6.565  13.671  0.00  0.00    +0.000 C 
BRANCH   7   8
ATOM      8  N   UNL     1      48.801   6.199  15.085  0.00  0.00    +0.000 NA
ATOM      9  H   UNL     1      47.873   6.028  15.462  0.00  0.00    +0.000 HD
BRANCH   8  10
ATOM     10  C   UNL     1      49.476   7.215  15.928  0.00  0.00    +0.000 C 
BRANCH  10  11
ATOM     11  C   UNL     1      48.844   7.184  17.324  0.00  0.00    +0.000 A 
ATOM     12  C   UNL     1      48.255   8.286  17.936  0.00  0.00    +0.000 A 
ATOM     13  S   UNL     1      47.833   8.030  19.564  0.00  0.00    +0.000 S 
ATOM     14  C   UNL     1      48.367   6.421  19.504  0.00  0.00    +0.000 A 
ATOM     15  N   UNL     1      48.336   5.640  20.615  0.00  0.00    +0.000 NA
ATOM     16  C   UNL     1      48.780   4.442  20.431  0.00  0.00    +0.000 A 
ATOM     17  N   UNL     1      49.229   3.949  19.233  0.00  0.00    +0.000 N 
ATOM     18  C   UNL     1      49.214   4.677  18.057  0.00  0.00    +0.000 A 
ATOM     19  O   UNL     1      49.445   4.153  16.977  0.00  0.00    +0.000 OA
ATOM     20  C   UNL     1      48.816   6.065  18.238  0.00  0.00    +0.000 A 
ATOM     21  H   UNL     1      49.491   2.977  19.143  0.00  0.00    +0.000 HD
ENDBRANCH  10  11
BRANCH  10  22
ATOM     22  C   UNL     1      51.023   7.072  15.985  0.00  0.00    +0.000 C 
BRANCH  22  24
ATOM     23  C   UNL     1      51.074   9.308  14.738  0.00  0.00    +0.000 C 
ATOM     24  C   UNL     1      51.875   8.181  15.363  0.00  0.00    +0.000 C 
ENDBRANCH  22  24
ENDBRANCH  10  22
ENDBRANCH   8  10
ENDBRANCH   7   8
ENDBRANCH   1   7
BRANCH   4  25
ATOM     25  C   UNL     1      43.355   6.031  11.356  0.00  0.00    +0.000 C 
BRANCH  25  26
ATOM     26  N   UNL     1      43.304   4.972  10.344  0.00  0.00    +0.000 NA
ATOM     27  H   UNL     1      43.674   5.356   9.471  0.00  0.00    +0.000 HD
BRANCH  26  28
ATOM     28  CA  UNL     1      44.147   3.808  10.707  0.00  0.00    +0.000 C 
BRANCH  28  29
ATOM     29  C   UNL     1      45.004   3.401   9.510  0.00  0.00    +0.000 A 
ATOM     30  C   UNL     1      45.521   4.375   8.641  0.00  0.00    +0.000 A 
ATOM     31  C   UNL     1      46.314   4.008   7.549  0.00  0.00    +0.000 A 
ATOM     32  C   UNL     1      46.603   2.667   7.310  0.00  0.00    +0.000 A 
ATOM     33  C   UNL     1      46.095   1.689   8.157  0.00  0.00    +0.000 A 
ATOM     34  C   UNL     1      45.300   2.052   9.246  0.00  0.00    +0.000 A 
ENDBRANCH  28  29
BRANCH  28  35
ATOM     35  C   UNL     1      43.303   2.610  11.228  0.00  0.00    +0.000 C 
BRANCH  35  36
ATOM     36  O   UNL     1      43.661   2.234  12.560  0.00  0.00    +0.000 OA
ATOM     37  H   UNL     1      43.442   1.283  12.625  0.00  0.00    +0.000 HD
ENDBRANCH  35  36
ENDBRANCH  28  35
ENDBRANCH  26  28
ENDBRANCH  25  26
ENDBRANCH   4  25
TORSDOF 12
ENDMDL
MODEL 3
REMARK VINA RESULT:    -7.341      2.586      4.273
REMARK INTER + INTRA:         -13.740
REMARK INTER:                 -12.495
REMARK INTRA:                  -1.245
REMARK UNBOUND:                -1.462
REMARK  Name = 
REMARK  13 active torsions:
REMARK  status: ('A' for Active; 'I' for Inactive)
REMARK    1  A    between atoms: C_1  and  C_2
REMARK    2  A    between atoms: C_2  and  C_3
REMARK    3  A    between atoms: C_3  and  C_4
REMARK    4  A    between atoms: C_4  and  N_5
REMARK    5  A    between atoms: C_4  and  C_24
REMARK    6  A    between atoms: N_5  and  C_6
REMARK    7  A    between atoms: C_6  and  C_7
REMARK    8  A    between atoms: C_10  and  C_11
REMARK    9  A    between atoms: C_11  and  N_12
REMARK   10  A    between atoms: N_12  and  CA_13
REMARK   11  A    between atoms: CA_13  and  C_14
REMARK   12  A    between atoms: CA_13  and  C_16
REMARK   13  A    between atoms: C_14  and  O_15
REMARK                            x       y       z     vdW  Elec       q    Type
REMARK                         _______ _______ _______ _____ _____    ______ ____
ROOT
ATOM      1  C   UNL     1      47.028   5.971  13.090  0.00  0.00    +0.000 A 
ATOM      2  C   UNL     1      45.981   5.177  13.572  0.00  0.00    +0.000 A 
ATOM      3  C   UNL     1      44.861   4.919  12.776  0.00  0.00    +0.000 A 
ATOM      4  C   UNL     1      44.754   5.461  11.487  0.00  0.00    +0.000 A 
ATOM      5  C   UNL     1      45.797   6.258  11.004  0.00  0.00    +0.000 A 
ATOM      6  C   UNL     1      46.919   6.509  11.797  0.00  0.00    +0.000 A 
ENDROOT
BRANCH   1   7
ATOM      7  C   UNL     1      48.191   6.384  13.964  0.00  0.00    +0.000 C 
BRANCH   7   8
ATOM      8  N   UNL     1      47.836   6.754  15.337  0.00  0.00    +0.000 NA
ATOM      9  H   UNL     1      47.735   7.763  15.403  0.00  0.00    +0.000 HD
BRANCH   8  10
ATOM     10  C   UNL     1      48.813   6.307  16.358  0.00  0.00    +0.000 C 
BRANCH  10  11
ATOM     11  C   UNL     1      48.576   7.112  17.641  0.00  0.00    +0.000 A 
ATOM     12  C   UNL     1      48.512   6.550  18.911  0.00  0.00    +0.000 A 
ATOM     13  S   UNL     1      48.021   7.636  20.125  0.00  0.00    +0.000 S 
ATOM     14  C   UNL     1      47.929   8.915  19.015  0.00  0.00    +0.000 A 
ATOM     15  N   UNL     1      47.501  10.144  19.408  0.00  0.00    +0.000 NA
ATOM     16  C   UNL     1      47.469  11.021  18.462  0.00  0.00    +0.000 A 
ATOM     17  N   UNL     1      47.850  10.787  17.165  0.00  0.00    +0.000 N 
ATOM     18  C   UNL     1      48.361   9.578  16.729  0.00  0.00    +0.000 A 
ATOM     19  O   UNL     1      48.861   9.458  15.619  0.00  0.00    +0.000 OA
ATOM     20  C   UNL     1      48.319   8.531  17.738  0.00  0.00    +0.000 A 
ATOM     21  H   UNL     1      47.873  11.541  16.493  0.00  0.00    +0.000 HD
ENDBRANCH  10  11
BRANCH  10  22
ATOM     22  C   UNL     1      48.804   4.774  16.622  0.00  0.00    +0.000 C 
BRANCH  22  24
ATOM     23  C   UNL     1      47.295   2.960  17.615  0.00  0.00    +0.000 C 
ATOM     24  C   UNL     1      47.463   4.039  16.562  0.00  0.00    +0.000 C 
ENDBRANCH  22  24
ENDBRANCH  10  22
ENDBRANCH   8  10
ENDBRANCH   7   8
ENDBRANCH   1   7
BRANCH   4  25
ATOM     25  C   UNL     1      43.566   5.144  10.609  0.00  0.00    +0.000 C 
BRANCH  25  26
ATOM     26  N   UNL     1      43.956   4.401   9.407  0.00  0.00    +0.000 NA
ATOM     27  H   UNL     1      44.532   5.019   8.831  0.00  0.00    +0.000 HD
BRANCH  26  28
ATOM     28  CA  UNL     1      44.770   3.205   9.725  0.00  0.00    +0.000 C 
BRANCH  28  29
ATOM     29  C   UNL     1      45.660   2.856   8.534  0.00  0.00    +0.000 A 
ATOM     30  C   UNL     1      46.040   3.848   7.615  0.00  0.00    +0.000 A 
ATOM     31  C   UNL     1      46.861   3.537   6.527  0.00  0.00    +0.000 A 
ATOM     32  C   UNL     1      47.315   2.233   6.341  0.00  0.00    +0.000 A 
ATOM     33  C   UNL     1      46.945   1.237   7.238  0.00  0.00    +0.000 A 
ATOM     34  C   UNL     1      46.121   1.545   8.323  0.00  0.00    +0.000 A 
ENDBRANCH  28  29
BRANCH  28  35
ATOM     35  C   UNL     1      43.895   1.991  10.148  0.00  0.00    +0.000 C 
BRANCH  35  36
ATOM     36  O   UNL     1      43.287   2.180  11.428  0.00  0.00    +0.000 OA
ATOM     37  H   UNL     1      43.513   3.096  11.684  0.00  0.00    +0.000 HD
ENDBRANCH  35  36
ENDBRANCH  28  35
ENDBRANCH  26  28
ENDBRANCH  25  26
ENDBRANCH   4  25
TORSDOF 12
ENDMDL
MODEL 4
REMARK VINA RESULT:    -7.133      1.461      2.253
REMARK INTER + INTRA:         -13.391
REMARK INTER:                 -11.943
REMARK INTRA:                  -1.449
REMARK UNBOUND:                -1.462
REMARK  Name = 
REMARK  13 active torsions:
REMARK  status: ('A' for Active; 'I' for Inactive)
REMARK    1  A    between atoms: C_1  and  C_2
REMARK    2  A    between atoms: C_2  and  C_3
REMARK    3  A    between atoms: C_3  and  C_4
REMARK    4  A    between atoms: C_4  and  N_5
REMARK    5  A    between atoms: C_4  and  C_24
REMARK    6  A    between atoms: N_5  and  C_6
REMARK    7  A    between atoms: C_6  and  C_7
REMARK    8  A    between atoms: C_10  and  C_11
REMARK    9  A    between atoms: C_11  and  N_12
REMARK   10  A    between atoms: N_12  and  CA_13
REMARK   11  A    between atoms: CA_13  and  C_14
REMARK   12  A    between atoms: CA_13  and  C_16
REMARK   13  A    between atoms: C_14  and  O_15
REMARK                            x       y       z     vdW  Elec       q    Type
REMARK                         _______ _______ _______ _____ _____    ______ ____
ROOT
ATOM      1  C   UNL     1      48.809   7.396  14.003  0.00  0.00    +0.000 A 
ATOM      2  C   UNL     1      48.532   6.517  12.950  0.00  0.00    +0.000 A 
ATOM      3  C   UNL     1      47.336   6.623  12.232  0.00  0.00    +0.000 A 
ATOM      4  C   UNL     1      46.384   7.599  12.560  0.00  0.00    +0.000 A 
ATOM      5  C   UNL     1      46.657   8.477  13.614  0.00  0.00    +0.000 A 
ATOM      6  C   UNL     1      47.855   8.375  14.326  0.00  0.00    +0.000 A 
ENDROOT
BRANCH   1   7
ATOM      7  C   UNL     1      50.024   7.231  14.888  0.00  0.00    +0.000 C 
BRANCH   7   8
ATOM      8  N   UNL     1      49.735   7.068  16.315  0.00  0.00    +0.000 NA
ATOM      9  H   UNL     1      50.550   7.335  16.861  0.00  0.00    +0.000 HD
BRANCH   8  10
ATOM     10  C   UNL     1      49.336   5.693  16.701  0.00  0.00    +0.000 C 
BRANCH  10  11
ATOM     11  C   UNL     1      50.498   5.047  17.465  0.00  0.00    +0.000 A 
ATOM     12  C   UNL     1      51.442   5.763  18.195  0.00  0.00    +0.000 A 
ATOM     13  S   UNL     1      52.742   4.821  18.756  0.00  0.00    +0.000 S 
ATOM     14  C   UNL     1      52.073   3.409  18.096  0.00  0.00    +0.000 A 
ATOM     15  N   UNL     1      52.735   2.226  18.177  0.00  0.00    +0.000 NA
ATOM     16  C   UNL     1      52.118   1.236  17.625  0.00  0.00    +0.000 A 
ATOM     17  N   UNL     1      50.889   1.318  17.022  0.00  0.00    +0.000 N 
ATOM     18  C   UNL     1      50.140   2.480  16.977  0.00  0.00    +0.000 A 
ATOM     19  O   UNL     1      48.977   2.478  16.599  0.00  0.00    +0.000 OA
ATOM     20  C   UNL     1      50.841   3.644  17.497  0.00  0.00    +0.000 A 
ATOM     21  H   UNL     1      50.428   0.486  16.678  0.00  0.00    +0.000 HD
ENDBRANCH  10  11
BRANCH  10  22
ATOM     22  C   UNL     1      48.002   5.615  17.496  0.00  0.00    +0.000 C 
BRANCH  22  24
ATOM     23  C   UNL     1      47.786   5.848  20.036  0.00  0.00    +0.000 C 
ATOM     24  C   UNL     1      47.818   6.551  18.693  0.00  0.00    +0.000 C 
ENDBRANCH  22  24
ENDBRANCH  10  22
ENDBRANCH   8  10
ENDBRANCH   7   8
ENDBRANCH   1   7
BRANCH   4  25
ATOM     25  C   UNL     1      45.114   7.745  11.755  0.00  0.00    +0.000 C 
BRANCH  25  26
ATOM     26  N   UNL     1      45.057   6.790  10.644  0.00  0.00    +0.000 NA
ATOM     27  H   UNL     1      46.016   6.606  10.340  0.00  0.00    +0.000 HD
BRANCH  26  28
ATOM     28  CA  UNL     1      44.464   5.494  11.048  0.00  0.00    +0.000 C 
BRANCH  28  29
ATOM     29  C   UNL     1      44.836   4.418  10.030  0.00  0.00    +0.000 A 
ATOM     30  C   UNL     1      45.603   4.743   8.900  0.00  0.00    +0.000 A 
ATOM     31  C   UNL     1      45.954   3.761   7.968  0.00  0.00    +0.000 A 
ATOM     32  C   UNL     1      45.545   2.442   8.152  0.00  0.00    +0.000 A 
ATOM     33  C   UNL     1      44.780   2.103   9.262  0.00  0.00    +0.000 A 
ATOM     34  C   UNL     1      44.425   3.084  10.191  0.00  0.00    +0.000 A 
ENDBRANCH  28  29
BRANCH  28  35
ATOM     35  C   UNL     1      42.922   5.584  11.234  0.00  0.00    +0.000 C 
BRANCH  35  36
ATOM     36  O   UNL     1      42.535   5.489  12.607  0.00  0.00    +0.000 OA
ATOM     37  H   UNL     1      43.375   5.458  13.107  0.00  0.00    +0.000 HD
ENDBRANCH  35  36
ENDBRANCH  28  35
ENDBRANCH  26  28
ENDBRANCH  25  26
ENDBRANCH   4  25
TORSDOF 12
ENDMDL
MODEL 5
REMARK VINA RESULT:    -7.106      2.192      3.163
REMARK INTER + INTRA:         -13.345
REMARK INTER:                 -11.598
REMARK INTRA:                  -1.748
REMARK UNBOUND:                -1.462
REMARK  Name = 
REMARK  13 active torsions:
REMARK  status: ('A' for Active; 'I' for Inactive)
REMARK    1  A    between atoms: C_1  and  C_2
REMARK    2  A    between atoms: C_2  and  C_3
REMARK    3  A    between atoms: C_3  and  C_4
REMARK    4  A    between atoms: C_4  and  N_5
REMARK    5  A    between atoms: C_4  and  C_24
REMARK    6  A    between atoms: N_5  and  C_6
REMARK    7  A    between atoms: C_6  and  C_7
REMARK    8  A    between atoms: C_10  and  C_11
REMARK    9  A    between atoms: C_11  and  N_12
REMARK   10  A    between atoms: N_12  and  CA_13
REMARK   11  A    between atoms: CA_13  and  C_14
REMARK   12  A    between atoms: CA_13  and  C_16
REMARK   13  A    between atoms: C_14  and  O_15
REMARK                            x       y       z     vdW  Elec       q    Type
REMARK                         _______ _______ _______ _____ _____    ______ ____
ROOT
ATOM      1  C   UNL     1      47.628   7.229  12.903  0.00  0.00    +0.000 A 
ATOM      2  C   UNL     1      46.912   7.979  11.963  0.00  0.00    +0.000 A 
ATOM      3  C   UNL     1      45.640   7.570  11.548  0.00  0.00    +0.000 A 
ATOM      4  C   UNL     1      45.063   6.395  12.050  0.00  0.00    +0.000 A 
ATOM      5  C   UNL     1      45.778   5.642  12.987  0.00  0.00    +0.000 A 
ATOM      6  C   UNL     1      47.044   6.055  13.407  0.00  0.00    +0.000 A 
ENDROOT
BRANCH   1   7
ATOM      7  C   UNL     1      49.055   7.562  13.277  0.00  0.00    +0.000 C 
BRANCH   7   8
ATOM      8  N   UNL     1      49.614   6.761  14.369  0.00  0.00    +0.000 NA
ATOM      9  H   UNL     1      48.870   6.237  14.823  0.00  0.00    +0.000 HD
BRANCH   8  10
ATOM     10  C   UNL     1      50.332   7.552  15.397  0.00  0.00    +0.000 C 
BRANCH  10  11
ATOM     11  C   UNL     1      49.362   7.847  16.547  0.00  0.00    +0.000 A 
ATOM     12  C   UNL     1      49.041   9.128  16.983  0.00  0.00    +0.000 A 
ATOM     13  S   UNL     1      48.117   9.162  18.410  0.00  0.00    +0.000 S 
ATOM     14  C   UNL     1      48.061   7.468  18.476  0.00  0.00    +0.000 A 
ATOM     15  N   UNL     1      47.453   6.835  19.513  0.00  0.00    +0.000 NA
ATOM     16  C   UNL     1      47.492   5.547  19.443  0.00  0.00    +0.000 A 
ATOM     17  N   UNL     1      48.062   4.836  18.418  0.00  0.00    +0.000 N 
ATOM     18  C   UNL     1      48.628   5.429  17.303  0.00  0.00    +0.000 A 
ATOM     19  O   UNL     1      48.959   4.772  16.327  0.00  0.00    +0.000 OA
ATOM     20  C   UNL     1      48.697   6.879  17.389  0.00  0.00    +0.000 A 
ATOM     21  H   UNL     1      47.988   3.828  18.388  0.00  0.00    +0.000 HD
ENDBRANCH  10  11
BRANCH  10  22
ATOM     22  C   UNL     1      51.650   6.897  15.899  0.00  0.00    +0.000 C 
BRANCH  22  24
ATOM     23  C   UNL     1      52.253   6.102  18.257  0.00  0.00    +0.000 C 
ATOM     24  C   UNL     1      52.156   7.271  17.295  0.00  0.00    +0.000 C 
ENDBRANCH  22  24
ENDBRANCH  10  22
ENDBRANCH   8  10
ENDBRANCH   7   8
ENDBRANCH   1   7
BRANCH   4  25
ATOM     25  C   UNL     1      43.670   5.978  11.638  0.00  0.00    +0.000 C 
BRANCH  25  26
ATOM     26  N   UNL     1      43.685   5.103  10.462  0.00  0.00    +0.000 NA
ATOM     27  H   UNL     1      44.189   5.590   9.717  0.00  0.00    +0.000 HD
BRANCH  26  28
ATOM     28  CA  UNL     1      44.396   3.829  10.719  0.00  0.00    +0.000 C 
BRANCH  28  29
ATOM     29  C   UNL     1      45.155   3.401   9.465  0.00  0.00    +0.000 A 
ATOM     30  C   UNL     1      45.643   4.363   8.565  0.00  0.00    +0.000 A 
ATOM     31  C   UNL     1      46.346   3.977   7.420  0.00  0.00    +0.000 A 
ATOM     32  C   UNL     1      46.571   2.629   7.156  0.00  0.00    +0.000 A 
ATOM     33  C   UNL     1      46.091   1.662   8.032  0.00  0.00    +0.000 A 
ATOM     34  C   UNL     1      45.385   2.045   9.175  0.00  0.00    +0.000 A 
ENDBRANCH  28  29
BRANCH  28  35
ATOM     35  C   UNL     1      43.436   2.706  11.207  0.00  0.00    +0.000 C 
BRANCH  35  36
ATOM     36  O   UNL     1      43.701   2.315  12.557  0.00  0.00    +0.000 OA
ATOM     37  H   UNL     1      42.846   2.410  13.021  0.00  0.00    +0.000 HD
ENDBRANCH  35  36
ENDBRANCH  28  35
ENDBRANCH  26  28
ENDBRANCH  25  26
ENDBRANCH   4  25
TORSDOF 12
ENDMDL
MODEL 6
REMARK VINA RESULT:    -7.081      3.620      8.662
REMARK INTER + INTRA:         -13.304
REMARK INTER:                 -10.856
REMARK INTRA:                  -2.448
REMARK UNBOUND:                -1.462
REMARK  Name = 
REMARK  13 active torsions:
REMARK  status: ('A' for Active; 'I' for Inactive)
REMARK    1  A    between atoms: C_1  and  C_2
REMARK    2  A    between atoms: C_2  and  C_3
REMARK    3  A    between atoms: C_3  and  C_4
REMARK    4  A    between atoms: C_4  and  N_5
REMARK    5  A    between atoms: C_4  and  C_24
REMARK    6  A    between atoms: N_5  and  C_6
REMARK    7  A    between atoms: C_6  and  C_7
REMARK    8  A    between atoms: C_10  and  C_11
REMARK    9  A    between atoms: C_11  and  N_12
REMARK   10  A    between atoms: N_12  and  CA_13
REMARK   11  A    between atoms: CA_13  and  C_14
REMARK   12  A    between atoms: CA_13  and  C_16
REMARK   13  A    between atoms: C_14  and  O_15
REMARK                            x       y       z     vdW  Elec       q    Type
REMARK                         _______ _______ _______ _____ _____    ______ ____
ROOT
ATOM      1  C   UNL     1      48.853   7.773  14.208  0.00  0.00    +0.000 A 
ATOM      2  C   UNL     1      48.062   8.623  14.990  0.00  0.00    +0.000 A 
ATOM      3  C   UNL     1      48.239   8.681  16.376  0.00  0.00    +0.000 A 
ATOM      4  C   UNL     1      49.198   7.881  17.014  0.00  0.00    +0.000 A 
ATOM      5  C   UNL     1      49.988   7.029  16.235  0.00  0.00    +0.000 A 
ATOM      6  C   UNL     1      49.816   6.977  14.850  0.00  0.00    +0.000 A 
ENDROOT
BRANCH   1   7
ATOM      7  C   UNL     1      48.605   7.580  12.729  0.00  0.00    +0.000 C 
BRANCH   7   8
ATOM      8  N   UNL     1      47.645   6.527  12.392  0.00  0.00    +0.000 NA
ATOM      9  H   UNL     1      48.116   5.788  11.877  0.00  0.00    +0.000 HD
BRANCH   8  10
ATOM     10  C   UNL     1      46.484   6.993  11.597  0.00  0.00    +0.000 C 
BRANCH  10  11
ATOM     11  C   UNL     1      45.851   5.780  10.906  0.00  0.00    +0.000 A 
ATOM     12  C   UNL     1      45.861   5.577   9.529  0.00  0.00    +0.000 A 
ATOM     13  S   UNL     1      44.900   4.271   9.016  0.00  0.00    +0.000 S 
ATOM     14  C   UNL     1      44.475   3.887  10.613  0.00  0.00    +0.000 A 
ATOM     15  N   UNL     1      43.606   2.877  10.876  0.00  0.00    +0.000 NA
ATOM     16  C   UNL     1      43.363   2.700  12.130  0.00  0.00    +0.000 A 
ATOM     17  N   UNL     1      43.930   3.425  13.147  0.00  0.00    +0.000 N 
ATOM     18  C   UNL     1      44.875   4.414  12.941  0.00  0.00    +0.000 A 
ATOM     19  O   UNL     1      45.494   4.912  13.870  0.00  0.00    +0.000 OA
ATOM     20  C   UNL     1      45.103   4.716  11.536  0.00  0.00    +0.000 A 
ATOM     21  H   UNL     1      43.754   3.182  14.112  0.00  0.00    +0.000 HD
ENDBRANCH  10  11
BRANCH  10  22
ATOM     22  C   UNL     1      45.441   7.811  12.410  0.00  0.00    +0.000 C 
BRANCH  22  24
ATOM     23  C   UNL     1      45.941  10.273  11.916  0.00  0.00    +0.000 C 
ATOM     24  C   UNL     1      44.943   9.134  11.822  0.00  0.00    +0.000 C 
ENDBRANCH  22  24
ENDBRANCH  10  22
ENDBRANCH   8  10
ENDBRANCH   7   8
ENDBRANCH   1   7
BRANCH   4  25
ATOM     25  C   UNL     1      49.422   7.979  18.505  0.00  0.00    +0.000 C 
BRANCH  25  26
ATOM     26  N   UNL     1      48.275   7.475  19.266  0.00  0.00    +0.000 NA
ATOM     27  H   UNL     1      47.493   7.363  18.616  0.00  0.00    +0.000 HD
BRANCH  26  28
ATOM     28  CA  UNL     1      48.541   6.149  19.871  0.00  0.00    +0.000 C 
BRANCH  28  29
ATOM     29  C   UNL     1      48.443   5.065  18.799  0.00  0.00    +0.000 A 
ATOM     30  C   UNL     1      49.533   4.219  18.541  0.00  0.00    +0.000 A 
ATOM     31  C   UNL     1      49.446   3.219  17.566  0.00  0.00    +0.000 A 
ATOM     32  C   UNL     1      48.271   3.051  16.837  0.00  0.00    +0.000 A 
ATOM     33  C   UNL     1      47.184   3.884  17.075  0.00  0.00    +0.000 A 
ATOM     34  C   UNL     1      47.270   4.885  18.045  0.00  0.00    +0.000 A 
ENDBRANCH  28  29
BRANCH  28  35
ATOM     35  C   UNL     1      47.594   5.845  21.067  0.00  0.00    +0.000 C 
BRANCH  35  36
ATOM     36  O   UNL     1      47.845   4.562  21.645  0.00  0.00    +0.000 OA
ATOM     37  H   UNL     1      48.273   4.042  20.936  0.00  0.00    +0.000 HD
ENDBRANCH  35  36
ENDBRANCH  28  35
ENDBRANCH  26  28
ENDBRANCH  25  26
ENDBRANCH   4  25
TORSDOF 12
ENDMDL
MODEL 7
REMARK VINA RESULT:    -6.990      2.770      3.772
REMARK INTER + INTRA:         -13.152
REMARK INTER:                 -10.817
REMARK INTRA:                  -2.335
REMARK UNBOUND:                -1.462
REMARK  Name = 
REMARK  13 active torsions:
REMARK  status: ('A' for Active; 'I' for Inactive)
REMARK    1  A    between atoms: C_1  and  C_2
REMARK    2  A    between atoms: C_2  and  C_3
REMARK    3  A    between atoms: C_3  and  C_4
REMARK    4  A    between atoms: C_4  and  N_5
REMARK    5  A    between atoms: C_4  and  C_24
REMARK    6  A    between atoms: N_5  and  C_6
REMARK    7  A    between atoms: C_6  and  C_7
REMARK    8  A    between atoms: C_10  and  C_11
REMARK    9  A    between atoms: C_11  and  N_12
REMARK   10  A    between atoms: N_12  and  CA_13
REMARK   11  A    between atoms: CA_13  and  C_14
REMARK   12  A    between atoms: CA_13  and  C_16
REMARK   13  A    between atoms: C_14  and  O_15
REMARK                            x       y       z     vdW  Elec       q    Type
REMARK                         _______ _______ _______ _____ _____    ______ ____
ROOT
ATOM      1  C   UNL     1      49.435   8.277  12.103  0.00  0.00    +0.000 A 
ATOM      2  C   UNL     1      48.529   9.342  12.053  0.00  0.00    +0.000 A 
ATOM      3  C   UNL     1      47.151   9.104  12.079  0.00  0.00    +0.000 A 
ATOM      4  C   UNL     1      46.648   7.796  12.139  0.00  0.00    +0.000 A 
ATOM      5  C   UNL     1      47.551   6.729  12.186  0.00  0.00    +0.000 A 
ATOM      6  C   UNL     1      48.927   6.968  12.168  0.00  0.00    +0.000 A 
ENDROOT
BRANCH   1   7
ATOM      7  C   UNL     1      50.925   8.481  11.941  0.00  0.00    +0.000 C 
BRANCH   7   8
ATOM      8  N   UNL     1      51.741   8.013  13.064  0.00  0.00    +0.000 NA
ATOM      9  H   UNL     1      51.639   7.007  13.165  0.00  0.00    +0.000 HD
BRANCH   8  10
ATOM     10  C   UNL     1      51.418   8.656  14.360  0.00  0.00    +0.000 C 
BRANCH  10  11
ATOM     11  C   UNL     1      51.454   7.583  15.455  0.00  0.00    +0.000 A 
ATOM     12  C   UNL     1      52.626   7.062  15.994  0.00  0.00    +0.000 A 
ATOM     13  S   UNL     1      52.381   5.735  17.029  0.00  0.00    +0.000 S 
ATOM     14  C   UNL     1      50.698   5.835  16.844  0.00  0.00    +0.000 A 
ATOM     15  N   UNL     1      49.881   4.926  17.439  0.00  0.00    +0.000 NA
ATOM     16  C   UNL     1      48.625   5.113  17.207  0.00  0.00    +0.000 A 
ATOM     17  N   UNL     1      48.112   6.139  16.457  0.00  0.00    +0.000 N 
ATOM     18  C   UNL     1      48.892   7.132  15.892  0.00  0.00    +0.000 A 
ATOM     19  O   UNL     1      48.394   8.129  15.388  0.00  0.00    +0.000 OA
ATOM     20  C   UNL     1      50.321   6.904  16.041  0.00  0.00    +0.000 A 
ATOM     21  H   UNL     1      47.113   6.271  16.381  0.00  0.00    +0.000 HD
ENDBRANCH  10  11
BRANCH  10  22
ATOM     22  C   UNL     1      52.315   9.876  14.710  0.00  0.00    +0.000 C 
BRANCH  22  24
ATOM     23  C   UNL     1      50.510  11.600  14.140  0.00  0.00    +0.000 C 
ATOM     24  C   UNL     1      51.630  11.195  15.079  0.00  0.00    +0.000 C 
ENDBRANCH  22  24
ENDBRANCH  10  22
ENDBRANCH   8  10
ENDBRANCH   7   8
ENDBRANCH   1   7
BRANCH   4  25
ATOM     25  C   UNL     1      45.161   7.541  12.216  0.00  0.00    +0.000 C 
BRANCH  25  26
ATOM     26  N   UNL     1      44.670   6.804  11.047  0.00  0.00    +0.000 NA
ATOM     27  H   UNL     1      45.431   6.757  10.365  0.00  0.00    +0.000 HD
BRANCH  26  28
ATOM     28  CA  UNL     1      44.288   5.412  11.382  0.00  0.00    +0.000 C 
BRANCH  28  29
ATOM     29  C   UNL     1      44.726   4.474  10.259  0.00  0.00    +0.000 A 
ATOM     30  C   UNL     1      44.360   3.119  10.280  0.00  0.00    +0.000 A 
ATOM     31  C   UNL     1      44.751   2.257   9.250  0.00  0.00    +0.000 A 
ATOM     32  C   UNL     1      45.513   2.736   8.186  0.00  0.00    +0.000 A 
ATOM     33  C   UNL     1      45.890   4.074   8.153  0.00  0.00    +0.000 A 
ATOM     34  C   UNL     1      45.503   4.934   9.182  0.00  0.00    +0.000 A 
ENDBRANCH  28  29
BRANCH  28  35
ATOM     35  C   UNL     1      42.765   5.271  11.670  0.00  0.00    +0.000 C 
BRANCH  35  36
ATOM     36  O   UNL     1      42.464   5.392  13.062  0.00  0.00    +0.000 OA
ATOM     37  H   UNL     1      43.309   5.218  13.522  0.00  0.00    +0.000 HD
ENDBRANCH  35  36
ENDBRANCH  28  35
ENDBRANCH  26  28
ENDBRANCH  25  26
ENDBRANCH   4  25
TORSDOF 12
ENDMDL
MODEL 8
REMARK VINA RESULT:    -6.954      1.931      2.414
REMARK INTER + INTRA:         -13.091
REMARK INTER:                 -11.851
REMARK INTRA:                  -1.240
REMARK UNBOUND:                -1.462
REMARK  Name = 
REMARK  13 active torsions:
REMARK  status: ('A' for Active; 'I' for Inactive)
REMARK    1  A    between atoms: C_1  and  C_2
REMARK    2  A    between atoms: C_2  and  C_3
REMARK    3  A    between atoms: C_3  and  C_4
REMARK    4  A    between atoms: C_4  and  N_5
REMARK    5  A    between atoms: C_4  and  C_24
REMARK    6  A    between atoms: N_5  and  C_6
REMARK    7  A    between atoms: C_6  and  C_7
REMARK    8  A    between atoms: C_10  and  C_11
REMARK    9  A    between atoms: C_11  and  N_12
REMARK   10  A    between atoms: N_12  and  CA_13
REMARK   11  A    between atoms: CA_13  and  C_14
REMARK   12  A    between atoms: CA_13  and  C_16
REMARK   13  A    between atoms: C_14  and  O_15
REMARK                            x       y       z     vdW  Elec       q    Type
REMARK                         _______ _______ _______ _____ _____    ______ ____
ROOT
ATOM      1  C   UNL     1      47.651   7.152  12.957  0.00  0.00    +0.000 A 
ATOM      2  C   UNL     1      46.891   8.027  12.173  0.00  0.00    +0.000 A 
ATOM      3  C   UNL     1      45.621   7.656  11.721  0.00  0.00    +0.000 A 
ATOM      4  C   UNL     1      45.087   6.396  12.030  0.00  0.00    +0.000 A 
ATOM      5  C   UNL     1      45.845   5.518  12.811  0.00  0.00    +0.000 A 
ATOM      6  C   UNL     1      47.111   5.892  13.268  0.00  0.00    +0.000 A 
ENDROOT
BRANCH   1   7
ATOM      7  C   UNL     1      49.078   7.459  13.352  0.00  0.00    +0.000 C 
BRANCH   7   8
ATOM      8  N   UNL     1      49.593   6.677  14.478  0.00  0.00    +0.000 NA
ATOM      9  H   UNL     1      49.493   5.685  14.280  0.00  0.00    +0.000 HD
BRANCH   8  10
ATOM     10  C   UNL     1      48.934   6.971  15.774  0.00  0.00    +0.000 C 
BRANCH  10  11
ATOM     11  C   UNL     1      49.253   5.832  16.749  0.00  0.00    +0.000 A 
ATOM     12  C   UNL     1      48.290   5.010  17.326  0.00  0.00    +0.000 A 
ATOM     13  S   UNL     1      48.895   3.977  18.534  0.00  0.00    +0.000 S 
ATOM     14  C   UNL     1      50.477   4.543  18.298  0.00  0.00    +0.000 A 
ATOM     15  N   UNL     1      51.496   4.094  19.076  0.00  0.00    +0.000 NA
ATOM     16  C   UNL     1      52.644   4.614  18.797  0.00  0.00    +0.000 A 
ATOM     17  N   UNL     1      52.868   5.523  17.795  0.00  0.00    +0.000 N 
ATOM     18  C   UNL     1      51.882   5.958  16.928  0.00  0.00    +0.000 A 
ATOM     19  O   UNL     1      52.148   6.622  15.936  0.00  0.00    +0.000 OA
ATOM     20  C   UNL     1      50.553   5.476  17.270  0.00  0.00    +0.000 A 
ATOM     21  H   UNL     1      53.807   5.831  17.581  0.00  0.00    +0.000 HD
ENDBRANCH  10  11
BRANCH  10  22
ATOM     22  C   UNL     1      49.288   8.363  16.369  0.00  0.00    +0.000 C 
BRANCH  22  24
ATOM     23  C   UNL     1      47.886   9.947  17.811  0.00  0.00    +0.000 C 
ATOM     24  C   UNL     1      48.189   9.428  16.418  0.00  0.00    +0.000 C 
ENDBRANCH  22  24
ENDBRANCH  10  22
ENDBRANCH   8  10
ENDBRANCH   7   8
ENDBRANCH   1   7
BRANCH   4  25
ATOM     25  C   UNL     1      43.696   6.013  11.583  0.00  0.00    +0.000 C 
BRANCH  25  26
ATOM     26  N   UNL     1      43.719   5.125  10.416  0.00  0.00    +0.000 NA
ATOM     27  H   UNL     1      44.229   5.604   9.670  0.00  0.00    +0.000 HD
BRANCH  26  28
ATOM     28  CA  UNL     1      44.428   3.854  10.692  0.00  0.00    +0.000 C 
BRANCH  28  29
ATOM     29  C   UNL     1      45.185   3.405   9.444  0.00  0.00    +0.000 A 
ATOM     30  C   UNL     1      45.687   4.353   8.537  0.00  0.00    +0.000 A 
ATOM     31  C   UNL     1      46.388   3.948   7.397  0.00  0.00    +0.000 A 
ATOM     32  C   UNL     1      46.598   2.595   7.146  0.00  0.00    +0.000 A 
ATOM     33  C   UNL     1      46.103   1.642   8.030  0.00  0.00    +0.000 A 
ATOM     34  C   UNL     1      45.400   2.044   9.167  0.00  0.00    +0.000 A 
ENDBRANCH  28  29
BRANCH  28  35
ATOM     35  C   UNL     1      43.466   2.740  11.198  0.00  0.00    +0.000 C 
BRANCH  35  36
ATOM     36  O   UNL     1      43.745   2.355  12.546  0.00  0.00    +0.000 OA
ATOM     37  H   UNL     1      42.897   2.454  13.021  0.00  0.00    +0.000 HD
ENDBRANCH  35  36
ENDBRANCH  28  35
ENDBRANCH  26  28
ENDBRANCH  25  26
ENDBRANCH   4  25
TORSDOF 12
ENDMDL
MODEL 9
REMARK VINA RESULT:    -6.890      2.158      3.261
REMARK INTER + INTRA:         -12.985
REMARK INTER:                 -11.781
REMARK INTRA:                  -1.203
REMARK UNBOUND:                -1.462
REMARK  Name = 
REMARK  13 active torsions:
REMARK  status: ('A' for Active; 'I' for Inactive)
REMARK    1  A    between atoms: C_1  and  C_2
REMARK    2  A    between atoms: C_2  and  C_3
REMARK    3  A    between atoms: C_3  and  C_4
REMARK    4  A    between atoms: C_4  and  N_5
REMARK    5  A    between atoms: C_4  and  C_24
REMARK    6  A    between atoms: N_5  and  C_6
REMARK    7  A    between atoms: C_6  and  C_7
REMARK    8  A    between atoms: C_10  and  C_11
REMARK    9  A    between atoms: C_11  and  N_12
REMARK   10  A    between atoms: N_12  and  CA_13
REMARK   11  A    between atoms: CA_13  and  C_14
REMARK   12  A    between atoms: CA_13  and  C_16
REMARK   13  A    between atoms: C_14  and  O_15
REMARK                            x       y       z     vdW  Elec       q    Type
REMARK                         _______ _______ _______ _____ _____    ______ ____
ROOT
ATOM      1  C   UNL     1      47.483   6.562  13.784  0.00  0.00    +0.000 A 
ATOM      2  C   UNL     1      46.916   5.286  13.693  0.00  0.00    +0.000 A 
ATOM      3  C   UNL     1      45.694   5.097  13.040  0.00  0.00    +0.000 A 
ATOM      4  C   UNL     1      45.003   6.181  12.478  0.00  0.00    +0.000 A 
ATOM      5  C   UNL     1      45.566   7.458  12.570  0.00  0.00    +0.000 A 
ATOM      6  C   UNL     1      46.791   7.645  13.216  0.00  0.00    +0.000 A 
ENDROOT
BRANCH   1   7
ATOM      7  C   UNL     1      48.731   6.831  14.595  0.00  0.00    +0.000 C 
BRANCH   7   8
ATOM      8  N   UNL     1      48.536   6.856  16.046  0.00  0.00    +0.000 NA
ATOM      9  H   UNL     1      49.061   7.628  16.448  0.00  0.00    +0.000 HD
BRANCH   8  10
ATOM     10  C   UNL     1      48.932   5.604  16.735  0.00  0.00    +0.000 C 
BRANCH  10  11
ATOM     11  C   UNL     1      49.904   5.959  17.865  0.00  0.00    +0.000 A 
ATOM     12  C   UNL     1      51.229   5.537  17.913  0.00  0.00    +0.000 A 
ATOM     13  S   UNL     1      52.015   5.888  19.380  0.00  0.00    +0.000 S 
ATOM     14  C   UNL     1      50.637   6.667  19.992  0.00  0.00    +0.000 A 
ATOM     15  N   UNL     1      50.625   7.160  21.258  0.00  0.00    +0.000 NA
ATOM     16  C   UNL     1      49.513   7.718  21.598  0.00  0.00    +0.000 A 
ATOM     17  N   UNL     1      48.421   7.849  20.778  0.00  0.00    +0.000 N 
ATOM     18  C   UNL     1      48.405   7.432  19.460  0.00  0.00    +0.000 A 
ATOM     19  O   UNL     1      47.489   7.727  18.706  0.00  0.00    +0.000 OA
ATOM     20  C   UNL     1      49.602   6.706  19.065  0.00  0.00    +0.000 A 
ATOM     21  H   UNL     1      47.608   8.367  21.084  0.00  0.00    +0.000 HD
ENDBRANCH  10  11
BRANCH  10  22
ATOM     22  C   UNL     1      47.737   4.748  17.241  0.00  0.00    +0.000 C 
BRANCH  22  24
ATOM     23  C   UNL     1      48.892   2.482  16.946  0.00  0.00    +0.000 C 
ATOM     24  C   UNL     1      47.629   3.300  16.756  0.00  0.00    +0.000 C 
ENDBRANCH  22  24
ENDBRANCH  10  22
ENDBRANCH   8  10
ENDBRANCH   7   8
ENDBRANCH   1   7
BRANCH   4  25
ATOM     25  C   UNL     1      43.707   5.970  11.731  0.00  0.00    +0.000 C 
BRANCH  25  26
ATOM     26  N   UNL     1      43.908   5.234  10.480  0.00  0.00    +0.000 NA
ATOM     27  H   UNL     1      44.563   5.770   9.905  0.00  0.00    +0.000 HD
BRANCH  26  28
ATOM     28  CA  UNL     1      44.506   3.897  10.704  0.00  0.00    +0.000 C 
BRANCH  28  29
ATOM     29  C   UNL     1      45.248   3.448   9.447  0.00  0.00    +0.000 A 
ATOM     30  C   UNL     1      45.463   2.083   9.197  0.00  0.00    +0.000 A 
ATOM     31  C   UNL     1      46.134   1.665   8.044  0.00  0.00    +0.000 A 
ATOM     32  C   UNL     1      46.600   2.603   7.125  0.00  0.00    +0.000 A 
ATOM     33  C   UNL     1      46.401   3.959   7.359  0.00  0.00    +0.000 A 
ATOM     34  C   UNL     1      45.735   4.378   8.512  0.00  0.00    +0.000 A 
ENDBRANCH  28  29
BRANCH  28  35
ATOM     35  C   UNL     1      43.447   2.844  11.140  0.00  0.00    +0.000 C 
BRANCH  35  36
ATOM     36  O   UNL     1      43.706   2.323  12.446  0.00  0.00    +0.000 OA
ATOM     37  H   UNL     1      44.593   2.657  12.682  0.00  0.00    +0.000 HD
ENDBRANCH  35  36
ENDBRANCH  28  35
ENDBRANCH  26  28
ENDBRANCH  25  26
ENDBRANCH   4  25
TORSDOF 12
ENDMDL
