MODEL 1
REMARK VINA RESULT:    -7.436      0.000      0.000
REMARK INTER + INTRA:          -9.481
REMARK INTER:                  -9.175
REMARK INTRA:                  -0.307
REMARK UNBOUND:                -0.307
REMARK  Name = 
REMARK  4 active torsions:
REMARK  status: ('A' for Active; 'I' for Inactive)
REMARK    1  A    between atoms: C_4  and  O_5
REMARK    2  A    between atoms: O_5  and  C_6
REMARK    3  A    between atoms: C_10  and  C_11
REMARK    4  A    between atoms: C_11  and  C_12
REMARK                            x       y       z     vdW  Elec       q    Type
REMARK                         _______ _______ _______ _____ _____    ______ ____
ROOT
ATOM      1  C   UNL     1      45.006   4.673  10.633  0.00  0.00    +0.000 A 
ATOM      2  C   UNL     1      44.706   3.743  11.628  0.00  0.00    +0.000 A 
ATOM      3  C   UNL     1      45.220   3.911  12.907  0.00  0.00    +0.000 A 
ATOM      4  C   UNL     1      46.034   5.012  13.192  0.00  0.00    +0.000 A 
ATOM      5  C   UNL     1      46.328   5.977  12.212  0.00  0.00    +0.000 A 
ATOM      6  C   UNL     1      45.747   5.811  10.943  0.00  0.00    +0.000 A 
ENDROOT
BRANCH   5   7
ATOM      7  C   UNL     1      47.341   7.111  12.458  0.00  0.00    +0.000 C 
ATOM      8  C   UNL     1      48.333   7.344  11.318  0.00  0.00    +0.000 C 
ATOM      9  C   UNL     1      48.800   6.659  12.561  0.00  0.00    +0.000 C 
BRANCH   7  10
ATOM     10  C   UNL     1      46.824   8.264  13.348  0.00  0.00    +0.000 C 
ATOM     11  C   UNL     1      45.424   8.756  12.931  0.00  0.00    +0.000 C 
ATOM     12  C   UNL     1      45.471   9.779  11.800  0.00  0.00    +0.000 C 
ATOM     13  N   UNL     1      46.285  10.941  12.163  0.00  0.00    +0.000 NA
ATOM     14  C   UNL     1      47.660  10.543  12.453  0.00  0.00    +0.000 C 
ATOM     15  C   UNL     1      47.744   9.485  13.554  0.00  0.00    +0.000 C 
ATOM     16  H   UNL     1      45.885  11.375  12.995  0.00  0.00    +0.000 HD
ENDBRANCH   7  10
ENDBRANCH   5   7
BRANCH   1  17
ATOM     17  O   UNL     1      44.615   4.512   9.327  0.00  0.00    +0.000 OA
BRANCH  17  21
ATOM     18  C   UNL     1      47.162   2.092   7.177  0.00  0.00    +0.000 A 
ATOM     19  C   UNL     1      46.270   1.528   8.083  0.00  0.00    +0.000 A 
ATOM     20  C   UNL     1      45.382   2.348   8.773  0.00  0.00    +0.000 A 
ATOM     21  C   UNL     1      45.438   3.710   8.537  0.00  0.00    +0.000 A 
ATOM     22  N   UNL     1      46.260   4.277   7.621  0.00  0.00    +0.000 NA
ATOM     23  C   UNL     1      47.109   3.459   6.968  0.00  0.00    +0.000 A 
ENDBRANCH  17  21
ENDBRANCH   1  17
TORSDOF 4
ENDMDL
MODEL 2
REMARK VINA RESULT:    -7.284      1.261      2.196
REMARK INTER + INTRA:          -9.294
REMARK INTER:                  -9.277
REMARK INTRA:                  -0.017
REMARK UNBOUND:                -0.307
REMARK  Name = 
REMARK  4 active torsions:
REMARK  status: ('A' for Active; 'I' for Inactive)
REMARK    1  A    between atoms: C_4  and  O_5
REMARK    2  A    between atoms: O_5  and  C_6
REMARK    3  A    between atoms: C_10  and  C_11
REMARK    4  A    between atoms: C_11  and  C_12
REMARK                            x       y       z     vdW  Elec       q    Type
REMARK                         _______ _______ _______ _____ _____    ______ ____
ROOT
ATOM      1  C   UNL     1      44.708   4.535  10.734  0.00  0.00    +0.000 A 
ATOM      2  C   UNL     1      44.775   3.643  11.804  0.00  0.00    +0.000 A 
ATOM      3  C   UNL     1      45.354   4.045  13.001  0.00  0.00    +0.000 A 
ATOM      4  C   UNL     1      45.865   5.340  13.129  0.00  0.00    +0.000 A 
ATOM      5  C   UNL     1      45.784   6.265  12.072  0.00  0.00    +0.000 A 
ATOM      6  C   UNL     1      45.141   5.850  10.893  0.00  0.00    +0.000 A 
ENDROOT
BRANCH   5   7
ATOM      7  C   UNL     1      46.472   7.641  12.135  0.00  0.00    +0.000 C 
ATOM      8  C   UNL     1      45.921   8.585  13.205  0.00  0.00    +0.000 C 
ATOM      9  C   UNL     1      45.573   8.827  11.772  0.00  0.00    +0.000 C 
BRANCH   7  10
ATOM     10  C   UNL     1      47.961   7.645  11.720  0.00  0.00    +0.000 C 
ATOM     11  C   UNL     1      48.813   6.668  12.554  0.00  0.00    +0.000 C 
ATOM     12  C   UNL     1      49.279   7.272  13.876  0.00  0.00    +0.000 C 
ATOM     13  N   UNL     1      50.051   8.498  13.661  0.00  0.00    +0.000 NA
ATOM     14  C   UNL     1      49.245   9.507  12.977  0.00  0.00    +0.000 C 
ATOM     15  C   UNL     1      48.686   9.004  11.646  0.00  0.00    +0.000 C 
ATOM     16  H   UNL     1      50.863   8.279  13.085  0.00  0.00    +0.000 HD
ENDBRANCH   7  10
ENDBRANCH   5   7
BRANCH   1  17
ATOM     17  O   UNL     1      44.242   4.171   9.495  0.00  0.00    +0.000 OA
BRANCH  17  21
ATOM     18  C   UNL     1      47.071   2.232   7.214  0.00  0.00    +0.000 A 
ATOM     19  C   UNL     1      46.276   1.507   8.096  0.00  0.00    +0.000 A 
ATOM     20  C   UNL     1      45.291   2.162   8.830  0.00  0.00    +0.000 A 
ATOM     21  C   UNL     1      45.157   3.529   8.662  0.00  0.00    +0.000 A 
ATOM     22  N   UNL     1      45.883   4.247   7.770  0.00  0.00    +0.000 NA
ATOM     23  C   UNL     1      46.827   3.587   7.074  0.00  0.00    +0.000 A 
ENDBRANCH  17  21
ENDBRANCH   1  17
TORSDOF 4
ENDMDL
MODEL 3
REMARK VINA RESULT:    -7.087      1.584      2.616
REMARK INTER + INTRA:          -9.051
REMARK INTER:                  -9.408
REMARK INTRA:                   0.356
REMARK UNBOUND:                -0.307
REMARK  Name = 
REMARK  4 active torsions:
REMARK  status: ('A' for Active; 'I' for Inactive)
REMARK    1  A    between atoms: C_4  and  O_5
REMARK    2  A    between atoms: O_5  and  C_6
REMARK    3  A    between atoms: C_10  and  C_11
REMARK    4  A    between atoms: C_11  and  C_12
REMARK                            x       y       z     vdW  Elec       q    Type
REMARK                         _______ _______ _______ _____ _____    ______ ____
ROOT
ATOM      1  C   UNL     1      43.949   3.693  10.921  0.00  0.00    +0.000 A 
ATOM      2  C   UNL     1      42.806   4.375  11.338  0.00  0.00    +0.000 A 
ATOM      3  C   UNL     1      42.902   5.335  12.337  0.00  0.00    +0.000 A 
ATOM      4  C   UNL     1      44.142   5.615  12.919  0.00  0.00    +0.000 A 
ATOM      5  C   UNL     1      45.313   4.958  12.496  0.00  0.00    +0.000 A 
ATOM      6  C   UNL     1      45.195   4.035  11.444  0.00  0.00    +0.000 A 
ENDROOT
BRANCH   5   7
ATOM      7  C   UNL     1      46.659   5.137  13.222  0.00  0.00    +0.000 C 
ATOM      8  C   UNL     1      47.258   3.850  13.790  0.00  0.00    +0.000 C 
ATOM      9  C   UNL     1      46.627   4.833  14.722  0.00  0.00    +0.000 C 
BRANCH   7  10
ATOM     10  C   UNL     1      47.541   6.289  12.686  0.00  0.00    +0.000 C 
ATOM     11  C   UNL     1      48.604   6.747  13.704  0.00  0.00    +0.000 C 
ATOM     12  C   UNL     1      48.061   7.759  14.709  0.00  0.00    +0.000 C 
ATOM     13  N   UNL     1      47.518   8.941  14.038  0.00  0.00    +0.000 NA
ATOM     14  C   UNL     1      46.420   8.575  13.146  0.00  0.00    +0.000 C 
ATOM     15  C   UNL     1      46.832   7.531  12.109  0.00  0.00    +0.000 C 
ATOM     16  H   UNL     1      48.259   9.376  13.487  0.00  0.00    +0.000 HD
ENDBRANCH   7  10
ENDBRANCH   5   7
BRANCH   1  17
ATOM     17  O   UNL     1      43.907   2.665  10.013  0.00  0.00    +0.000 OA
BRANCH  17  21
ATOM     18  C   UNL     1      46.762   2.630   7.043  0.00  0.00    +0.000 A 
ATOM     19  C   UNL     1      46.038   3.791   7.295  0.00  0.00    +0.000 A 
ATOM     20  C   UNL     1      45.107   3.809   8.330  0.00  0.00    +0.000 A 
ATOM     21  C   UNL     1      44.927   2.648   9.062  0.00  0.00    +0.000 A 
ATOM     22  N   UNL     1      45.658   1.523   8.870  0.00  0.00    +0.000 NA
ATOM     23  C   UNL     1      46.551   1.535   7.862  0.00  0.00    +0.000 A 
ENDBRANCH  17  21
ENDBRANCH   1  17
TORSDOF 4
ENDMDL
MODEL 4
REMARK VINA RESULT:    -6.359      3.783      6.895
REMARK INTER + INTRA:          -8.153
REMARK INTER:                  -8.099
REMARK INTRA:                  -0.054
REMARK UNBOUND:                -0.307
REMARK  Name = 
REMARK  4 active torsions:
REMARK  status: ('A' for Active; 'I' for Inactive)
REMARK    1  A    between atoms: C_4  and  O_5
REMARK    2  A    between atoms: O_5  and  C_6
REMARK    3  A    between atoms: C_10  and  C_11
REMARK    4  A    between atoms: C_11  and  C_12
REMARK                            x       y       z     vdW  Elec       q    Type
REMARK                         _______ _______ _______ _____ _____    ______ ____
ROOT
ATOM      1  C   UNL     1      48.481   6.825  14.779  0.00  0.00    +0.000 A 
ATOM      2  C   UNL     1      49.584   7.230  14.029  0.00  0.00    +0.000 A 
ATOM      3  C   UNL     1      49.490   7.301  12.645  0.00  0.00    +0.000 A 
ATOM      4  C   UNL     1      48.289   6.967  12.010  0.00  0.00    +0.000 A 
ATOM      5  C   UNL     1      47.155   6.582  12.748  0.00  0.00    +0.000 A 
ATOM      6  C   UNL     1      47.263   6.576  14.149  0.00  0.00    +0.000 A 
ENDROOT
BRANCH   5   7
ATOM      7  C   UNL     1      45.874   6.065  12.067  0.00  0.00    +0.000 C 
ATOM      8  C   UNL     1      45.915   6.063  10.539  0.00  0.00    +0.000 C 
ATOM      9  C   UNL     1      45.116   7.110  11.245  0.00  0.00    +0.000 C 
BRANCH   7  10
ATOM     10  C   UNL     1      45.093   5.000  12.871  0.00  0.00    +0.000 C 
ATOM     11  C   UNL     1      45.382   3.564  12.393  0.00  0.00    +0.000 C 
ATOM     12  C   UNL     1      44.522   3.155  11.200  0.00  0.00    +0.000 C 
ATOM     13  N   UNL     1      43.094   3.266  11.507  0.00  0.00    +0.000 NA
ATOM     14  C   UNL     1      42.742   4.642  11.853  0.00  0.00    +0.000 C 
ATOM     15  C   UNL     1      43.569   5.182  13.019  0.00  0.00    +0.000 C 
ATOM     16  H   UNL     1      42.880   2.662  12.301  0.00  0.00    +0.000 HD
ENDBRANCH   7  10
ENDBRANCH   5   7
BRANCH   1  17
ATOM     17  O   UNL     1      48.537   6.637  16.137  0.00  0.00    +0.000 OA
BRANCH  17  21
ATOM     18  C   UNL     1      49.169   2.831  17.579  0.00  0.00    +0.000 A 
ATOM     19  C   UNL     1      47.907   3.199  17.124  0.00  0.00    +0.000 A 
ATOM     20  C   UNL     1      47.711   4.472  16.596  0.00  0.00    +0.000 A 
ATOM     21  C   UNL     1      48.793   5.335  16.564  0.00  0.00    +0.000 A 
ATOM     22  N   UNL     1      50.043   4.981  16.951  0.00  0.00    +0.000 NA
ATOM     23  C   UNL     1      50.202   3.743  17.458  0.00  0.00    +0.000 A 
ENDBRANCH  17  21
ENDBRANCH   1  17
TORSDOF 4
ENDMDL
MODEL 5
REMARK VINA RESULT:    -5.954      2.440      6.536
REMARK INTER + INTRA:          -7.653
REMARK INTER:                  -7.245
REMARK INTRA:                  -0.409
REMARK UNBOUND:                -0.307
REMARK  Name = 
REMARK  4 active torsions:
REMARK  status: ('A' for Active; 'I' for Inactive)
REMARK    1  A    between atoms: C_4  and  O_5
REMARK    2  A    between atoms: O_5  and  C_6
REMARK    3  A    between atoms: C_10  and  C_11
REMARK    4  A    between atoms: C_11  and  C_12
REMARK                            x       y       z     vdW  Elec       q    Type
REMARK                         _______ _______ _______ _____ _____    ______ ____
ROOT
ATOM      1  C   UNL     1      46.391   8.580  12.801  0.00  0.00    +0.000 A 
ATOM      2  C   UNL     1      45.781   9.654  12.154  0.00  0.00    +0.000 A 
ATOM      3  C   UNL     1      44.613   9.450  11.430  0.00  0.00    +0.000 A 
ATOM      4  C   UNL     1      44.054   8.171  11.353  0.00  0.00    +0.000 A 
ATOM      5  C   UNL     1      44.638   7.077  12.020  0.00  0.00    +0.000 A 
ATOM      6  C   UNL     1      45.785   7.325  12.793  0.00  0.00    +0.000 A 
ENDROOT
BRANCH   5   7
ATOM      7  C   UNL     1      44.130   5.636  11.828  0.00  0.00    +0.000 C 
ATOM      8  C   UNL     1      42.629   5.516  11.556  0.00  0.00    +0.000 C 
ATOM      9  C   UNL     1      43.157   5.148  12.905  0.00  0.00    +0.000 C 
BRANCH   7  10
ATOM     10  C   UNL     1      45.159   4.658  11.216  0.00  0.00    +0.000 C 
ATOM     11  C   UNL     1      45.435   4.942   9.726  0.00  0.00    +0.000 C 
ATOM     12  C   UNL     1      44.410   4.290   8.802  0.00  0.00    +0.000 C 
ATOM     13  N   UNL     1      44.358   2.840   9.000  0.00  0.00    +0.000 NA
ATOM     14  C   UNL     1      43.980   2.515  10.374  0.00  0.00    +0.000 C 
ATOM     15  C   UNL     1      44.918   3.147  11.403  0.00  0.00    +0.000 C 
ATOM     16  H   UNL     1      45.281   2.448   8.810  0.00  0.00    +0.000 HD
ENDBRANCH   7  10
ENDBRANCH   5   7
BRANCH   1  17
ATOM     17  O   UNL     1      47.596   8.693  13.447  0.00  0.00    +0.000 OA
BRANCH  17  21
ATOM     18  C   UNL     1      51.028   8.961  11.186  0.00  0.00    +0.000 A 
ATOM     19  C   UNL     1      50.399   7.731  11.348  0.00  0.00    +0.000 A 
ATOM     20  C   UNL     1      49.215   7.656  12.075  0.00  0.00    +0.000 A 
ATOM     21  C   UNL     1      48.718   8.822  12.630  0.00  0.00    +0.000 A 
ATOM     22  N   UNL     1      49.284  10.039  12.441  0.00  0.00    +0.000 NA
ATOM     23  C   UNL     1      50.429  10.081  11.733  0.00  0.00    +0.000 A 
ENDBRANCH  17  21
ENDBRANCH   1  17
TORSDOF 4
ENDMDL
MODEL 6
REMARK VINA RESULT:    -5.949      4.061      5.670
REMARK INTER + INTRA:          -7.647
REMARK INTER:                  -7.127
REMARK INTRA:                  -0.521
REMARK UNBOUND:                -0.307
REMARK  Name = 
REMARK  4 active torsions:
REMARK  status: ('A' for Active; 'I' for Inactive)
REMARK    1  A    between atoms: C_4  and  O_5
REMARK    2  A    between atoms: O_5  and  C_6
REMARK    3  A    between atoms: C_10  and  C_11
REMARK    4  A    between atoms: C_11  and  C_12
REMARK                            x       y       z     vdW  Elec       q    Type
REMARK                         _______ _______ _______ _____ _____    ______ ____
ROOT
ATOM      1  C   UNL     1      46.838   4.345  13.704  0.00  0.00    +0.000 A 
ATOM      2  C   UNL     1      45.503   4.664  13.463  0.00  0.00    +0.000 A 
ATOM      3  C   UNL     1      45.171   5.925  12.985  0.00  0.00    +0.000 A 
ATOM      4  C   UNL     1      46.175   6.867  12.745  0.00  0.00    +0.000 A 
ATOM      5  C   UNL     1      47.532   6.558  12.955  0.00  0.00    +0.000 A 
ATOM      6  C   UNL     1      47.842   5.257  13.383  0.00  0.00    +0.000 A 
ENDROOT
BRANCH   5   7
ATOM      7  C   UNL     1      48.640   7.622  12.844  0.00  0.00    +0.000 C 
ATOM      8  C   UNL     1      48.276   8.841  11.994  0.00  0.00    +0.000 C 
ATOM      9  C   UNL     1      49.208   7.815  11.436  0.00  0.00    +0.000 C 
BRANCH   7  10
ATOM     10  C   UNL     1      49.571   7.724  14.074  0.00  0.00    +0.000 C 
ATOM     11  C   UNL     1      48.798   7.717  15.407  0.00  0.00    +0.000 C 
ATOM     12  C   UNL     1      48.287   9.100  15.800  0.00  0.00    +0.000 C 
ATOM     13  N   UNL     1      49.383  10.066  15.902  0.00  0.00    +0.000 NA
ATOM     14  C   UNL     1      50.077  10.201  14.623  0.00  0.00    +0.000 C 
ATOM     15  C   UNL     1      50.608   8.865  14.102  0.00  0.00    +0.000 C 
ATOM     16  H   UNL     1      50.046   9.739  16.604  0.00  0.00    +0.000 HD
ENDBRANCH   7  10
ENDBRANCH   5   7
BRANCH   1  17
ATOM     17  O   UNL     1      47.225   3.156  14.270  0.00  0.00    +0.000 OA
BRANCH  17  21
ATOM     18  C   UNL     1      48.786   3.589  18.057  0.00  0.00    +0.000 A 
ATOM     19  C   UNL     1      47.673   4.332  17.678  0.00  0.00    +0.000 A 
ATOM     20  C   UNL     1      47.123   4.147  16.412  0.00  0.00    +0.000 A 
ATOM     21  C   UNL     1      47.729   3.233  15.568  0.00  0.00    +0.000 A 
ATOM     22  N   UNL     1      48.780   2.460  15.935  0.00  0.00    +0.000 NA
ATOM     23  C   UNL     1      49.291   2.660  17.165  0.00  0.00    +0.000 A 
ENDBRANCH  17  21
ENDBRANCH   1  17
TORSDOF 4
ENDMDL
MODEL 7
REMARK VINA RESULT:    -5.894      2.662      3.625
REMARK INTER + INTRA:          -7.580
REMARK INTER:                  -7.096
REMARK INTRA:                  -0.484
REMARK UNBOUND:                -0.307
REMARK  Name = 
REMARK  4 active torsions:
REMARK  status: ('A' for Active; 'I' for Inactive)
REMARK    1  A    between atoms: C_4  and  O_5
REMARK    2  A    between atoms: O_5  and  C_6
REMARK    3  A    between atoms: C_10  and  C_11
REMARK    4  A    between atoms: C_11  and  C_12
REMARK                            x       y       z     vdW  Elec       q    Type
REMARK                         _______ _______ _______ _____ _____    ______ ____
ROOT
ATOM      1  C   UNL     1      46.903   4.370  13.972  0.00  0.00    +0.000 A 
ATOM      2  C   UNL     1      47.309   4.190  15.294  0.00  0.00    +0.000 A 
ATOM      3  C   UNL     1      48.051   5.178  15.928  0.00  0.00    +0.000 A 
ATOM      4  C   UNL     1      48.386   6.348  15.241  0.00  0.00    +0.000 A 
ATOM      5  C   UNL     1      47.965   6.564  13.916  0.00  0.00    +0.000 A 
ATOM      6  C   UNL     1      47.167   5.573  13.320  0.00  0.00    +0.000 A 
ENDROOT
BRANCH   5   7
ATOM      7  C   UNL     1      48.447   7.771  13.090  0.00  0.00    +0.000 C 
ATOM      8  C   UNL     1      48.850   7.444  11.651  0.00  0.00    +0.000 C 
ATOM      9  C   UNL     1      49.916   7.712  12.663  0.00  0.00    +0.000 C 
BRANCH   7  10
ATOM     10  C   UNL     1      47.810   9.124  13.480  0.00  0.00    +0.000 C 
ATOM     11  C   UNL     1      46.269   9.076  13.484  0.00  0.00    +0.000 C 
ATOM     12  C   UNL     1      45.669   9.302  12.099  0.00  0.00    +0.000 C 
ATOM     13  N   UNL     1      46.094  10.584  11.534  0.00  0.00    +0.000 NA
ATOM     14  C   UNL     1      47.548  10.635  11.396  0.00  0.00    +0.000 C 
ATOM     15  C   UNL     1      48.270  10.384  12.720  0.00  0.00    +0.000 C 
ATOM     16  H   UNL     1      45.796  11.334  12.158  0.00  0.00    +0.000 HD
ENDBRANCH   7  10
ENDBRANCH   5   7
BRANCH   1  17
ATOM     17  O   UNL     1      46.257   3.394  13.257  0.00  0.00    +0.000 OA
BRANCH  17  21
ATOM     18  C   UNL     1      42.799   4.655  11.408  0.00  0.00    +0.000 A 
ATOM     19  C   UNL     1      43.804   4.049  10.660  0.00  0.00    +0.000 A 
ATOM     20  C   UNL     1      44.950   3.585  11.298  0.00  0.00    +0.000 A 
ATOM     21  C   UNL     1      45.050   3.765  12.667  0.00  0.00    +0.000 A 
ATOM     22  N   UNL     1      44.062   4.303  13.424  0.00  0.00    +0.000 NA
ATOM     23  C   UNL     1      42.964   4.743  12.779  0.00  0.00    +0.000 A 
ENDBRANCH  17  21
ENDBRANCH   1  17
TORSDOF 4
ENDMDL
MODEL 8
REMARK VINA RESULT:    -5.846      2.693      7.096
REMARK INTER + INTRA:          -7.520
REMARK INTER:                  -7.181
REMARK INTRA:                  -0.339
REMARK UNBOUND:                -0.307
REMARK  Name = 
REMARK  4 active torsions:
REMARK  status: ('A' for Active; 'I' for Inactive)
REMARK    1  A    between atoms: C_4  and  O_5
REMARK    2  A    between atoms: O_5  and  C_6
REMARK    3  A    between atoms: C_10  and  C_11
REMARK    4  A    between atoms: C_11  and  C_12
REMARK                            x       y       z     vdW  Elec       q    Type
REMARK                         _______ _______ _______ _____ _____    ______ ____
ROOT
ATOM      1  C   UNL     1      47.182   8.312  12.552  0.00  0.00    +0.000 A 
ATOM      2  C   UNL     1      46.603   9.523  12.175  0.00  0.00    +0.000 A 
ATOM      3  C   UNL     1      45.312   9.541  11.664  0.00  0.00    +0.000 A 
ATOM      4  C   UNL     1      44.599   8.346  11.530  0.00  0.00    +0.000 A 
ATOM      5  C   UNL     1      45.153   7.115  11.928  0.00  0.00    +0.000 A 
ATOM      6  C   UNL     1      46.437   7.136  12.496  0.00  0.00    +0.000 A 
ENDROOT
BRANCH   5   7
ATOM      7  C   UNL     1      44.449   5.774  11.650  0.00  0.00    +0.000 C 
ATOM      8  C   UNL     1      42.965   5.888  11.302  0.00  0.00    +0.000 C 
ATOM      9  C   UNL     1      43.359   5.398  12.658  0.00  0.00    +0.000 C 
BRANCH   7  10
ATOM     10  C   UNL     1      45.355   4.675  11.047  0.00  0.00    +0.000 C 
ATOM     11  C   UNL     1      45.583   4.858   9.534  0.00  0.00    +0.000 C 
ATOM     12  C   UNL     1      44.459   4.259   8.692  0.00  0.00    +0.000 C 
ATOM     13  N   UNL     1      44.286   2.832   8.969  0.00  0.00    +0.000 NA
ATOM     14  C   UNL     1      43.948   2.612  10.373  0.00  0.00    +0.000 C 
ATOM     15  C   UNL     1      44.988   3.204  11.325  0.00  0.00    +0.000 C 
ATOM     16  H   UNL     1      45.160   2.348   8.760  0.00  0.00    +0.000 HD
ENDBRANCH   7  10
ENDBRANCH   5   7
BRANCH   1  17
ATOM     17  O   UNL     1      48.486   8.213  12.969  0.00  0.00    +0.000 OA
BRANCH  17  21
ATOM     18  C   UNL     1      49.199   7.555  16.972  0.00  0.00    +0.000 A 
ATOM     19  C   UNL     1      48.544   8.713  16.566  0.00  0.00    +0.000 A 
ATOM     20  C   UNL     1      48.267   8.908  15.215  0.00  0.00    +0.000 A 
ATOM     21  C   UNL     1      48.676   7.934  14.321  0.00  0.00    +0.000 A 
ATOM     22  N   UNL     1      49.266   6.774  14.699  0.00  0.00    +0.000 NA
ATOM     23  C   UNL     1      49.522   6.613  16.011  0.00  0.00    +0.000 A 
ENDBRANCH  17  21
ENDBRANCH   1  17
TORSDOF 4
ENDMDL
MODEL 9
REMARK VINA RESULT:    -5.799      4.898      6.446
REMARK INTER + INTRA:          -7.461
REMARK INTER:                  -7.318
REMARK INTRA:                  -0.144
REMARK UNBOUND:                -0.307
REMARK  Name = 
REMARK  4 active torsions:
REMARK  status: ('A' for Active; 'I' for Inactive)
REMARK    1  A    between atoms: C_4  and  O_5
REMARK    2  A    between atoms: O_5  and  C_6
REMARK    3  A    between atoms: C_10  and  C_11
REMARK    4  A    between atoms: C_11  and  C_12
REMARK                            x       y       z     vdW  Elec       q    Type
REMARK                         _______ _______ _______ _____ _____    ______ ____
ROOT
ATOM      1  C   UNL     1      46.912   4.497  13.895  0.00  0.00    +0.000 A 
ATOM      2  C   UNL     1      47.277   5.650  13.201  0.00  0.00    +0.000 A 
ATOM      3  C   UNL     1      48.022   6.633  13.840  0.00  0.00    +0.000 A 
ATOM      4  C   UNL     1      48.403   6.463  15.174  0.00  0.00    +0.000 A 
ATOM      5  C   UNL     1      48.068   5.296  15.886  0.00  0.00    +0.000 A 
ATOM      6  C   UNL     1      47.365   4.294  15.197  0.00  0.00    +0.000 A 
ENDROOT
BRANCH   5   7
ATOM      7  C   UNL     1      48.343   5.152  17.395  0.00  0.00    +0.000 C 
ATOM      8  C   UNL     1      47.744   3.901  18.039  0.00  0.00    +0.000 C 
ATOM      9  C   UNL     1      47.100   5.227  18.286  0.00  0.00    +0.000 C 
BRANCH   7  10
ATOM     10  C   UNL     1      49.678   5.767  17.876  0.00  0.00    +0.000 C 
ATOM     11  C   UNL     1      50.908   4.991  17.367  0.00  0.00    +0.000 C 
ATOM     12  C   UNL     1      51.255   3.793  18.247  0.00  0.00    +0.000 C 
ATOM     13  N   UNL     1      51.500   4.199  19.632  0.00  0.00    +0.000 NA
ATOM     14  C   UNL     1      50.315   4.837  20.204  0.00  0.00    +0.000 C 
ATOM     15  C   UNL     1      49.844   6.038  19.385  0.00  0.00    +0.000 C 
ATOM     16  H   UNL     1      52.272   4.865  19.648  0.00  0.00    +0.000 HD
ENDBRANCH   7  10
ENDBRANCH   5   7
BRANCH   1  17
ATOM     17  O   UNL     1      46.093   3.537  13.356  0.00  0.00    +0.000 OA
BRANCH  17  21
ATOM     18  C   UNL     1      42.819   5.079  11.389  0.00  0.00    +0.000 A 
ATOM     19  C   UNL     1      43.874   4.537  10.661  0.00  0.00    +0.000 A 
ATOM     20  C   UNL     1      44.956   3.977  11.333  0.00  0.00    +0.000 A 
ATOM     21  C   UNL     1      44.944   4.001  12.717  0.00  0.00    +0.000 A 
ATOM     22  N   UNL     1      43.905   4.474  13.447  0.00  0.00    +0.000 NA
ATOM     23  C   UNL     1      42.871   5.009  12.770  0.00  0.00    +0.000 A 
ENDBRANCH  17  21
ENDBRANCH   1  17
TORSDOF 4
ENDMDL
