MODEL 1
REMARK VINA RESULT:    -8.010      0.000      0.000
REMARK INTER + INTRA:          -9.201
REMARK INTER:                  -9.415
REMARK INTRA:                   0.214
REMARK UNBOUND:                 0.214
REMARK  Name = 
REMARK  3 active torsions:
REMARK  status: ('A' for Active; 'I' for Inactive)
REMARK    1  A    between atoms: C_4  and  C_5
REMARK    2  A    between atoms: C_9  and  C_10
REMARK    3  A    between atoms: C_10  and  N_11
REMARK                            x       y       z     vdW  Elec       q    Type
REMARK                         _______ _______ _______ _____ _____    ______ ____
ROOT
ATOM      1  C   UNL     1      47.337   6.597  12.514  0.00  0.00    +0.000 A 
ATOM      2  C   UNL     1      47.557   5.771  13.628  0.00  0.00    +0.000 A 
ATOM      3  C   UNL     1      46.698   4.705  13.912  0.00  0.00    +0.000 A 
ATOM      4  C   UNL     1      45.616   4.428  13.077  0.00  0.00    +0.000 A 
ATOM      5  C   UNL     1      45.364   5.208  11.939  0.00  0.00    +0.000 A 
ATOM      6  C   UNL     1      46.226   6.294  11.707  0.00  0.00    +0.000 A 
ENDROOT
BRANCH   1  10
ATOM      7  C   UNL     1      49.864   9.913  11.430  0.00  0.00    +0.000 A 
ATOM      8  C   UNL     1      50.376   8.623  11.449  0.00  0.00    +0.000 A 
ATOM      9  C   UNL     1      49.560   7.556  11.832  0.00  0.00    +0.000 A 
ATOM     10  C   UNL     1      48.208   7.747  12.184  0.00  0.00    +0.000 A 
ATOM     11  C   UNL     1      47.721   9.065  12.169  0.00  0.00    +0.000 A 
ATOM     12  C   UNL     1      48.539  10.137  11.798  0.00  0.00    +0.000 A 
ENDBRANCH   1  10
BRANCH   5  13
ATOM     13  C   UNL     1      44.225   4.913  10.969  0.00  0.00    +0.000 C 
ATOM     14  C   UNL     1      42.825   5.283  11.432  0.00  0.00    +0.000 C 
ATOM     15  C   UNL     1      43.205   3.844  11.340  0.00  0.00    +0.000 C 
BRANCH  13  16
ATOM     16  N   UNL     1      44.572   5.057   9.551  0.00  0.00    +0.000 N 
ATOM     17  C   UNL     1      45.195   4.015   8.854  0.00  0.00    +0.000 A 
ATOM     18  N   UNL     1      45.266   2.783   9.393  0.00  0.00    +0.000 NA
ATOM     19  C   UNL     1      45.854   1.818   8.666  0.00  0.00    +0.000 A 
ATOM     20  C   UNL     1      46.351   2.023   7.405  0.00  0.00    +0.000 A 
ATOM     21  C   UNL     1      46.225   3.305   6.932  0.00  0.00    +0.000 A 
ATOM     22  N   UNL     1      45.671   4.313   7.636  0.00  0.00    +0.000 NA
ATOM     23  H   UNL     1      44.926   5.933   9.191  0.00  0.00    +0.000 HD
ENDBRANCH  13  16
ENDBRANCH   5  13
TORSDOF 3
ENDMDL
MODEL 2
REMARK VINA RESULT:    -7.989      1.844      3.900
REMARK INTER + INTRA:          -9.177
REMARK INTER:                  -8.755
REMARK INTRA:                  -0.421
REMARK UNBOUND:                 0.214
REMARK  Name = 
REMARK  3 active torsions:
REMARK  status: ('A' for Active; 'I' for Inactive)
REMARK    1  A    between atoms: C_4  and  C_5
REMARK    2  A    between atoms: C_9  and  C_10
REMARK    3  A    between atoms: C_10  and  N_11
REMARK                            x       y       z     vdW  Elec       q    Type
REMARK                         _______ _______ _______ _____ _____    ______ ____
ROOT
ATOM      1  C   UNL     1      47.062   5.345  13.833  0.00  0.00    +0.000 A 
ATOM      2  C   UNL     1      47.471   6.548  13.235  0.00  0.00    +0.000 A 
ATOM      3  C   UNL     1      46.975   6.933  11.986  0.00  0.00    +0.000 A 
ATOM      4  C   UNL     1      46.042   6.139  11.321  0.00  0.00    +0.000 A 
ATOM      5  C   UNL     1      45.583   4.939  11.885  0.00  0.00    +0.000 A 
ATOM      6  C   UNL     1      46.133   4.565  13.123  0.00  0.00    +0.000 A 
ENDROOT
BRANCH   1  10
ATOM      7  C   UNL     1      48.462   4.082  17.707  0.00  0.00    +0.000 A 
ATOM      8  C   UNL     1      48.775   5.348  17.231  0.00  0.00    +0.000 A 
ATOM      9  C   UNL     1      48.345   5.740  15.962  0.00  0.00    +0.000 A 
ATOM     10  C   UNL     1      47.574   4.887  15.144  0.00  0.00    +0.000 A 
ATOM     11  C   UNL     1      47.284   3.607  15.646  0.00  0.00    +0.000 A 
ATOM     12  C   UNL     1      47.724   3.207  16.913  0.00  0.00    +0.000 A 
ENDBRANCH   1  10
BRANCH   5  13
ATOM     13  C   UNL     1      44.528   4.063  11.219  0.00  0.00    +0.000 C 
ATOM     14  C   UNL     1      43.385   4.785  10.522  0.00  0.00    +0.000 C 
ATOM     15  C   UNL     1      43.116   4.052  11.793  0.00  0.00    +0.000 C 
BRANCH  13  16
ATOM     16  N   UNL     1      45.038   2.811  10.649  0.00  0.00    +0.000 N 
ATOM     17  C   UNL     1      45.541   2.768   9.344  0.00  0.00    +0.000 A 
ATOM     18  N   UNL     1      45.794   3.907   8.673  0.00  0.00    +0.000 NA
ATOM     19  C   UNL     1      46.298   3.801   7.432  0.00  0.00    +0.000 A 
ATOM     20  C   UNL     1      46.590   2.601   6.839  0.00  0.00    +0.000 A 
ATOM     21  C   UNL     1      46.309   1.494   7.598  0.00  0.00    +0.000 A 
ATOM     22  N   UNL     1      45.775   1.548   8.835  0.00  0.00    +0.000 NA
ATOM     23  H   UNL     1      44.579   1.930  10.840  0.00  0.00    +0.000 HD
ENDBRANCH  13  16
ENDBRANCH   5  13
TORSDOF 3
ENDMDL
MODEL 3
REMARK VINA RESULT:    -7.742      2.212      6.411
REMARK INTER + INTRA:          -8.886
REMARK INTER:                  -8.736
REMARK INTRA:                  -0.150
REMARK UNBOUND:                 0.214
REMARK  Name = 
REMARK  3 active torsions:
REMARK  status: ('A' for Active; 'I' for Inactive)
REMARK    1  A    between atoms: C_4  and  C_5
REMARK    2  A    between atoms: C_9  and  C_10
REMARK    3  A    between atoms: C_10  and  N_11
REMARK                            x       y       z     vdW  Elec       q    Type
REMARK                         _______ _______ _______ _____ _____    ______ ____
ROOT
ATOM      1  C   UNL     1      45.147   3.406   9.521  0.00  0.00    +0.000 A 
ATOM      2  C   UNL     1      44.114   2.752  10.211  0.00  0.00    +0.000 A 
ATOM      3  C   UNL     1      43.525   3.333  11.339  0.00  0.00    +0.000 A 
ATOM      4  C   UNL     1      43.938   4.588  11.784  0.00  0.00    +0.000 A 
ATOM      5  C   UNL     1      44.950   5.293  11.117  0.00  0.00    +0.000 A 
ATOM      6  C   UNL     1      45.546   4.662  10.012  0.00  0.00    +0.000 A 
ENDROOT
BRANCH   1  10
ATOM      7  C   UNL     1      47.195   1.765   6.104  0.00  0.00    +0.000 A 
ATOM      8  C   UNL     1      46.779   3.090   6.099  0.00  0.00    +0.000 A 
ATOM      9  C   UNL     1      46.088   3.607   7.196  0.00  0.00    +0.000 A 
ATOM     10  C   UNL     1      45.814   2.822   8.336  0.00  0.00    +0.000 A 
ATOM     11  C   UNL     1      46.234   1.481   8.307  0.00  0.00    +0.000 A 
ATOM     12  C   UNL     1      46.916   0.957   7.204  0.00  0.00    +0.000 A 
ENDBRANCH   1  10
BRANCH   5  13
ATOM     13  C   UNL     1      45.400   6.689  11.536  0.00  0.00    +0.000 C 
ATOM     14  C   UNL     1      44.712   7.289  12.752  0.00  0.00    +0.000 C 
ATOM     15  C   UNL     1      44.418   7.847  11.401  0.00  0.00    +0.000 C 
BRANCH  13  16
ATOM     16  N   UNL     1      46.820   6.973  11.303  0.00  0.00    +0.000 N 
ATOM     17  C   UNL     1      47.725   7.039  12.369  0.00  0.00    +0.000 A 
ATOM     18  N   UNL     1      47.368   6.606  13.592  0.00  0.00    +0.000 NA
ATOM     19  C   UNL     1      48.287   6.672  14.570  0.00  0.00    +0.000 A 
ATOM     20  C   UNL     1      49.564   7.127  14.372  0.00  0.00    +0.000 A 
ATOM     21  C   UNL     1      49.843   7.538  13.093  0.00  0.00    +0.000 A 
ATOM     22  N   UNL     1      48.945   7.519  12.087  0.00  0.00    +0.000 NA
ATOM     23  H   UNL     1      47.106   7.646  10.605  0.00  0.00    +0.000 HD
ENDBRANCH  13  16
ENDBRANCH   5  13
TORSDOF 3
ENDMDL
MODEL 4
REMARK VINA RESULT:    -7.718      3.084      6.624
REMARK INTER + INTRA:          -8.857
REMARK INTER:                  -8.328
REMARK INTRA:                  -0.529
REMARK UNBOUND:                 0.214
REMARK  Name = 
REMARK  3 active torsions:
REMARK  status: ('A' for Active; 'I' for Inactive)
REMARK    1  A    between atoms: C_4  and  C_5
REMARK    2  A    between atoms: C_9  and  C_10
REMARK    3  A    between atoms: C_10  and  N_11
REMARK                            x       y       z     vdW  Elec       q    Type
REMARK                         _______ _______ _______ _____ _____    ______ ____
ROOT
ATOM      1  C   UNL     1      44.594   4.686  10.500  0.00  0.00    +0.000 A 
ATOM      2  C   UNL     1      43.356   4.375  11.084  0.00  0.00    +0.000 A 
ATOM      3  C   UNL     1      42.835   5.157  12.120  0.00  0.00    +0.000 A 
ATOM      4  C   UNL     1      43.527   6.280  12.574  0.00  0.00    +0.000 A 
ATOM      5  C   UNL     1      44.756   6.647  12.009  0.00  0.00    +0.000 A 
ATOM      6  C   UNL     1      45.267   5.815  10.998  0.00  0.00    +0.000 A 
ENDROOT
BRANCH   1  10
ATOM      7  C   UNL     1      46.456   2.352   7.393  0.00  0.00    +0.000 A 
ATOM      8  C   UNL     1      46.493   3.739   7.342  0.00  0.00    +0.000 A 
ATOM      9  C   UNL     1      45.861   4.490   8.335  0.00  0.00    +0.000 A 
ATOM     10  C   UNL     1      45.194   3.877   9.416  0.00  0.00    +0.000 A 
ATOM     11  C   UNL     1      45.160   2.472   9.434  0.00  0.00    +0.000 A 
ATOM     12  C   UNL     1      45.782   1.717   8.434  0.00  0.00    +0.000 A 
ENDBRANCH   1  10
BRANCH   5  13
ATOM     13  C   UNL     1      45.525   7.892  12.437  0.00  0.00    +0.000 C 
ATOM     14  C   UNL     1      46.882   8.111  11.789  0.00  0.00    +0.000 C 
ATOM     15  C   UNL     1      46.817   7.721  13.227  0.00  0.00    +0.000 C 
BRANCH  13  16
ATOM     16  N   UNL     1      44.686   9.054  12.754  0.00  0.00    +0.000 N 
ATOM     17  C   UNL     1      44.176   9.871  11.739  0.00  0.00    +0.000 A 
ATOM     18  N   UNL     1      44.236   9.477  10.453  0.00  0.00    +0.000 NA
ATOM     19  C   UNL     1      43.709  10.293   9.525  0.00  0.00    +0.000 A 
ATOM     20  C   UNL     1      43.094  11.479   9.829  0.00  0.00    +0.000 A 
ATOM     21  C   UNL     1      43.070  11.796  11.164  0.00  0.00    +0.000 A 
ATOM     22  N   UNL     1      43.613  11.024  12.128  0.00  0.00    +0.000 NA
ATOM     23  H   UNL     1      44.889   9.636  13.556  0.00  0.00    +0.000 HD
ENDBRANCH  13  16
ENDBRANCH   5  13
TORSDOF 3
ENDMDL
MODEL 5
REMARK VINA RESULT:    -7.451      2.222      6.409
REMARK INTER + INTRA:          -8.544
REMARK INTER:                  -8.078
REMARK INTRA:                  -0.466
REMARK UNBOUND:                 0.214
REMARK  Name = 
REMARK  3 active torsions:
REMARK  status: ('A' for Active; 'I' for Inactive)
REMARK    1  A    between atoms: C_4  and  C_5
REMARK    2  A    between atoms: C_9  and  C_10
REMARK    3  A    between atoms: C_10  and  N_11
REMARK                            x       y       z     vdW  Elec       q    Type
REMARK                         _______ _______ _______ _____ _____    ______ ____
ROOT
ATOM      1  C   UNL     1      44.982   4.070   9.918  0.00  0.00    +0.000 A 
ATOM      2  C   UNL     1      43.623   4.422   9.936  0.00  0.00    +0.000 A 
ATOM      3  C   UNL     1      43.072   5.098  11.029  0.00  0.00    +0.000 A 
ATOM      4  C   UNL     1      43.871   5.458  12.114  0.00  0.00    +0.000 A 
ATOM      5  C   UNL     1      45.239   5.150  12.135  0.00  0.00    +0.000 A 
ATOM      6  C   UNL     1      45.750   4.436  11.038  0.00  0.00    +0.000 A 
ENDROOT
BRANCH   1  10
ATOM      7  C   UNL     1      46.911   1.976   6.683  0.00  0.00    +0.000 A 
ATOM      8  C   UNL     1      46.768   3.356   6.635  0.00  0.00    +0.000 A 
ATOM      9  C   UNL     1      46.114   4.025   7.671  0.00  0.00    +0.000 A 
ATOM     10  C   UNL     1      45.605   3.338   8.793  0.00  0.00    +0.000 A 
ATOM     11  C   UNL     1      45.752   1.940   8.808  0.00  0.00    +0.000 A 
ATOM     12  C   UNL     1      46.395   1.265   7.765  0.00  0.00    +0.000 A 
ENDBRANCH   1  10
BRANCH   5  13
ATOM     13  C   UNL     1      46.163   5.565  13.275  0.00  0.00    +0.000 C 
ATOM     14  C   UNL     1      47.388   4.697  13.509  0.00  0.00    +0.000 C 
ATOM     15  C   UNL     1      46.272   4.662  14.498  0.00  0.00    +0.000 C 
BRANCH  13  16
ATOM     16  N   UNL     1      46.259   7.014  13.491  0.00  0.00    +0.000 N 
ATOM     17  C   UNL     1      47.289   7.761  12.910  0.00  0.00    +0.000 A 
ATOM     18  N   UNL     1      48.065   7.221  11.951  0.00  0.00    +0.000 NA
ATOM     19  C   UNL     1      49.022   7.995  11.414  0.00  0.00    +0.000 A 
ATOM     20  C   UNL     1      49.222   9.302  11.773  0.00  0.00    +0.000 A 
ATOM     21  C   UNL     1      48.380   9.772  12.749  0.00  0.00    +0.000 A 
ATOM     22  N   UNL     1      47.425   9.024  13.340  0.00  0.00    +0.000 NA
ATOM     23  H   UNL     1      46.047   7.417  14.394  0.00  0.00    +0.000 HD
ENDBRANCH  13  16
ENDBRANCH   5  13
TORSDOF 3
ENDMDL
MODEL 6
REMARK VINA RESULT:    -7.017      3.434      7.363
REMARK INTER + INTRA:          -8.034
REMARK INTER:                  -7.592
REMARK INTRA:                  -0.441
REMARK UNBOUND:                 0.214
REMARK  Name = 
REMARK  3 active torsions:
REMARK  status: ('A' for Active; 'I' for Inactive)
REMARK    1  A    between atoms: C_4  and  C_5
REMARK    2  A    between atoms: C_9  and  C_10
REMARK    3  A    between atoms: C_10  and  N_11
REMARK                            x       y       z     vdW  Elec       q    Type
REMARK                         _______ _______ _______ _____ _____    ______ ____
ROOT
ATOM      1  C   UNL     1      45.609   6.338  11.149  0.00  0.00    +0.000 A 
ATOM      2  C   UNL     1      44.726   7.395  11.419  0.00  0.00    +0.000 A 
ATOM      3  C   UNL     1      45.167   8.551  12.072  0.00  0.00    +0.000 A 
ATOM      4  C   UNL     1      46.504   8.685  12.445  0.00  0.00    +0.000 A 
ATOM      5  C   UNL     1      47.433   7.668  12.178  0.00  0.00    +0.000 A 
ATOM      6  C   UNL     1      46.945   6.506  11.556  0.00  0.00    +0.000 A 
ENDROOT
BRANCH   1  10
ATOM      7  C   UNL     1      44.492   2.662   9.201  0.00  0.00    +0.000 A 
ATOM      8  C   UNL     1      45.121   3.670   8.482  0.00  0.00    +0.000 A 
ATOM      9  C   UNL     1      45.452   4.871   9.112  0.00  0.00    +0.000 A 
ATOM     10  C   UNL     1      45.184   5.090  10.479  0.00  0.00    +0.000 A 
ATOM     11  C   UNL     1      44.535   4.058  11.178  0.00  0.00    +0.000 A 
ATOM     12  C   UNL     1      44.190   2.857  10.547  0.00  0.00    +0.000 A 
ENDBRANCH   1  10
BRANCH   5  13
ATOM     13  C   UNL     1      48.913   7.789  12.521  0.00  0.00    +0.000 C 
ATOM     14  C   UNL     1      49.516   9.183  12.449  0.00  0.00    +0.000 C 
ATOM     15  C   UNL     1      49.893   8.174  11.418  0.00  0.00    +0.000 C 
BRANCH  13  16
ATOM     16  N   UNL     1      49.384   6.857  13.551  0.00  0.00    +0.000 N 
ATOM     17  C   UNL     1      49.308   7.187  14.909  0.00  0.00    +0.000 A 
ATOM     18  N   UNL     1      48.585   8.248  15.312  0.00  0.00    +0.000 NA
ATOM     19  C   UNL     1      48.530   8.500  16.630  0.00  0.00    +0.000 A 
ATOM     20  C   UNL     1      49.145   7.718  17.572  0.00  0.00    +0.000 A 
ATOM     21  C   UNL     1      49.851   6.653  17.072  0.00  0.00    +0.000 A 
ATOM     22  N   UNL     1      49.960   6.377  15.756  0.00  0.00    +0.000 NA
ATOM     23  H   UNL     1      50.219   6.304  13.407  0.00  0.00    +0.000 HD
ENDBRANCH  13  16
ENDBRANCH   5  13
TORSDOF 3
ENDMDL
MODEL 7
REMARK VINA RESULT:    -6.642      4.961      7.717
REMARK INTER + INTRA:          -7.593
REMARK INTER:                  -7.355
REMARK INTRA:                  -0.238
REMARK UNBOUND:                 0.214
REMARK  Name = 
REMARK  3 active torsions:
REMARK  status: ('A' for Active; 'I' for Inactive)
REMARK    1  A    between atoms: C_4  and  C_5
REMARK    2  A    between atoms: C_9  and  C_10
REMARK    3  A    between atoms: C_10  and  N_11
REMARK                            x       y       z     vdW  Elec       q    Type
REMARK                         _______ _______ _______ _____ _____    ______ ____
ROOT
ATOM      1  C   UNL     1      47.188   5.640  13.571  0.00  0.00    +0.000 A 
ATOM      2  C   UNL     1      47.980   6.752  13.244  0.00  0.00    +0.000 A 
ATOM      3  C   UNL     1      48.867   7.300  14.175  0.00  0.00    +0.000 A 
ATOM      4  C   UNL     1      49.000   6.735  15.443  0.00  0.00    +0.000 A 
ATOM      5  C   UNL     1      48.249   5.609  15.813  0.00  0.00    +0.000 A 
ATOM      6  C   UNL     1      47.340   5.109  14.865  0.00  0.00    +0.000 A 
ENDROOT
BRANCH   1  10
ATOM      7  C   UNL     1      44.282   3.912  10.901  0.00  0.00    +0.000 A 
ATOM      8  C   UNL     1      44.712   3.205  12.016  0.00  0.00    +0.000 A 
ATOM      9  C   UNL     1      45.677   3.758  12.860  0.00  0.00    +0.000 A 
ATOM     10  C   UNL     1      46.222   5.037  12.626  0.00  0.00    +0.000 A 
ATOM     11  C   UNL     1      45.778   5.723  11.482  0.00  0.00    +0.000 A 
ATOM     12  C   UNL     1      44.820   5.167  10.628  0.00  0.00    +0.000 A 
ENDBRANCH   1  10
BRANCH   5  13
ATOM     13  C   UNL     1      48.396   4.926  17.168  0.00  0.00    +0.000 C 
ATOM     14  C   UNL     1      47.470   3.752  17.442  0.00  0.00    +0.000 C 
ATOM     15  C   UNL     1      47.254   5.034  18.171  0.00  0.00    +0.000 C 
BRANCH  13  16
ATOM     16  N   UNL     1      49.764   4.898  17.697  0.00  0.00    +0.000 N 
ATOM     17  C   UNL     1      50.525   3.725  17.662  0.00  0.00    +0.000 A 
ATOM     18  N   UNL     1      50.119   2.671  16.930  0.00  0.00    +0.000 NA
ATOM     19  C   UNL     1      50.904   1.581  16.916  0.00  0.00    +0.000 A 
ATOM     20  C   UNL     1      52.099   1.506  17.583  0.00  0.00    +0.000 A 
ATOM     21  C   UNL     1      52.438   2.629  18.295  0.00  0.00    +0.000 A 
ATOM     22  N   UNL     1      51.669   3.735  18.364  0.00  0.00    +0.000 NA
ATOM     23  H   UNL     1      50.003   5.405  18.540  0.00  0.00    +0.000 HD
ENDBRANCH  13  16
ENDBRANCH   5  13
TORSDOF 3
ENDMDL
MODEL 8
REMARK VINA RESULT:    -6.218      4.343      7.452
REMARK INTER + INTRA:          -7.095
REMARK INTER:                  -6.689
REMARK INTRA:                  -0.406
REMARK UNBOUND:                 0.214
REMARK  Name = 
REMARK  3 active torsions:
REMARK  status: ('A' for Active; 'I' for Inactive)
REMARK    1  A    between atoms: C_4  and  C_5
REMARK    2  A    between atoms: C_9  and  C_10
REMARK    3  A    between atoms: C_10  and  N_11
REMARK                            x       y       z     vdW  Elec       q    Type
REMARK                         _______ _______ _______ _____ _____    ______ ____
ROOT
ATOM      1  C   UNL     1      47.703   6.810  12.656  0.00  0.00    +0.000 A 
ATOM      2  C   UNL     1      48.545   7.362  11.677  0.00  0.00    +0.000 A 
ATOM      3  C   UNL     1      49.728   8.015  12.035  0.00  0.00    +0.000 A 
ATOM      4  C   UNL     1      50.108   8.108  13.373  0.00  0.00    +0.000 A 
ATOM      5  C   UNL     1      49.314   7.553  14.388  0.00  0.00    +0.000 A 
ATOM      6  C   UNL     1      48.113   6.939  13.994  0.00  0.00    +0.000 A 
ENDROOT
BRANCH   1  10
ATOM      7  C   UNL     1      44.070   4.721  11.656  0.00  0.00    +0.000 A 
ATOM      8  C   UNL     1      44.834   5.309  10.658  0.00  0.00    +0.000 A 
ATOM      9  C   UNL     1      45.993   6.012  10.991  0.00  0.00    +0.000 A 
ATOM     10  C   UNL     1      46.432   6.127  12.327  0.00  0.00    +0.000 A 
ATOM     11  C   UNL     1      45.632   5.533  13.318  0.00  0.00    +0.000 A 
ATOM     12  C   UNL     1      44.462   4.839  12.988  0.00  0.00    +0.000 A 
ENDBRANCH   1  10
BRANCH   5  13
ATOM     13  C   UNL     1      49.712   7.586  15.860  0.00  0.00    +0.000 C 
ATOM     14  C   UNL     1      48.634   8.006  16.847  0.00  0.00    +0.000 C 
ATOM     15  C   UNL     1      49.772   8.931  16.574  0.00  0.00    +0.000 C 
BRANCH  13  16
ATOM     16  N   UNL     1      50.687   6.563  16.256  0.00  0.00    +0.000 N 
ATOM     17  C   UNL     1      50.268   5.318  16.737  0.00  0.00    +0.000 A 
ATOM     18  N   UNL     1      48.982   4.940  16.620  0.00  0.00    +0.000 NA
ATOM     19  C   UNL     1      48.645   3.723  17.079  0.00  0.00    +0.000 A 
ATOM     20  C   UNL     1      49.547   2.850  17.628  0.00  0.00    +0.000 A 
ATOM     21  C   UNL     1      50.836   3.315  17.699  0.00  0.00    +0.000 A 
ATOM     22  N   UNL     1      51.216   4.539  17.279  0.00  0.00    +0.000 NA
ATOM     23  H   UNL     1      51.537   6.819  16.740  0.00  0.00    +0.000 HD
ENDBRANCH  13  16
ENDBRANCH   5  13
TORSDOF 3
ENDMDL
MODEL 9
REMARK VINA RESULT:    -6.065      3.534      6.043
REMARK INTER + INTRA:          -6.915
REMARK INTER:                  -6.595
REMARK INTRA:                  -0.320
REMARK UNBOUND:                 0.214
REMARK  Name = 
REMARK  3 active torsions:
REMARK  status: ('A' for Active; 'I' for Inactive)
REMARK    1  A    between atoms: C_4  and  C_5
REMARK    2  A    between atoms: C_9  and  C_10
REMARK    3  A    between atoms: C_10  and  N_11
REMARK                            x       y       z     vdW  Elec       q    Type
REMARK                         _______ _______ _______ _____ _____    ______ ____
ROOT
ATOM      1  C   UNL     1      49.121   6.602  16.418  0.00  0.00    +0.000 A 
ATOM      2  C   UNL     1      49.103   7.772  17.193  0.00  0.00    +0.000 A 
ATOM      3  C   UNL     1      48.603   8.970  16.674  0.00  0.00    +0.000 A 
ATOM      4  C   UNL     1      48.087   9.018  15.379  0.00  0.00    +0.000 A 
ATOM      5  C   UNL     1      48.061   7.872  14.570  0.00  0.00    +0.000 A 
ATOM      6  C   UNL     1      48.608   6.696  15.112  0.00  0.00    +0.000 A 
ENDROOT
BRANCH   1  10
ATOM      7  C   UNL     1      50.681   2.815  17.754  0.00  0.00    +0.000 A 
ATOM      8  C   UNL     1      49.331   2.949  17.459  0.00  0.00    +0.000 A 
ATOM      9  C   UNL     1      48.826   4.186  17.057  0.00  0.00    +0.000 A 
ATOM     10  C   UNL     1      49.658   5.317  16.918  0.00  0.00    +0.000 A 
ATOM     11  C   UNL     1      51.017   5.155  17.236  0.00  0.00    +0.000 A 
ATOM     12  C   UNL     1      51.524   3.919  17.652  0.00  0.00    +0.000 A 
ENDBRANCH   1  10
BRANCH   5  13
ATOM     13  C   UNL     1      47.462   7.863  13.168  0.00  0.00    +0.000 C 
ATOM     14  C   UNL     1      48.348   7.330  12.053  0.00  0.00    +0.000 C 
ATOM     15  C   UNL     1      48.053   8.791  12.113  0.00  0.00    +0.000 C 
BRANCH  13  16
ATOM     16  N   UNL     1      46.017   7.612  13.118  0.00  0.00    +0.000 N 
ATOM     17  C   UNL     1      45.518   6.316  12.944  0.00  0.00    +0.000 A 
ATOM     18  N   UNL     1      46.333   5.252  13.065  0.00  0.00    +0.000 NA
ATOM     19  C   UNL     1      45.791   4.032  12.912  0.00  0.00    +0.000 A 
ATOM     20  C   UNL     1      44.458   3.826  12.670  0.00  0.00    +0.000 A 
ATOM     21  C   UNL     1      43.702   4.967  12.573  0.00  0.00    +0.000 A 
ATOM     22  N   UNL     1      44.206   6.212  12.689  0.00  0.00    +0.000 NA
ATOM     23  H   UNL     1      45.396   8.256  12.645  0.00  0.00    +0.000 HD
ENDBRANCH  13  16
ENDBRANCH   5  13
TORSDOF 3
ENDMDL
