MODEL 1
REMARK VINA RESULT:    -8.183      0.000      0.000
REMARK INTER + INTRA:         -12.973
REMARK INTER:                 -11.771
REMARK INTRA:                  -1.202
REMARK UNBOUND:                -1.202
REMARK  Name = 
REMARK  9 active torsions:
REMARK  status: ('A' for Active; 'I' for Inactive)
REMARK    1  A    between atoms: C_1  and  N_2
REMARK    2  A    between atoms: C_4  and  C_5
REMARK    3  A    between atoms: N_7  and  C_8
REMARK    4  A    between atoms: C_8  and  C_9
REMARK    5  A    between atoms: C_12  and  C_13
REMARK    6  A    between atoms: C_13  and  N_14
REMARK    7  A    between atoms: N_14  and  C_15
REMARK    8  A    between atoms: C_15  and  C_16
REMARK    9  A    between atoms: C_25  and  O_26
REMARK                            x       y       z     vdW  Elec       q    Type
REMARK                         _______ _______ _______ _____ _____    ______ ____
ROOT
ATOM      1  C   UNL     1      46.846   7.821  12.999  0.00  0.00    +0.000 C 
ENDROOT
BRANCH   1   2
ATOM      2  C   UNL     1      46.030   6.678  12.463  0.00  0.00    +0.000 A 
ATOM      3  C   UNL     1      46.037   6.385  11.094  0.00  0.00    +0.000 A 
ATOM      4  C   UNL     1      45.281   5.324  10.594  0.00  0.00    +0.000 A 
ATOM      5  C   UNL     1      44.513   4.522  11.453  0.00  0.00    +0.000 A 
ATOM      6  C   UNL     1      44.473   4.846  12.815  0.00  0.00    +0.000 A 
ATOM      7  C   UNL     1      45.223   5.914  13.315  0.00  0.00    +0.000 A 
BRANCH   5   8
ATOM      8  C   UNL     1      43.693   3.358  10.939  0.00  0.00    +0.000 C 
BRANCH   8   9
ATOM      9  N   UNL     1      43.901   3.146   9.511  0.00  0.00    +0.000 NA
ATOM     10  H   UNL     1      44.373   3.959   9.120  0.00  0.00    +0.000 HD
BRANCH   9  11
ATOM     11  C   UNL     1      44.678   1.937   9.235  0.00  0.00    +0.000 C 
BRANCH  11  12
ATOM     12  C   UNL     1      45.945   2.291   8.415  0.00  0.00    +0.000 C 
ATOM     13  C   UNL     1      45.632   3.363   7.355  0.00  0.00    +0.000 C 
ATOM     14  C   UNL     1      46.868   3.701   6.530  0.00  0.00    +0.000 C 
ATOM     15  C   UNL     1      47.485   2.433   5.954  0.00  0.00    +0.000 C 
ATOM     16  C   UNL     1      47.730   1.392   7.043  0.00  0.00    +0.000 C 
ATOM     17  N   UNL     1      46.501   1.084   7.778  0.00  0.00    +0.000 NA
ATOM     18  H   UNL     1      46.709   0.387   8.494  0.00  0.00    +0.000 HD
ENDBRANCH  11  12
ENDBRANCH   9  11
ENDBRANCH   8   9
ENDBRANCH   5   8
ENDBRANCH   1   2
BRANCH   1  21
ATOM     19  C   UNL     1      48.511   6.849  14.504  0.00  0.00    +0.000 C 
ATOM     20  O   UNL     1      49.196   6.446  13.569  0.00  0.00    +0.000 OA
ATOM     21  N   UNL     1      47.334   7.533  14.324  0.00  0.00    +0.000 N 
ATOM     22  H   UNL     1      46.804   7.864  15.114  0.00  0.00    +0.000 HD
BRANCH  19  26
ATOM     23  C   UNL     1      50.450   7.415  19.084  0.00  0.00    +0.000 C 
ATOM     24  N   UNL     1      49.771   6.856  17.939  0.00  0.00    +0.000 N 
ATOM     25  C   UNL     1      49.623   7.470  16.721  0.00  0.00    +0.000 A 
ATOM     26  C   UNL     1      48.911   6.618  15.887  0.00  0.00    +0.000 A 
ATOM     27  C   UNL     1      48.628   5.437  16.655  0.00  0.00    +0.000 A 
ATOM     28  C   UNL     1      47.975   4.215  16.459  0.00  0.00    +0.000 A 
ATOM     29  N   UNL     1      47.904   3.313  17.454  0.00  0.00    +0.000 NA
ATOM     30  C   UNL     1      48.479   3.633  18.625  0.00  0.00    +0.000 A 
ATOM     31  N   UNL     1      49.135   4.762  18.947  0.00  0.00    +0.000 NA
ATOM     32  C   UNL     1      49.175   5.625  17.918  0.00  0.00    +0.000 A 
BRANCH  28  33
ATOM     33  O   UNL     1      47.371   3.838  15.285  0.00  0.00    +0.000 OA
ATOM     34  H   UNL     1      46.810   3.058  15.476  0.00  0.00    +0.000 HD
ENDBRANCH  28  33
ENDBRANCH  19  26
ENDBRANCH   1  21
TORSDOF 8
ENDMDL
MODEL 2
REMARK VINA RESULT:    -7.777      2.101      3.124
REMARK INTER + INTRA:         -12.389
REMARK INTER:                 -11.208
REMARK INTRA:                  -1.181
REMARK UNBOUND:                -1.202
REMARK  Name = 
REMARK  9 active torsions:
REMARK  status: ('A' for Active; 'I' for Inactive)
REMARK    1  A    between atoms: C_1  and  N_2
REMARK    2  A    between atoms: C_4  and  C_5
REMARK    3  A    between atoms: N_7  and  C_8
REMARK    4  A    between atoms: C_8  and  C_9
REMARK    5  A    between atoms: C_12  and  C_13
REMARK    6  A    between atoms: C_13  and  N_14
REMARK    7  A    between atoms: N_14  and  C_15
REMARK    8  A    between atoms: C_15  and  C_16
REMARK    9  A    between atoms: C_25  and  O_26
REMARK                            x       y       z     vdW  Elec       q    Type
REMARK                         _______ _______ _______ _____ _____    ______ ____
ROOT
ATOM      1  C   UNL     1      48.242   6.595  13.636  0.00  0.00    +0.000 C 
ENDROOT
BRANCH   1   2
ATOM      2  C   UNL     1      47.026   6.047  12.944  0.00  0.00    +0.000 A 
ATOM      3  C   UNL     1      46.239   5.070  13.567  0.00  0.00    +0.000 A 
ATOM      4  C   UNL     1      45.109   4.559  12.927  0.00  0.00    +0.000 A 
ATOM      5  C   UNL     1      44.731   5.023  11.656  0.00  0.00    +0.000 A 
ATOM      6  C   UNL     1      45.547   5.966  11.018  0.00  0.00    +0.000 A 
ATOM      7  C   UNL     1      46.684   6.472  11.655  0.00  0.00    +0.000 A 
BRANCH   5   8
ATOM      8  C   UNL     1      43.505   4.495  10.944  0.00  0.00    +0.000 C 
BRANCH   8   9
ATOM      9  N   UNL     1      43.840   3.949   9.634  0.00  0.00    +0.000 NA
ATOM     10  H   UNL     1      44.501   4.573   9.173  0.00  0.00    +0.000 HD
BRANCH   9  11
ATOM     11  C   UNL     1      44.404   2.601   9.720  0.00  0.00    +0.000 C 
BRANCH  11  12
ATOM     12  C   UNL     1      45.680   2.498   8.846  0.00  0.00    +0.000 C 
ATOM     13  C   UNL     1      45.597   3.448   7.636  0.00  0.00    +0.000 C 
ATOM     14  C   UNL     1      46.838   3.335   6.760  0.00  0.00    +0.000 C 
ATOM     15  C   UNL     1      47.091   1.882   6.380  0.00  0.00    +0.000 C 
ATOM     16  C   UNL     1      47.117   0.984   7.613  0.00  0.00    +0.000 C 
ATOM     17  N   UNL     1      45.886   1.109   8.397  0.00  0.00    +0.000 NA
ATOM     18  H   UNL     1      45.946   0.495   9.209  0.00  0.00    +0.000 HD
ENDBRANCH  11  12
ENDBRANCH   9  11
ENDBRANCH   8   9
ENDBRANCH   5   8
ENDBRANCH   1   2
BRANCH   1  21
ATOM     19  C   UNL     1      48.847   6.686  16.004  0.00  0.00    +0.000 C 
ATOM     20  O   UNL     1      49.929   6.145  15.802  0.00  0.00    +0.000 OA
ATOM     21  N   UNL     1      47.946   6.947  15.002  0.00  0.00    +0.000 N 
ATOM     22  H   UNL     1      47.073   7.409  15.200  0.00  0.00    +0.000 HD
BRANCH  19  26
ATOM     23  C   UNL     1      47.683   6.634  20.873  0.00  0.00    +0.000 C 
ATOM     24  N   UNL     1      47.924   7.085  19.523  0.00  0.00    +0.000 N 
ATOM     25  C   UNL     1      48.315   6.291  18.474  0.00  0.00    +0.000 A 
ATOM     26  C   UNL     1      48.446   7.091  17.346  0.00  0.00    +0.000 A 
ATOM     27  C   UNL     1      48.111   8.428  17.753  0.00  0.00    +0.000 A 
ATOM     28  C   UNL     1      48.028   9.693  17.160  0.00  0.00    +0.000 A 
ATOM     29  N   UNL     1      47.667  10.764  17.888  0.00  0.00    +0.000 NA
ATOM     30  C   UNL     1      47.391  10.569  19.188  0.00  0.00    +0.000 A 
ATOM     31  N   UNL     1      47.429   9.415  19.880  0.00  0.00    +0.000 NA
ATOM     32  C   UNL     1      47.796   8.382  19.105  0.00  0.00    +0.000 A 
BRANCH  28  33
ATOM     33  O   UNL     1      48.298   9.949  15.839  0.00  0.00    +0.000 OA
ATOM     34  H   UNL     1      48.522  10.899  15.759  0.00  0.00    +0.000 HD
ENDBRANCH  28  33
ENDBRANCH  19  26
ENDBRANCH   1  21
TORSDOF 8
ENDMDL
MODEL 3
REMARK VINA RESULT:    -7.445      1.890      2.243
REMARK INTER + INTRA:         -11.911
REMARK INTER:                 -10.945
REMARK INTRA:                  -0.966
REMARK UNBOUND:                -1.202
REMARK  Name = 
REMARK  9 active torsions:
REMARK  status: ('A' for Active; 'I' for Inactive)
REMARK    1  A    between atoms: C_1  and  N_2
REMARK    2  A    between atoms: C_4  and  C_5
REMARK    3  A    between atoms: N_7  and  C_8
REMARK    4  A    between atoms: C_8  and  C_9
REMARK    5  A    between atoms: C_12  and  C_13
REMARK    6  A    between atoms: C_13  and  N_14
REMARK    7  A    between atoms: N_14  and  C_15
REMARK    8  A    between atoms: C_15  and  C_16
REMARK    9  A    between atoms: C_25  and  O_26
REMARK                            x       y       z     vdW  Elec       q    Type
REMARK                         _______ _______ _______ _____ _____    ______ ____
ROOT
ATOM      1  C   UNL     1      48.472   6.265  14.025  0.00  0.00    +0.000 C 
ENDROOT
BRANCH   1   2
ATOM      2  C   UNL     1      47.179   6.030  13.296  0.00  0.00    +0.000 A 
ATOM      3  C   UNL     1      46.855   6.791  12.167  0.00  0.00    +0.000 A 
ATOM      4  C   UNL     1      45.654   6.575  11.489  0.00  0.00    +0.000 A 
ATOM      5  C   UNL     1      44.757   5.582  11.914  0.00  0.00    +0.000 A 
ATOM      6  C   UNL     1      45.065   4.854  13.071  0.00  0.00    +0.000 A 
ATOM      7  C   UNL     1      46.262   5.076  13.756  0.00  0.00    +0.000 A 
BRANCH   5   8
ATOM      8  C   UNL     1      43.455   5.318  11.191  0.00  0.00    +0.000 C 
BRANCH   8   9
ATOM      9  N   UNL     1      43.680   4.681   9.898  0.00  0.00    +0.000 NA
ATOM     10  H   UNL     1      44.412   5.187   9.402  0.00  0.00    +0.000 HD
BRANCH   9  11
ATOM     11  C   UNL     1      44.049   3.271  10.029  0.00  0.00    +0.000 C 
BRANCH  11  12
ATOM     12  C   UNL     1      45.325   2.973   9.200  0.00  0.00    +0.000 C 
ATOM     13  C   UNL     1      45.474   3.973   8.039  0.00  0.00    +0.000 C 
ATOM     14  C   UNL     1      46.714   3.673   7.207  0.00  0.00    +0.000 C 
ATOM     15  C   UNL     1      46.716   2.216   6.763  0.00  0.00    +0.000 C 
ATOM     16  C   UNL     1      46.520   1.275   7.948  0.00  0.00    +0.000 C 
ATOM     17  N   UNL     1      45.297   1.590   8.689  0.00  0.00    +0.000 NA
ATOM     18  H   UNL     1      45.205   0.941   9.470  0.00  0.00    +0.000 HD
ENDBRANCH  11  12
ENDBRANCH   9  11
ENDBRANCH   8   9
ENDBRANCH   5   8
ENDBRANCH   1   2
BRANCH   1  21
ATOM     19  C   UNL     1      48.744   6.059  16.447  0.00  0.00    +0.000 C 
ATOM     20  O   UNL     1      49.414   5.037  16.336  0.00  0.00    +0.000 OA
ATOM     21  N   UNL     1      48.233   6.734  15.366  0.00  0.00    +0.000 N 
ATOM     22  H   UNL     1      47.701   7.580  15.491  0.00  0.00    +0.000 HD
BRANCH  19  26
ATOM     23  C   UNL     1      47.471   9.211  20.121  0.00  0.00    +0.000 C 
ATOM     24  N   UNL     1      47.876   8.022  19.410  0.00  0.00    +0.000 N 
ATOM     25  C   UNL     1      48.064   7.928  18.054  0.00  0.00    +0.000 A 
ATOM     26  C   UNL     1      48.445   6.626  17.756  0.00  0.00    +0.000 A 
ATOM     27  C   UNL     1      48.487   5.916  19.005  0.00  0.00    +0.000 A 
ATOM     28  C   UNL     1      48.782   4.620  19.443  0.00  0.00    +0.000 A 
ATOM     29  N   UNL     1      48.708   4.308  20.748  0.00  0.00    +0.000 NA
ATOM     30  C   UNL     1      48.345   5.281  21.601  0.00  0.00    +0.000 A 
ATOM     31  N   UNL     1      48.037   6.560  21.318  0.00  0.00    +0.000 NA
ATOM     32  C   UNL     1      48.128   6.814  20.002  0.00  0.00    +0.000 A 
BRANCH  28  33
ATOM     33  O   UNL     1      49.158   3.590  18.617  0.00  0.00    +0.000 OA
ATOM     34  H   UNL     1      49.986   3.856  18.167  0.00  0.00    +0.000 HD
ENDBRANCH  28  33
ENDBRANCH  19  26
ENDBRANCH   1  21
TORSDOF 8
ENDMDL
MODEL 4
REMARK VINA RESULT:    -7.444      2.231      2.970
REMARK INTER + INTRA:         -11.909
REMARK INTER:                 -10.891
REMARK INTRA:                  -1.018
REMARK UNBOUND:                -1.202
REMARK  Name = 
REMARK  9 active torsions:
REMARK  status: ('A' for Active; 'I' for Inactive)
REMARK    1  A    between atoms: C_1  and  N_2
REMARK    2  A    between atoms: C_4  and  C_5
REMARK    3  A    between atoms: N_7  and  C_8
REMARK    4  A    between atoms: C_8  and  C_9
REMARK    5  A    between atoms: C_12  and  C_13
REMARK    6  A    between atoms: C_13  and  N_14
REMARK    7  A    between atoms: N_14  and  C_15
REMARK    8  A    between atoms: C_15  and  C_16
REMARK    9  A    between atoms: C_25  and  O_26
REMARK                            x       y       z     vdW  Elec       q    Type
REMARK                         _______ _______ _______ _____ _____    ______ ____
ROOT
ATOM      1  C   UNL     1      47.638   4.391  15.263  0.00  0.00    +0.000 C 
ENDROOT
BRANCH   1   2
ATOM      2  C   UNL     1      46.977   4.804  13.978  0.00  0.00    +0.000 A 
ATOM      3  C   UNL     1      45.961   4.019  13.420  0.00  0.00    +0.000 A 
ATOM      4  C   UNL     1      45.347   4.400  12.227  0.00  0.00    +0.000 A 
ATOM      5  C   UNL     1      45.723   5.584  11.571  0.00  0.00    +0.000 A 
ATOM      6  C   UNL     1      46.771   6.343  12.109  0.00  0.00    +0.000 A 
ATOM      7  C   UNL     1      47.393   5.956  13.299  0.00  0.00    +0.000 A 
BRANCH   5   8
ATOM      8  C   UNL     1      45.065   6.027  10.283  0.00  0.00    +0.000 C 
BRANCH   8   9
ATOM      9  N   UNL     1      45.562   5.269   9.140  0.00  0.00    +0.000 NA
ATOM     10  H   UNL     1      46.442   4.823   9.394  0.00  0.00    +0.000 HD
BRANCH   9  11
ATOM     11  C   UNL     1      44.606   4.261   8.681  0.00  0.00    +0.000 C 
BRANCH  11  12
ATOM     12  C   UNL     1      45.320   3.212   7.792  0.00  0.00    +0.000 C 
ATOM     13  C   UNL     1      45.841   2.036   8.640  0.00  0.00    +0.000 C 
ATOM     14  C   UNL     1      46.564   1.011   7.775  0.00  0.00    +0.000 C 
ATOM     15  C   UNL     1      47.643   1.687   6.939  0.00  0.00    +0.000 C 
ATOM     16  C   UNL     1      47.078   2.870   6.158  0.00  0.00    +0.000 C 
ATOM     17  N   UNL     1      46.426   3.837   7.044  0.00  0.00    +0.000 NA
ATOM     18  H   UNL     1      46.063   4.608   6.483  0.00  0.00    +0.000 HD
ENDBRANCH  11  12
ENDBRANCH   9  11
ENDBRANCH   8   9
ENDBRANCH   5   8
ENDBRANCH   1   2
BRANCH   1  21
ATOM     19  C   UNL     1      48.767   6.102  16.596  0.00  0.00    +0.000 C 
ATOM     20  O   UNL     1      49.867   5.804  16.142  0.00  0.00    +0.000 OA
ATOM     21  N   UNL     1      47.611   5.461  16.227  0.00  0.00    +0.000 N 
ATOM     22  H   UNL     1      46.720   5.743  16.607  0.00  0.00    +0.000 HD
BRANCH  19  26
ATOM     23  C   UNL     1      48.738  10.592  18.810  0.00  0.00    +0.000 C 
ATOM     24  N   UNL     1      48.600   9.174  18.578  0.00  0.00    +0.000 N 
ATOM     25  C   UNL     1      48.885   8.527  17.402  0.00  0.00    +0.000 A 
ATOM     26  C   UNL     1      48.620   7.174  17.574  0.00  0.00    +0.000 A 
ATOM     27  C   UNL     1      48.157   7.017  18.925  0.00  0.00    +0.000 A 
ATOM     28  C   UNL     1      47.729   5.971  19.751  0.00  0.00    +0.000 A 
ATOM     29  N   UNL     1      47.352   6.214  21.018  0.00  0.00    +0.000 NA
ATOM     30  C   UNL     1      47.403   7.486  21.450  0.00  0.00    +0.000 A 
ATOM     31  N   UNL     1      47.793   8.578  20.768  0.00  0.00    +0.000 NA
ATOM     32  C   UNL     1      48.158   8.276  19.511  0.00  0.00    +0.000 A 
BRANCH  28  33
ATOM     33  O   UNL     1      47.657   4.657  19.363  0.00  0.00    +0.000 OA
ATOM     34  H   UNL     1      46.849   4.272  19.761  0.00  0.00    +0.000 HD
ENDBRANCH  28  33
ENDBRANCH  19  26
ENDBRANCH   1  21
TORSDOF 8
ENDMDL
MODEL 5
REMARK VINA RESULT:    -7.345      1.870      3.257
REMARK INTER + INTRA:         -11.768
REMARK INTER:                 -10.819
REMARK INTRA:                  -0.948
REMARK UNBOUND:                -1.202
REMARK  Name = 
REMARK  9 active torsions:
REMARK  status: ('A' for Active; 'I' for Inactive)
REMARK    1  A    between atoms: C_1  and  N_2
REMARK    2  A    between atoms: C_4  and  C_5
REMARK    3  A    between atoms: N_7  and  C_8
REMARK    4  A    between atoms: C_8  and  C_9
REMARK    5  A    between atoms: C_12  and  C_13
REMARK    6  A    between atoms: C_13  and  N_14
REMARK    7  A    between atoms: N_14  and  C_15
REMARK    8  A    between atoms: C_15  and  C_16
REMARK    9  A    between atoms: C_25  and  O_26
REMARK                            x       y       z     vdW  Elec       q    Type
REMARK                         _______ _______ _______ _____ _____    ______ ____
ROOT
ATOM      1  C   UNL     1      47.225   3.882  15.255  0.00  0.00    +0.000 C 
ENDROOT
BRANCH   1   2
ATOM      2  C   UNL     1      46.687   4.439  13.967  0.00  0.00    +0.000 A 
ATOM      3  C   UNL     1      47.056   5.722  13.543  0.00  0.00    +0.000 A 
ATOM      4  C   UNL     1      46.557   6.241  12.347  0.00  0.00    +0.000 A 
ATOM      5  C   UNL     1      45.692   5.485  11.540  0.00  0.00    +0.000 A 
ATOM      6  C   UNL     1      45.290   4.221  11.991  0.00  0.00    +0.000 A 
ATOM      7  C   UNL     1      45.782   3.704  13.193  0.00  0.00    +0.000 A 
BRANCH   5   8
ATOM      8  C   UNL     1      45.146   6.019  10.234  0.00  0.00    +0.000 C 
BRANCH   8   9
ATOM      9  N   UNL     1      45.669   5.276   9.092  0.00  0.00    +0.000 NA
ATOM     10  H   UNL     1      46.530   4.807   9.368  0.00  0.00    +0.000 HD
BRANCH   9  11
ATOM     11  C   UNL     1      44.711   4.298   8.577  0.00  0.00    +0.000 C 
BRANCH  11  12
ATOM     12  C   UNL     1      45.434   3.263   7.679  0.00  0.00    +0.000 C 
ATOM     13  C   UNL     1      45.953   2.077   8.513  0.00  0.00    +0.000 C 
ATOM     14  C   UNL     1      46.685   1.066   7.639  0.00  0.00    +0.000 C 
ATOM     15  C   UNL     1      47.767   1.757   6.819  0.00  0.00    +0.000 C 
ATOM     16  C   UNL     1      47.203   2.948   6.051  0.00  0.00    +0.000 C 
ATOM     17  N   UNL     1      46.542   3.901   6.945  0.00  0.00    +0.000 NA
ATOM     18  H   UNL     1      46.180   4.679   6.393  0.00  0.00    +0.000 HD
ENDBRANCH  11  12
ENDBRANCH   9  11
ENDBRANCH   8   9
ENDBRANCH   5   8
ENDBRANCH   1   2
BRANCH   1  21
ATOM     19  C   UNL     1      47.741   4.645  17.521  0.00  0.00    +0.000 C 
ATOM     20  O   UNL     1      47.738   3.501  17.962  0.00  0.00    +0.000 OA
ATOM     21  N   UNL     1      47.496   4.934  16.201  0.00  0.00    +0.000 N 
ATOM     22  H   UNL     1      47.524   5.885  15.867  0.00  0.00    +0.000 HD
BRANCH  19  26
ATOM     23  C   UNL     1      47.507   8.002  21.228  0.00  0.00    +0.000 C 
ATOM     24  N   UNL     1      47.919   7.295  20.038  0.00  0.00    +0.000 N 
ATOM     25  C   UNL     1      47.323   6.167  19.533  0.00  0.00    +0.000 A 
ATOM     26  C   UNL     1      48.009   5.787  18.387  0.00  0.00    +0.000 A 
ATOM     27  C   UNL     1      49.064   6.746  18.206  0.00  0.00    +0.000 A 
ATOM     28  C   UNL     1      50.101   6.975  17.294  0.00  0.00    +0.000 A 
ATOM     29  N   UNL     1      50.932   8.020  17.455  0.00  0.00    +0.000 NA
ATOM     30  C   UNL     1      50.725   8.822  18.513  0.00  0.00    +0.000 A 
ATOM     31  N   UNL     1      49.773   8.720  19.458  0.00  0.00    +0.000 NA
ATOM     32  C   UNL     1      48.975   7.660  19.248  0.00  0.00    +0.000 A 
BRANCH  28  33
ATOM     33  O   UNL     1      50.357   6.190  16.198  0.00  0.00    +0.000 OA
ATOM     34  H   UNL     1      50.660   6.777  15.475  0.00  0.00    +0.000 HD
ENDBRANCH  28  33
ENDBRANCH  19  26
ENDBRANCH   1  21
TORSDOF 8
ENDMDL
MODEL 6
REMARK VINA RESULT:    -7.290      2.115      8.162
REMARK INTER + INTRA:         -11.688
REMARK INTER:                 -10.258
REMARK INTRA:                  -1.430
REMARK UNBOUND:                -1.202
REMARK  Name = 
REMARK  9 active torsions:
REMARK  status: ('A' for Active; 'I' for Inactive)
REMARK    1  A    between atoms: C_1  and  N_2
REMARK    2  A    between atoms: C_4  and  C_5
REMARK    3  A    between atoms: N_7  and  C_8
REMARK    4  A    between atoms: C_8  and  C_9
REMARK    5  A    between atoms: C_12  and  C_13
REMARK    6  A    between atoms: C_13  and  N_14
REMARK    7  A    between atoms: N_14  and  C_15
REMARK    8  A    between atoms: C_15  and  C_16
REMARK    9  A    between atoms: C_25  and  O_26
REMARK                            x       y       z     vdW  Elec       q    Type
REMARK                         _______ _______ _______ _____ _____    ______ ____
ROOT
ATOM      1  C   UNL     1      48.574   8.069  11.910  0.00  0.00    +0.000 C 
ENDROOT
BRANCH   1   2
ATOM      2  C   UNL     1      48.587   8.016  13.412  0.00  0.00    +0.000 A 
ATOM      3  C   UNL     1      48.258   9.152  14.162  0.00  0.00    +0.000 A 
ATOM      4  C   UNL     1      48.270   9.105  15.557  0.00  0.00    +0.000 A 
ATOM      5  C   UNL     1      48.597   7.919  16.234  0.00  0.00    +0.000 A 
ATOM      6  C   UNL     1      48.970   6.799  15.480  0.00  0.00    +0.000 A 
ATOM      7  C   UNL     1      48.967   6.847  14.083  0.00  0.00    +0.000 A 
BRANCH   5   8
ATOM      8  C   UNL     1      48.606   7.838  17.745  0.00  0.00    +0.000 C 
BRANCH   8   9
ATOM      9  N   UNL     1      47.592   6.912  18.237  0.00  0.00    +0.000 NA
ATOM     10  H   UNL     1      47.253   6.347  17.460  0.00  0.00    +0.000 HD
BRANCH   9  11
ATOM     11  C   UNL     1      48.099   6.044  19.300  0.00  0.00    +0.000 C 
BRANCH  11  12
ATOM     12  C   UNL     1      48.231   4.588  18.785  0.00  0.00    +0.000 C 
ATOM     13  C   UNL     1      49.560   4.387  18.035  0.00  0.00    +0.000 C 
ATOM     14  C   UNL     1      49.686   2.964  17.505  0.00  0.00    +0.000 C 
ATOM     15  C   UNL     1      48.459   2.592  16.684  0.00  0.00    +0.000 C 
ATOM     16  C   UNL     1      47.172   2.854  17.461  0.00  0.00    +0.000 C 
ATOM     17  N   UNL     1      47.091   4.245  17.915  0.00  0.00    +0.000 NA
ATOM     18  H   UNL     1      46.220   4.376  18.428  0.00  0.00    +0.000 HD
ENDBRANCH  11  12
ENDBRANCH   9  11
ENDBRANCH   8   9
ENDBRANCH   5   8
ENDBRANCH   1   2
BRANCH   1  21
ATOM     19  C   UNL     1      46.440   6.993  11.387  0.00  0.00    +0.000 C 
ATOM     20  O   UNL     1      45.796   7.917  11.874  0.00  0.00    +0.000 OA
ATOM     21  N   UNL     1      47.812   6.976  11.361  0.00  0.00    +0.000 N 
ATOM     22  H   UNL     1      48.311   6.209  10.937  0.00  0.00    +0.000 HD
BRANCH  19  26
ATOM     23  C   UNL     1      44.815   3.543   8.145  0.00  0.00    +0.000 C 
ATOM     24  N   UNL     1      45.040   4.287   9.361  0.00  0.00    +0.000 N 
ATOM     25  C   UNL     1      45.796   5.427   9.471  0.00  0.00    +0.000 A 
ATOM     26  C   UNL     1      45.774   5.839  10.797  0.00  0.00    +0.000 A 
ATOM     27  C   UNL     1      44.958   4.892  11.506  0.00  0.00    +0.000 A 
ATOM     28  C   UNL     1      44.515   4.693  12.819  0.00  0.00    +0.000 A 
ATOM     29  N   UNL     1      43.728   3.647  13.122  0.00  0.00    +0.000 NA
ATOM     30  C   UNL     1      43.389   2.813  12.124  0.00  0.00    +0.000 A 
ATOM     31  N   UNL     1      43.739   2.886  10.827  0.00  0.00    +0.000 NA
ATOM     32  C   UNL     1      44.524   3.948  10.582  0.00  0.00    +0.000 A 
BRANCH  28  33
ATOM     33  O   UNL     1      44.830   5.512  13.874  0.00  0.00    +0.000 OA
ATOM     34  H   UNL     1      44.276   5.243  14.636  0.00  0.00    +0.000 HD
ENDBRANCH  28  33
ENDBRANCH  19  26
ENDBRANCH   1  21
TORSDOF 8
ENDMDL
MODEL 7
REMARK VINA RESULT:    -7.199      2.553      3.330
REMARK INTER + INTRA:         -11.557
REMARK INTER:                 -10.665
REMARK INTRA:                  -0.892
REMARK UNBOUND:                -1.202
REMARK  Name = 
REMARK  9 active torsions:
REMARK  status: ('A' for Active; 'I' for Inactive)
REMARK    1  A    between atoms: C_1  and  N_2
REMARK    2  A    between atoms: C_4  and  C_5
REMARK    3  A    between atoms: N_7  and  C_8
REMARK    4  A    between atoms: C_8  and  C_9
REMARK    5  A    between atoms: C_12  and  C_13
REMARK    6  A    between atoms: C_13  and  N_14
REMARK    7  A    between atoms: N_14  and  C_15
REMARK    8  A    between atoms: C_15  and  C_16
REMARK    9  A    between atoms: C_25  and  O_26
REMARK                            x       y       z     vdW  Elec       q    Type
REMARK                         _______ _______ _______ _____ _____    ______ ____
ROOT
ATOM      1  C   UNL     1      47.969   5.849  14.180  0.00  0.00    +0.000 C 
ENDROOT
BRANCH   1   2
ATOM      2  C   UNL     1      46.816   5.625  13.243  0.00  0.00    +0.000 A 
ATOM      3  C   UNL     1      46.790   6.250  11.991  0.00  0.00    +0.000 A 
ATOM      4  C   UNL     1      45.720   6.044  11.119  0.00  0.00    +0.000 A 
ATOM      5  C   UNL     1      44.659   5.195  11.472  0.00  0.00    +0.000 A 
ATOM      6  C   UNL     1      44.666   4.607  12.744  0.00  0.00    +0.000 A 
ATOM      7  C   UNL     1      45.733   4.821  13.621  0.00  0.00    +0.000 A 
BRANCH   5   8
ATOM      8  C   UNL     1      43.492   4.944  10.541  0.00  0.00    +0.000 C 
BRANCH   8   9
ATOM      9  N   UNL     1      43.918   4.269   9.319  0.00  0.00    +0.000 NA
ATOM     10  H   UNL     1      44.659   4.814   8.881  0.00  0.00    +0.000 HD
BRANCH   9  11
ATOM     11  C   UNL     1      44.382   2.905   9.570  0.00  0.00    +0.000 C 
BRANCH  11  12
ATOM     12  C   UNL     1      45.674   2.623   8.760  0.00  0.00    +0.000 C 
ATOM     13  C   UNL     1      45.741   3.509   7.503  0.00  0.00    +0.000 C 
ATOM     14  C   UNL     1      46.997   3.221   6.691  0.00  0.00    +0.000 C 
ATOM     15  C   UNL     1      47.109   1.732   6.395  0.00  0.00    +0.000 C 
ATOM     16  C   UNL     1      46.991   0.903   7.671  0.00  0.00    +0.000 C 
ATOM     17  N   UNL     1      45.749   1.197   8.390  0.00  0.00    +0.000 NA
ATOM     18  H   UNL     1      45.711   0.625   9.234  0.00  0.00    +0.000 HD
ENDBRANCH  11  12
ENDBRANCH   9  11
ENDBRANCH   8   9
ENDBRANCH   5   8
ENDBRANCH   1   2
BRANCH   1  21
ATOM     19  C   UNL     1      48.853   7.566  15.681  0.00  0.00    +0.000 C 
ATOM     20  O   UNL     1      49.765   6.838  16.060  0.00  0.00    +0.000 OA
ATOM     21  N   UNL     1      47.916   7.167  14.760  0.00  0.00    +0.000 N 
ATOM     22  H   UNL     1      47.190   7.796  14.457  0.00  0.00    +0.000 HD
BRANCH  19  26
ATOM     23  C   UNL     1      49.002  12.546  16.165  0.00  0.00    +0.000 C 
ATOM     24  N   UNL     1      48.764  11.147  16.428  0.00  0.00    +0.000 N 
ATOM     25  C   UNL     1      49.104  10.109  15.597  0.00  0.00    +0.000 A 
ATOM     26  C   UNL     1      48.706   8.921  16.197  0.00  0.00    +0.000 A 
ATOM     27  C   UNL     1      48.101   9.279  17.450  0.00  0.00    +0.000 A 
ATOM     28  C   UNL     1      47.505   8.619  18.531  0.00  0.00    +0.000 A 
ATOM     29  N   UNL     1      47.028   9.317  19.577  0.00  0.00    +0.000 NA
ATOM     30  C   UNL     1      47.149  10.654  19.539  0.00  0.00    +0.000 A 
ATOM     31  N   UNL     1      47.698  11.412  18.572  0.00  0.00    +0.000 NA
ATOM     32  C   UNL     1      48.156  10.664  17.554  0.00  0.00    +0.000 A 
BRANCH  28  33
ATOM     33  O   UNL     1      47.356   7.258  18.620  0.00  0.00    +0.000 OA
ATOM     34  H   UNL     1      46.400   7.068  18.715  0.00  0.00    +0.000 HD
ENDBRANCH  28  33
ENDBRANCH  19  26
ENDBRANCH   1  21
TORSDOF 8
ENDMDL
MODEL 8
REMARK VINA RESULT:    -7.072      3.560      6.131
REMARK INTER + INTRA:         -11.374
REMARK INTER:                 -10.233
REMARK INTRA:                  -1.141
REMARK UNBOUND:                -1.202
REMARK  Name = 
REMARK  9 active torsions:
REMARK  status: ('A' for Active; 'I' for Inactive)
REMARK    1  A    between atoms: C_1  and  N_2
REMARK    2  A    between atoms: C_4  and  C_5
REMARK    3  A    between atoms: N_7  and  C_8
REMARK    4  A    between atoms: C_8  and  C_9
REMARK    5  A    between atoms: C_12  and  C_13
REMARK    6  A    between atoms: C_13  and  N_14
REMARK    7  A    between atoms: N_14  and  C_15
REMARK    8  A    between atoms: C_15  and  C_16
REMARK    9  A    between atoms: C_25  and  O_26
REMARK                            x       y       z     vdW  Elec       q    Type
REMARK                         _______ _______ _______ _____ _____    ______ ____
ROOT
ATOM      1  C   UNL     1      47.834   7.317  13.312  0.00  0.00    +0.000 C 
ENDROOT
BRANCH   1   2
ATOM      2  C   UNL     1      46.880   6.240  12.880  0.00  0.00    +0.000 A 
ATOM      3  C   UNL     1      46.736   5.075  13.642  0.00  0.00    +0.000 A 
ATOM      4  C   UNL     1      45.850   4.073  13.243  0.00  0.00    +0.000 A 
ATOM      5  C   UNL     1      45.076   4.220  12.081  0.00  0.00    +0.000 A 
ATOM      6  C   UNL     1      45.256   5.367  11.297  0.00  0.00    +0.000 A 
ATOM      7  C   UNL     1      46.150   6.366  11.692  0.00  0.00    +0.000 A 
BRANCH   5   8
ATOM      8  C   UNL     1      44.099   3.155  11.631  0.00  0.00    +0.000 C 
BRANCH   8   9
ATOM      9  N   UNL     1      43.919   3.172  10.184  0.00  0.00    +0.000 NA
ATOM     10  H   UNL     1      44.408   3.977   9.798  0.00  0.00    +0.000 HD
BRANCH   9  11
ATOM     11  C   UNL     1      44.399   1.945   9.548  0.00  0.00    +0.000 C 
BRANCH  11  12
ATOM     12  C   UNL     1      45.671   2.238   8.713  0.00  0.00    +0.000 C 
ATOM     13  C   UNL     1      45.390   3.304   7.638  0.00  0.00    +0.000 C 
ATOM     14  C   UNL     1      46.630   3.582   6.798  0.00  0.00    +0.000 C 
ATOM     15  C   UNL     1      47.194   2.283   6.237  0.00  0.00    +0.000 C 
ATOM     16  C   UNL     1      47.409   1.251   7.340  0.00  0.00    +0.000 C 
ATOM     17  N   UNL     1      46.176   1.000   8.091  0.00  0.00    +0.000 NA
ATOM     18  H   UNL     1      46.364   0.308   8.816  0.00  0.00    +0.000 HD
ENDBRANCH  11  12
ENDBRANCH   9  11
ENDBRANCH   8   9
ENDBRANCH   5   8
ENDBRANCH   1   2
BRANCH   1  21
ATOM     19  C   UNL     1      48.742   9.443  12.512  0.00  0.00    +0.000 C 
ATOM     20  O   UNL     1      49.486   9.549  13.482  0.00  0.00    +0.000 OA
ATOM     21  N   UNL     1      47.889   8.381  12.342  0.00  0.00    +0.000 N 
ATOM     22  H   UNL     1      47.302   8.316  11.525  0.00  0.00    +0.000 HD
BRANCH  19  26
ATOM     23  C   UNL     1      50.094  12.582   8.854  0.00  0.00    +0.000 C 
ATOM     24  N   UNL     1      49.305  11.866   9.828  0.00  0.00    +0.000 N 
ATOM     25  C   UNL     1      49.780  10.915  10.697  0.00  0.00    +0.000 A 
ATOM     26  C   UNL     1      48.717  10.458  11.466  0.00  0.00    +0.000 A 
ATOM     27  C   UNL     1      47.555  11.181  11.028  0.00  0.00    +0.000 A 
ATOM     28  C   UNL     1      46.194  11.234  11.350  0.00  0.00    +0.000 A 
ATOM     29  N   UNL     1      45.371  12.071  10.696  0.00  0.00    +0.000 NA
ATOM     30  C   UNL     1      45.904  12.844   9.735  0.00  0.00    +0.000 A 
ATOM     31  N   UNL     1      47.186  12.896   9.328  0.00  0.00    +0.000 NA
ATOM     32  C   UNL     1      47.961  12.040  10.015  0.00  0.00    +0.000 A 
BRANCH  28  33
ATOM     33  O   UNL     1      45.597  10.469  12.321  0.00  0.00    +0.000 OA
ATOM     34  H   UNL     1      45.830  10.855  13.190  0.00  0.00    +0.000 HD
ENDBRANCH  28  33
ENDBRANCH  19  26
ENDBRANCH   1  21
TORSDOF 8
ENDMDL
MODEL 9
REMARK VINA RESULT:    -6.459      4.360      6.253
REMARK INTER + INTRA:         -10.493
REMARK INTER:                  -9.252
REMARK INTRA:                  -1.241
REMARK UNBOUND:                -1.202
REMARK  Name = 
REMARK  9 active torsions:
REMARK  status: ('A' for Active; 'I' for Inactive)
REMARK    1  A    between atoms: C_1  and  N_2
REMARK    2  A    between atoms: C_4  and  C_5
REMARK    3  A    between atoms: N_7  and  C_8
REMARK    4  A    between atoms: C_8  and  C_9
REMARK    5  A    between atoms: C_12  and  C_13
REMARK    6  A    between atoms: C_13  and  N_14
REMARK    7  A    between atoms: N_14  and  C_15
REMARK    8  A    between atoms: C_15  and  C_16
REMARK    9  A    between atoms: C_25  and  O_26
REMARK                            x       y       z     vdW  Elec       q    Type
REMARK                         _______ _______ _______ _____ _____    ______ ____
ROOT
ATOM      1  C   UNL     1      48.012   8.231  12.695  0.00  0.00    +0.000 C 
ENDROOT
BRANCH   1   2
ATOM      2  C   UNL     1      47.233   6.961  12.503  0.00  0.00    +0.000 A 
ATOM      3  C   UNL     1      47.226   5.978  13.499  0.00  0.00    +0.000 A 
ATOM      4  C   UNL     1      46.503   4.797  13.323  0.00  0.00    +0.000 A 
ATOM      5  C   UNL     1      45.759   4.578  12.153  0.00  0.00    +0.000 A 
ATOM      6  C   UNL     1      45.806   5.544  11.139  0.00  0.00    +0.000 A 
ATOM      7  C   UNL     1      46.536   6.723  11.311  0.00  0.00    +0.000 A 
BRANCH   5   8
ATOM      8  C   UNL     1      44.957   3.312  11.940  0.00  0.00    +0.000 C 
BRANCH   8   9
ATOM      9  N   UNL     1      44.047   3.440  10.806  0.00  0.00    +0.000 NA
ATOM     10  H   UNL     1      44.240   4.315  10.323  0.00  0.00    +0.000 HD
BRANCH   9  11
ATOM     11  C   UNL     1      44.161   2.319   9.872  0.00  0.00    +0.000 C 
BRANCH  11  12
ATOM     12  C   UNL     1      45.452   2.458   9.025  0.00  0.00    +0.000 C 
ATOM     13  C   UNL     1      45.295   3.561   7.961  0.00  0.00    +0.000 C 
ATOM     14  C   UNL     1      46.553   3.688   7.110  0.00  0.00    +0.000 C 
ATOM     15  C   UNL     1      46.943   2.334   6.533  0.00  0.00    +0.000 C 
ATOM     16  C   UNL     1      47.038   1.273   7.626  0.00  0.00    +0.000 C 
ATOM     17  N   UNL     1      45.792   1.173   8.388  0.00  0.00    +0.000 NA
ATOM     18  H   UNL     1      45.898   0.456   9.106  0.00  0.00    +0.000 HD
ENDBRANCH  11  12
ENDBRANCH   9  11
ENDBRANCH   8   9
ENDBRANCH   5   8
ENDBRANCH   1   2
BRANCH   1  21
ATOM     19  C   UNL     1      50.371   8.153  12.053  0.00  0.00    +0.000 C 
ATOM     20  O   UNL     1      50.725   7.871  13.193  0.00  0.00    +0.000 OA
ATOM     21  N   UNL     1      49.057   8.353  11.710  0.00  0.00    +0.000 N 
ATOM     22  H   UNL     1      48.798   8.566  10.760  0.00  0.00    +0.000 HD
BRANCH  19  26
ATOM     23  C   UNL     1      53.800   7.179   8.538  0.00  0.00    +0.000 C 
ATOM     24  N   UNL     1      52.875   7.877   9.399  0.00  0.00    +0.000 N 
ATOM     25  C   UNL     1      52.099   7.299  10.372  0.00  0.00    +0.000 A 
ATOM     26  C   UNL     1      51.342   8.296  10.975  0.00  0.00    +0.000 A 
ATOM     27  C   UNL     1      51.694   9.527  10.324  0.00  0.00    +0.000 A 
ATOM     28  C   UNL     1      51.340  10.878  10.416  0.00  0.00    +0.000 A 
ATOM     29  N   UNL     1      51.903  11.788   9.601  0.00  0.00    +0.000 NA
ATOM     30  C   UNL     1      52.807  11.349   8.710  0.00  0.00    +0.000 A 
ATOM     31  N   UNL     1      53.238  10.089   8.516  0.00  0.00    +0.000 NA
ATOM     32  C   UNL     1      52.643   9.225   9.355  0.00  0.00    +0.000 A 
BRANCH  28  33
ATOM     33  O   UNL     1      50.425  11.380  11.307  0.00  0.00    +0.000 OA
ATOM     34  H   UNL     1      49.840  10.643  11.580  0.00  0.00    +0.000 HD
ENDBRANCH  28  33
ENDBRANCH  19  26
ENDBRANCH   1  21
TORSDOF 8
ENDMDL
