MODEL 1
REMARK VINA RESULT:    -8.060      0.000      0.000
REMARK INTER + INTRA:         -10.716
REMARK INTER:                 -10.416
REMARK INTRA:                  -0.301
REMARK UNBOUND:                -0.301
REMARK  Name = 
REMARK  5 active torsions:
REMARK  status: ('A' for Active; 'I' for Inactive)
REMARK    1  A    between atoms: C_2  and  C_18
REMARK    2  A    between atoms: N_3  and  C_4
REMARK    3  A    between atoms: C_4  and  C_5
REMARK    4  A    between atoms: C_8  and  C_9
REMARK    5  A    between atoms: C_9  and  C_10
REMARK                            x       y       z     vdW  Elec       q    Type
REMARK                         _______ _______ _______ _____ _____    ______ ____
ROOT
ATOM      1  O   UNL     1      46.535   3.198  13.821  0.00  0.00    +0.000 OA
ATOM      2  C   UNL     1      46.341   4.365  14.157  0.00  0.00    +0.000 C 
ATOM      3  N   UNL     1      45.170   5.022  13.880  0.00  0.00    +0.000 N 
ATOM      4  H   UNL     1      45.124   6.026  14.003  0.00  0.00    +0.000 HD
ENDROOT
BRANCH   2   5
ATOM      5  C   UNL     1      47.348   5.123  14.909  0.00  0.00    +0.000 A 
ATOM      6  C   UNL     1      48.024   6.176  14.306  0.00  0.00    +0.000 A 
ATOM      7  S   UNL     1      49.163   6.928  15.328  0.00  0.00    +0.000 S 
ATOM      8  C   UNL     1      48.754   5.912  16.627  0.00  0.00    +0.000 A 
ATOM      9  N   UNL     1      49.349   6.053  17.842  0.00  0.00    +0.000 NA
ATOM     10  C   UNL     1      48.919   5.237  18.747  0.00  0.00    +0.000 A 
ATOM     11  N   UNL     1      47.950   4.291  18.542  0.00  0.00    +0.000 N 
ATOM     12  C   UNL     1      47.343   4.090  17.327  0.00  0.00    +0.000 A 
ATOM     13  O   UNL     1      46.511   3.194  17.169  0.00  0.00    +0.000 OA
ATOM     14  C   UNL     1      47.777   4.993  16.280  0.00  0.00    +0.000 A 
ATOM     15  H   UNL     1      47.664   3.674  19.287  0.00  0.00    +0.000 HD
ENDBRANCH   2   5
BRANCH   3  16
ATOM     16  C   UNL     1      44.191   4.444  12.996  0.00  0.00    +0.000 C 
BRANCH  16  17
ATOM     17  C   UNL     1      44.694   4.378  11.577  0.00  0.00    +0.000 A 
ATOM     18  C   UNL     1      44.400   3.265  10.780  0.00  0.00    +0.000 A 
ATOM     19  C   UNL     1      44.793   3.220   9.441  0.00  0.00    +0.000 A 
ATOM     20  C   UNL     1      45.493   4.287   8.866  0.00  0.00    +0.000 A 
ATOM     21  C   UNL     1      45.865   5.361   9.688  0.00  0.00    +0.000 A 
ATOM     22  C   UNL     1      45.470   5.407  11.031  0.00  0.00    +0.000 A 
BRANCH  20  23
ATOM     23  C   UNL     1      45.875   4.250   7.409  0.00  0.00    +0.000 C 
BRANCH  23  24
ATOM     24  C   UNL     1      45.920   2.895   6.658  0.00  0.00    +0.000 C 
ATOM     25  C   UNL     1      46.589   1.750   7.427  0.00  0.00    +0.000 C 
ATOM     26  C   UNL     1      48.099   1.666   7.213  0.00  0.00    +0.000 C 
ATOM     27  N   UNL     1      48.458   1.581   5.800  0.00  0.00    +0.000 NA
ATOM     28  C   UNL     1      47.932   2.710   5.035  0.00  0.00    +0.000 C 
ATOM     29  C   UNL     1      46.429   2.937   5.208  0.00  0.00    +0.000 C 
ATOM     30  H   UNL     1      48.114   0.705   5.410  0.00  0.00    +0.000 HD
ENDBRANCH  23  24
ENDBRANCH  20  23
ENDBRANCH  16  17
ENDBRANCH   3  16
TORSDOF 5
ENDMDL
MODEL 2
REMARK VINA RESULT:    -7.703      3.338      4.762
REMARK INTER + INTRA:         -10.256
REMARK INTER:                  -8.905
REMARK INTRA:                  -1.351
REMARK UNBOUND:                -0.301
REMARK  Name = 
REMARK  5 active torsions:
REMARK  status: ('A' for Active; 'I' for Inactive)
REMARK    1  A    between atoms: C_2  and  C_18
REMARK    2  A    between atoms: N_3  and  C_4
REMARK    3  A    between atoms: C_4  and  C_5
REMARK    4  A    between atoms: C_8  and  C_9
REMARK    5  A    between atoms: C_9  and  C_10
REMARK                            x       y       z     vdW  Elec       q    Type
REMARK                         _______ _______ _______ _____ _____    ______ ____
ROOT
ATOM      1  O   UNL     1      48.476   8.831  15.986  0.00  0.00    +0.000 OA
ATOM      2  C   UNL     1      48.819   7.673  15.748  0.00  0.00    +0.000 C 
ATOM      3  N   UNL     1      49.131   7.248  14.483  0.00  0.00    +0.000 N 
ATOM      4  H   UNL     1      49.222   6.256  14.303  0.00  0.00    +0.000 HD
ENDROOT
BRANCH   2   5
ATOM      5  C   UNL     1      48.945   6.677  16.819  0.00  0.00    +0.000 A 
ATOM      6  C   UNL     1      49.635   6.988  17.983  0.00  0.00    +0.000 A 
ATOM      7  S   UNL     1      49.688   5.704  19.105  0.00  0.00    +0.000 S 
ATOM      8  C   UNL     1      48.744   4.711  18.101  0.00  0.00    +0.000 A 
ATOM      9  N   UNL     1      48.383   3.458  18.492  0.00  0.00    +0.000 NA
ATOM     10  C   UNL     1      47.639   2.828  17.645  0.00  0.00    +0.000 A 
ATOM     11  N   UNL     1      47.227   3.337  16.442  0.00  0.00    +0.000 N 
ATOM     12  C   UNL     1      47.590   4.582  15.990  0.00  0.00    +0.000 A 
ATOM     13  O   UNL     1      47.240   4.985  14.880  0.00  0.00    +0.000 OA
ATOM     14  C   UNL     1      48.411   5.340  16.912  0.00  0.00    +0.000 A 
ATOM     15  H   UNL     1      46.653   2.789  15.817  0.00  0.00    +0.000 HD
ENDBRANCH   2   5
BRANCH   3  16
ATOM     16  C   UNL     1      48.870   8.081  13.338  0.00  0.00    +0.000 C 
BRANCH  16  17
ATOM     17  C   UNL     1      47.535   7.765  12.716  0.00  0.00    +0.000 A 
ATOM     18  C   UNL     1      47.449   6.837  11.670  0.00  0.00    +0.000 A 
ATOM     19  C   UNL     1      46.212   6.476  11.133  0.00  0.00    +0.000 A 
ATOM     20  C   UNL     1      45.029   7.038  11.625  0.00  0.00    +0.000 A 
ATOM     21  C   UNL     1      45.122   8.033  12.609  0.00  0.00    +0.000 A 
ATOM     22  C   UNL     1      46.362   8.395  13.150  0.00  0.00    +0.000 A 
BRANCH  20  23
ATOM     23  C   UNL     1      43.695   6.612  11.070  0.00  0.00    +0.000 C 
BRANCH  23  24
ATOM     24  C   UNL     1      43.108   5.228  11.450  0.00  0.00    +0.000 C 
ATOM     25  C   UNL     1      43.233   4.858  12.933  0.00  0.00    +0.000 C 
ATOM     26  C   UNL     1      44.541   4.152  13.283  0.00  0.00    +0.000 C 
ATOM     27  N   UNL     1      44.772   2.967  12.462  0.00  0.00    +0.000 NA
ATOM     28  C   UNL     1      44.771   3.283  11.035  0.00  0.00    +0.000 C 
ATOM     29  C   UNL     1      43.530   4.044  10.564  0.00  0.00    +0.000 C 
ATOM     30  H   UNL     1      44.063   2.264  12.664  0.00  0.00    +0.000 HD
ENDBRANCH  23  24
ENDBRANCH  20  23
ENDBRANCH  16  17
ENDBRANCH   3  16
TORSDOF 5
ENDMDL
MODEL 3
REMARK VINA RESULT:    -7.330      3.778      6.351
REMARK INTER + INTRA:          -9.773
REMARK INTER:                  -8.673
REMARK INTRA:                  -1.101
REMARK UNBOUND:                -0.301
REMARK  Name = 
REMARK  5 active torsions:
REMARK  status: ('A' for Active; 'I' for Inactive)
REMARK    1  A    between atoms: C_2  and  C_18
REMARK    2  A    between atoms: N_3  and  C_4
REMARK    3  A    between atoms: C_4  and  C_5
REMARK    4  A    between atoms: C_8  and  C_9
REMARK    5  A    between atoms: C_9  and  C_10
REMARK                            x       y       z     vdW  Elec       q    Type
REMARK                         _______ _______ _______ _____ _____    ______ ____
ROOT
ATOM      1  O   UNL     1      51.971   6.039  16.559  0.00  0.00    +0.000 OA
ATOM      2  C   UNL     1      51.623   5.210  17.398  0.00  0.00    +0.000 C 
ATOM      3  N   UNL     1      50.337   5.138  17.867  0.00  0.00    +0.000 N 
ATOM      4  H   UNL     1      50.138   4.576  18.685  0.00  0.00    +0.000 HD
ENDROOT
BRANCH   2   5
ATOM      5  C   UNL     1      52.565   4.218  17.930  0.00  0.00    +0.000 A 
ATOM      6  C   UNL     1      53.703   4.631  18.610  0.00  0.00    +0.000 A 
ATOM      7  S   UNL     1      54.684   3.341  19.142  0.00  0.00    +0.000 S 
ATOM      8  C   UNL     1      53.594   2.187  18.535  0.00  0.00    +0.000 A 
ATOM      9  N   UNL     1      53.823   0.855  18.693  0.00  0.00    +0.000 NA
ATOM     10  C   UNL     1      52.898   0.093  18.212  0.00  0.00    +0.000 A 
ATOM     11  N   UNL     1      51.767   0.544  17.584  0.00  0.00    +0.000 N 
ATOM     12  C   UNL     1      51.507   1.876  17.373  0.00  0.00    +0.000 A 
ATOM     13  O   UNL     1      50.503   2.241  16.760  0.00  0.00    +0.000 OA
ATOM     14  C   UNL     1      52.507   2.777  17.911  0.00  0.00    +0.000 A 
ATOM     15  H   UNL     1      51.084  -0.103  17.219  0.00  0.00    +0.000 HD
ENDBRANCH   2   5
BRANCH   3  16
ATOM     16  C   UNL     1      49.378   6.167  17.556  0.00  0.00    +0.000 C 
BRANCH  16  17
ATOM     17  C   UNL     1      48.524   5.790  16.373  0.00  0.00    +0.000 A 
ATOM     18  C   UNL     1      48.497   6.610  15.238  0.00  0.00    +0.000 A 
ATOM     19  C   UNL     1      47.772   6.239  14.104  0.00  0.00    +0.000 A 
ATOM     20  C   UNL     1      47.052   5.039  14.079  0.00  0.00    +0.000 A 
ATOM     21  C   UNL     1      47.006   4.264  15.247  0.00  0.00    +0.000 A 
ATOM     22  C   UNL     1      47.734   4.635  16.384  0.00  0.00    +0.000 A 
BRANCH  20  23
ATOM     23  C   UNL     1      46.307   4.624  12.836  0.00  0.00    +0.000 C 
BRANCH  23  24
ATOM     24  C   UNL     1      45.705   5.705  11.902  0.00  0.00    +0.000 C 
ATOM     25  C   UNL     1      44.330   6.235  12.326  0.00  0.00    +0.000 C 
ATOM     26  C   UNL     1      43.161   5.423  11.773  0.00  0.00    +0.000 C 
ATOM     27  N   UNL     1      43.209   5.295  10.319  0.00  0.00    +0.000 NA
ATOM     28  C   UNL     1      44.461   4.693   9.866  0.00  0.00    +0.000 C 
ATOM     29  C   UNL     1      45.717   5.386  10.397  0.00  0.00    +0.000 C 
ATOM     30  H   UNL     1      43.085   6.209   9.889  0.00  0.00    +0.000 HD
ENDBRANCH  23  24
ENDBRANCH  20  23
ENDBRANCH  16  17
ENDBRANCH   3  16
TORSDOF 5
ENDMDL
MODEL 4
REMARK VINA RESULT:    -7.246      3.354      8.591
REMARK INTER + INTRA:          -9.664
REMARK INTER:                  -8.612
REMARK INTRA:                  -1.052
REMARK UNBOUND:                -0.301
REMARK  Name = 
REMARK  5 active torsions:
REMARK  status: ('A' for Active; 'I' for Inactive)
REMARK    1  A    between atoms: C_2  and  C_18
REMARK    2  A    between atoms: N_3  and  C_4
REMARK    3  A    between atoms: C_4  and  C_5
REMARK    4  A    between atoms: C_8  and  C_9
REMARK    5  A    between atoms: C_9  and  C_10
REMARK                            x       y       z     vdW  Elec       q    Type
REMARK                         _______ _______ _______ _____ _____    ______ ____
ROOT
ATOM      1  O   UNL     1      45.462   7.855  11.985  0.00  0.00    +0.000 OA
ATOM      2  C   UNL     1      46.173   6.964  11.523  0.00  0.00    +0.000 C 
ATOM      3  N   UNL     1      47.540   6.996  11.617  0.00  0.00    +0.000 N 
ATOM      4  H   UNL     1      48.090   6.349  11.065  0.00  0.00    +0.000 HD
ENDROOT
BRANCH   2   5
ATOM      5  C   UNL     1      45.594   5.786  10.864  0.00  0.00    +0.000 A 
ATOM      6  C   UNL     1      45.827   5.557   9.514  0.00  0.00    +0.000 A 
ATOM      7  S   UNL     1      45.065   4.151   8.922  0.00  0.00    +0.000 S 
ATOM      8  C   UNL     1      44.446   3.770  10.457  0.00  0.00    +0.000 A 
ATOM      9  N   UNL     1      43.712   2.642  10.658  0.00  0.00    +0.000 NA
ATOM     10  C   UNL     1      43.333   2.461  11.879  0.00  0.00    +0.000 A 
ATOM     11  N   UNL     1      43.620   3.309  12.916  0.00  0.00    +0.000 N 
ATOM     12  C   UNL     1      44.329   4.474  12.758  0.00  0.00    +0.000 A 
ATOM     13  O   UNL     1      44.524   5.236  13.707  0.00  0.00    +0.000 OA
ATOM     14  C   UNL     1      44.795   4.716  11.408  0.00  0.00    +0.000 A 
ATOM     15  H   UNL     1      43.285   3.117  13.849  0.00  0.00    +0.000 HD
ENDBRANCH   2   5
BRANCH   3  16
ATOM     16  C   UNL     1      48.222   8.178  12.075  0.00  0.00    +0.000 C 
BRANCH  16  17
ATOM     17  C   UNL     1      48.710   8.023  13.493  0.00  0.00    +0.000 A 
ATOM     18  C   UNL     1      47.905   8.440  14.561  0.00  0.00    +0.000 A 
ATOM     19  C   UNL     1      48.308   8.235  15.882  0.00  0.00    +0.000 A 
ATOM     20  C   UNL     1      49.526   7.610  16.168  0.00  0.00    +0.000 A 
ATOM     21  C   UNL     1      50.371   7.275  15.100  0.00  0.00    +0.000 A 
ATOM     22  C   UNL     1      49.968   7.479  13.774  0.00  0.00    +0.000 A 
BRANCH  20  23
ATOM     23  C   UNL     1      49.934   7.353  17.596  0.00  0.00    +0.000 C 
BRANCH  23  24
ATOM     24  C   UNL     1      49.557   6.011  18.275  0.00  0.00    +0.000 C 
ATOM     25  C   UNL     1      49.250   4.861  17.310  0.00  0.00    +0.000 C 
ATOM     26  C   UNL     1      47.787   4.797  16.875  0.00  0.00    +0.000 C 
ATOM     27  N   UNL     1      46.870   4.741  18.011  0.00  0.00    +0.000 NA
ATOM     28  C   UNL     1      47.048   5.877  18.912  0.00  0.00    +0.000 C 
ATOM     29  C   UNL     1      48.490   6.085  19.380  0.00  0.00    +0.000 C 
ATOM     30  H   UNL     1      47.004   3.869  18.519  0.00  0.00    +0.000 HD
ENDBRANCH  23  24
ENDBRANCH  20  23
ENDBRANCH  16  17
ENDBRANCH   3  16
TORSDOF 5
ENDMDL
MODEL 5
REMARK VINA RESULT:    -7.224      4.238      9.064
REMARK INTER + INTRA:          -9.636
REMARK INTER:                  -8.609
REMARK INTRA:                  -1.027
REMARK UNBOUND:                -0.301
REMARK  Name = 
REMARK  5 active torsions:
REMARK  status: ('A' for Active; 'I' for Inactive)
REMARK    1  A    between atoms: C_2  and  C_18
REMARK    2  A    between atoms: N_3  and  C_4
REMARK    3  A    between atoms: C_4  and  C_5
REMARK    4  A    between atoms: C_8  and  C_9
REMARK    5  A    between atoms: C_9  and  C_10
REMARK                            x       y       z     vdW  Elec       q    Type
REMARK                         _______ _______ _______ _____ _____    ______ ____
ROOT
ATOM      1  O   UNL     1      47.324   3.146  14.027  0.00  0.00    +0.000 OA
ATOM      2  C   UNL     1      46.910   4.190  14.529  0.00  0.00    +0.000 C 
ATOM      3  N   UNL     1      46.928   4.410  15.881  0.00  0.00    +0.000 N 
ATOM      4  H   UNL     1      46.410   5.192  16.263  0.00  0.00    +0.000 HD
ENDROOT
BRANCH   2   5
ATOM      5  C   UNL     1      46.394   5.286  13.698  0.00  0.00    +0.000 A 
ATOM      6  C   UNL     1      47.141   6.444  13.530  0.00  0.00    +0.000 A 
ATOM      7  S   UNL     1      46.377   7.608  12.545  0.00  0.00    +0.000 S 
ATOM      8  C   UNL     1      45.050   6.585  12.265  0.00  0.00    +0.000 A 
ATOM      9  N   UNL     1      44.026   6.969  11.455  0.00  0.00    +0.000 NA
ATOM     10  C   UNL     1      43.101   6.080  11.305  0.00  0.00    +0.000 A 
ATOM     11  N   UNL     1      43.107   4.844  11.896  0.00  0.00    +0.000 N 
ATOM     12  C   UNL     1      44.101   4.424  12.745  0.00  0.00    +0.000 A 
ATOM     13  O   UNL     1      44.045   3.324  13.297  0.00  0.00    +0.000 OA
ATOM     14  C   UNL     1      45.175   5.377  12.933  0.00  0.00    +0.000 A 
ATOM     15  H   UNL     1      42.347   4.197  11.748  0.00  0.00    +0.000 HD
ENDBRANCH   2   5
BRANCH   3  16
ATOM     16  C   UNL     1      47.239   3.346  16.799  0.00  0.00    +0.000 C 
BRANCH  16  17
ATOM     17  C   UNL     1      48.617   3.506  17.389  0.00  0.00    +0.000 A 
ATOM     18  C   UNL     1      49.638   2.614  17.037  0.00  0.00    +0.000 A 
ATOM     19  C   UNL     1      50.938   2.791  17.514  0.00  0.00    +0.000 A 
ATOM     20  C   UNL     1      51.249   3.864  18.356  0.00  0.00    +0.000 A 
ATOM     21  C   UNL     1      50.209   4.703  18.779  0.00  0.00    +0.000 A 
ATOM     22  C   UNL     1      48.904   4.527  18.302  0.00  0.00    +0.000 A 
BRANCH  20  23
ATOM     23  C   UNL     1      52.664   4.074  18.831  0.00  0.00    +0.000 C 
BRANCH  23  24
ATOM     24  C   UNL     1      53.522   5.211  18.219  0.00  0.00    +0.000 C 
ATOM     25  C   UNL     1      53.680   6.451  19.106  0.00  0.00    +0.000 C 
ATOM     26  C   UNL     1      52.574   7.486  18.920  0.00  0.00    +0.000 C 
ATOM     27  N   UNL     1      52.424   7.898  17.526  0.00  0.00    +0.000 NA
ATOM     28  C   UNL     1      52.163   6.760  16.647  0.00  0.00    +0.000 C 
ATOM     29  C   UNL     1      53.177   5.622  16.778  0.00  0.00    +0.000 C 
ATOM     30  H   UNL     1      53.262   8.389  17.221  0.00  0.00    +0.000 HD
ENDBRANCH  23  24
ENDBRANCH  20  23
ENDBRANCH  16  17
ENDBRANCH   3  16
TORSDOF 5
ENDMDL
MODEL 6
REMARK VINA RESULT:    -7.193      4.378     10.034
REMARK INTER + INTRA:          -9.596
REMARK INTER:                  -8.700
REMARK INTRA:                  -0.896
REMARK UNBOUND:                -0.301
REMARK  Name = 
REMARK  5 active torsions:
REMARK  status: ('A' for Active; 'I' for Inactive)
REMARK    1  A    between atoms: C_2  and  C_18
REMARK    2  A    between atoms: N_3  and  C_4
REMARK    3  A    between atoms: C_4  and  C_5
REMARK    4  A    between atoms: C_8  and  C_9
REMARK    5  A    between atoms: C_9  and  C_10
REMARK                            x       y       z     vdW  Elec       q    Type
REMARK                         _______ _______ _______ _____ _____    ______ ____
ROOT
ATOM      1  O   UNL     1      47.008   3.175  13.741  0.00  0.00    +0.000 OA
ATOM      2  C   UNL     1      46.767   4.293  14.194  0.00  0.00    +0.000 C 
ATOM      3  N   UNL     1      47.131   4.663  15.462  0.00  0.00    +0.000 N 
ATOM      4  H   UNL     1      46.751   5.514  15.859  0.00  0.00    +0.000 HD
ENDROOT
BRANCH   2   5
ATOM      5  C   UNL     1      46.096   5.318  13.385  0.00  0.00    +0.000 A 
ATOM      6  C   UNL     1      46.757   6.496  13.064  0.00  0.00    +0.000 A 
ATOM      7  S   UNL     1      45.817   7.571  12.131  0.00  0.00    +0.000 S 
ATOM      8  C   UNL     1      44.518   6.478  12.076  0.00  0.00    +0.000 A 
ATOM      9  N   UNL     1      43.382   6.772  11.388  0.00  0.00    +0.000 NA
ATOM     10  C   UNL     1      42.490   5.838  11.402  0.00  0.00    +0.000 A 
ATOM     11  N   UNL     1      42.632   4.638  12.047  0.00  0.00    +0.000 N 
ATOM     12  C   UNL     1      43.746   4.308  12.780  0.00  0.00    +0.000 A 
ATOM     13  O   UNL     1      43.815   3.238  13.388  0.00  0.00    +0.000 OA
ATOM     14  C   UNL     1      44.786   5.315  12.781  0.00  0.00    +0.000 A 
ATOM     15  H   UNL     1      41.893   3.951  12.031  0.00  0.00    +0.000 HD
ENDBRANCH   2   5
BRANCH   3  16
ATOM     16  C   UNL     1      47.627   3.691  16.402  0.00  0.00    +0.000 C 
BRANCH  16  17
ATOM     17  C   UNL     1      47.762   4.275  17.785  0.00  0.00    +0.000 A 
ATOM     18  C   UNL     1      48.678   3.727  18.691  0.00  0.00    +0.000 A 
ATOM     19  C   UNL     1      48.871   4.302  19.949  0.00  0.00    +0.000 A 
ATOM     20  C   UNL     1      48.150   5.437  20.333  0.00  0.00    +0.000 A 
ATOM     21  C   UNL     1      47.169   5.931  19.461  0.00  0.00    +0.000 A 
ATOM     22  C   UNL     1      46.975   5.356  18.199  0.00  0.00    +0.000 A 
BRANCH  20  23
ATOM     23  C   UNL     1      48.395   6.078  21.675  0.00  0.00    +0.000 C 
BRANCH  23  24
ATOM     24  C   UNL     1      49.224   7.384  21.766  0.00  0.00    +0.000 C 
ATOM     25  C   UNL     1      48.399   8.662  21.956  0.00  0.00    +0.000 C 
ATOM     26  C   UNL     1      47.946   9.302  20.646  0.00  0.00    +0.000 C 
ATOM     27  N   UNL     1      49.061   9.570  19.741  0.00  0.00    +0.000 NA
ATOM     28  C   UNL     1      49.821   8.359  19.439  0.00  0.00    +0.000 C 
ATOM     29  C   UNL     1      50.290   7.590  20.676  0.00  0.00    +0.000 C 
ATOM     30  H   UNL     1      49.673  10.274  20.148  0.00  0.00    +0.000 HD
ENDBRANCH  23  24
ENDBRANCH  20  23
ENDBRANCH  16  17
ENDBRANCH   3  16
TORSDOF 5
ENDMDL
MODEL 7
REMARK VINA RESULT:    -7.142      4.115      9.775
REMARK INTER + INTRA:          -9.531
REMARK INTER:                  -8.572
REMARK INTRA:                  -0.959
REMARK UNBOUND:                -0.301
REMARK  Name = 
REMARK  5 active torsions:
REMARK  status: ('A' for Active; 'I' for Inactive)
REMARK    1  A    between atoms: C_2  and  C_18
REMARK    2  A    between atoms: N_3  and  C_4
REMARK    3  A    between atoms: C_4  and  C_5
REMARK    4  A    between atoms: C_8  and  C_9
REMARK    5  A    between atoms: C_9  and  C_10
REMARK                            x       y       z     vdW  Elec       q    Type
REMARK                         _______ _______ _______ _____ _____    ______ ____
ROOT
ATOM      1  O   UNL     1      47.743   7.168  12.047  0.00  0.00    +0.000 OA
ATOM      2  C   UNL     1      46.932   6.567  12.750  0.00  0.00    +0.000 C 
ATOM      3  N   UNL     1      47.180   6.274  14.066  0.00  0.00    +0.000 N 
ATOM      4  H   UNL     1      46.577   5.621  14.551  0.00  0.00    +0.000 HD
ENDROOT
BRANCH   2   5
ATOM      5  C   UNL     1      45.625   6.150  12.227  0.00  0.00    +0.000 A 
ATOM      6  C   UNL     1      44.800   7.072  11.596  0.00  0.00    +0.000 A 
ATOM      7  S   UNL     1      43.320   6.410  11.066  0.00  0.00    +0.000 S 
ATOM      8  C   UNL     1      43.754   4.859  11.610  0.00  0.00    +0.000 A 
ATOM      9  N   UNL     1      42.925   3.796  11.429  0.00  0.00    +0.000 NA
ATOM     10  C   UNL     1      43.395   2.672  11.861  0.00  0.00    +0.000 A 
ATOM     11  N   UNL     1      44.617   2.520  12.461  0.00  0.00    +0.000 N 
ATOM     12  C   UNL     1      45.474   3.568  12.693  0.00  0.00    +0.000 A 
ATOM     13  O   UNL     1      46.543   3.398  13.281  0.00  0.00    +0.000 OA
ATOM     14  C   UNL     1      45.002   4.849  12.211  0.00  0.00    +0.000 A 
ATOM     15  H   UNL     1      44.924   1.616  12.787  0.00  0.00    +0.000 HD
ENDBRANCH   2   5
BRANCH   3  16
ATOM     16  C   UNL     1      48.489   6.470  14.633  0.00  0.00    +0.000 C 
BRANCH  16  17
ATOM     17  C   UNL     1      48.566   5.948  16.044  0.00  0.00    +0.000 A 
ATOM     18  C   UNL     1      47.651   4.984  16.487  0.00  0.00    +0.000 A 
ATOM     19  C   UNL     1      47.754   4.433  17.766  0.00  0.00    +0.000 A 
ATOM     20  C   UNL     1      48.774   4.835  18.635  0.00  0.00    +0.000 A 
ATOM     21  C   UNL     1      49.634   5.864  18.225  0.00  0.00    +0.000 A 
ATOM     22  C   UNL     1      49.532   6.417  16.942  0.00  0.00    +0.000 A 
BRANCH  20  23
ATOM     23  C   UNL     1      48.905   4.205  19.998  0.00  0.00    +0.000 C 
BRANCH  23  24
ATOM     24  C   UNL     1      48.478   5.000  21.259  0.00  0.00    +0.000 C 
ATOM     25  C   UNL     1      47.276   5.930  21.061  0.00  0.00    +0.000 C 
ATOM     26  C   UNL     1      47.653   7.329  20.579  0.00  0.00    +0.000 C 
ATOM     27  N   UNL     1      48.632   7.974  21.450  0.00  0.00    +0.000 NA
ATOM     28  C   UNL     1      49.849   7.174  21.588  0.00  0.00    +0.000 C 
ATOM     29  C   UNL     1      49.601   5.727  22.017  0.00  0.00    +0.000 C 
ATOM     30  H   UNL     1      48.220   8.142  22.365  0.00  0.00    +0.000 HD
ENDBRANCH  23  24
ENDBRANCH  20  23
ENDBRANCH  16  17
ENDBRANCH   3  16
TORSDOF 5
ENDMDL
MODEL 8
REMARK VINA RESULT:    -7.054      3.166      8.900
REMARK INTER + INTRA:          -9.417
REMARK INTER:                  -8.202
REMARK INTRA:                  -1.215
REMARK UNBOUND:                -0.301
REMARK  Name = 
REMARK  5 active torsions:
REMARK  status: ('A' for Active; 'I' for Inactive)
REMARK    1  A    between atoms: C_2  and  C_18
REMARK    2  A    between atoms: N_3  and  C_4
REMARK    3  A    between atoms: C_4  and  C_5
REMARK    4  A    between atoms: C_8  and  C_9
REMARK    5  A    between atoms: C_9  and  C_10
REMARK                            x       y       z     vdW  Elec       q    Type
REMARK                         _______ _______ _______ _____ _____    ______ ____
ROOT
ATOM      1  O   UNL     1      44.976   7.529  12.015  0.00  0.00    +0.000 OA
ATOM      2  C   UNL     1      45.647   6.521  11.799  0.00  0.00    +0.000 C 
ATOM      3  N   UNL     1      47.017   6.547  11.770  0.00  0.00    +0.000 N 
ATOM      4  H   UNL     1      47.520   5.747  11.405  0.00  0.00    +0.000 HD
ENDROOT
BRANCH   2   5
ATOM      5  C   UNL     1      45.017   5.212  11.588  0.00  0.00    +0.000 A 
ATOM      6  C   UNL     1      44.274   4.624  12.603  0.00  0.00    +0.000 A 
ATOM      7  S   UNL     1      43.630   3.102  12.180  0.00  0.00    +0.000 S 
ATOM      8  C   UNL     1      44.272   3.203  10.610  0.00  0.00    +0.000 A 
ATOM      9  N   UNL     1      44.054   2.217   9.698  0.00  0.00    +0.000 NA
ATOM     10  C   UNL     1      44.572   2.439   8.536  0.00  0.00    +0.000 A 
ATOM     11  N   UNL     1      45.292   3.556   8.207  0.00  0.00    +0.000 N 
ATOM     12  C   UNL     1      45.566   4.563   9.100  0.00  0.00    +0.000 A 
ATOM     13  O   UNL     1      46.260   5.529   8.780  0.00  0.00    +0.000 OA
ATOM     14  C   UNL     1      44.991   4.372  10.416  0.00  0.00    +0.000 A 
ATOM     15  H   UNL     1      45.682   3.667   7.282  0.00  0.00    +0.000 HD
ENDBRANCH   2   5
BRANCH   3  16
ATOM     16  C   UNL     1      47.734   7.796  11.782  0.00  0.00    +0.000 C 
BRANCH  16  17
ATOM     17  C   UNL     1      48.425   8.026  13.101  0.00  0.00    +0.000 A 
ATOM     18  C   UNL     1      47.751   8.680  14.141  0.00  0.00    +0.000 A 
ATOM     19  C   UNL     1      48.348   8.836  15.394  0.00  0.00    +0.000 A 
ATOM     20  C   UNL     1      49.634   8.343  15.637  0.00  0.00    +0.000 A 
ATOM     21  C   UNL     1      50.342   7.769  14.571  0.00  0.00    +0.000 A 
ATOM     22  C   UNL     1      49.744   7.612  13.314  0.00  0.00    +0.000 A 
BRANCH  20  23
ATOM     23  C   UNL     1      50.255   8.475  17.004  0.00  0.00    +0.000 C 
BRANCH  23  24
ATOM     24  C   UNL     1      50.168   7.297  18.008  0.00  0.00    +0.000 C 
ATOM     25  C   UNL     1      51.459   6.486  18.167  0.00  0.00    +0.000 C 
ATOM     26  C   UNL     1      51.591   5.337  17.170  0.00  0.00    +0.000 C 
ATOM     27  N   UNL     1      50.441   4.437  17.201  0.00  0.00    +0.000 NA
ATOM     28  C   UNL     1      49.188   5.144  16.947  0.00  0.00    +0.000 C 
ATOM     29  C   UNL     1      48.960   6.357  17.851  0.00  0.00    +0.000 C 
ATOM     30  H   UNL     1      50.399   3.964  18.102  0.00  0.00    +0.000 HD
ENDBRANCH  23  24
ENDBRANCH  20  23
ENDBRANCH  16  17
ENDBRANCH   3  16
TORSDOF 5
ENDMDL
MODEL 9
REMARK VINA RESULT:    -7.011      4.975      7.650
REMARK INTER + INTRA:          -9.361
REMARK INTER:                  -8.427
REMARK INTRA:                  -0.933
REMARK UNBOUND:                -0.301
REMARK  Name = 
REMARK  5 active torsions:
REMARK  status: ('A' for Active; 'I' for Inactive)
REMARK    1  A    between atoms: C_2  and  C_18
REMARK    2  A    between atoms: N_3  and  C_4
REMARK    3  A    between atoms: C_4  and  C_5
REMARK    4  A    between atoms: C_8  and  C_9
REMARK    5  A    between atoms: C_9  and  C_10
REMARK                            x       y       z     vdW  Elec       q    Type
REMARK                         _______ _______ _______ _____ _____    ______ ____
ROOT
ATOM      1  O   UNL     1      44.377   7.651  11.035  0.00  0.00    +0.000 OA
ATOM      2  C   UNL     1      44.901   6.757  11.698  0.00  0.00    +0.000 C 
ATOM      3  N   UNL     1      45.819   7.016  12.682  0.00  0.00    +0.000 N 
ATOM      4  H   UNL     1      46.360   6.253  13.068  0.00  0.00    +0.000 HD
ENDROOT
BRANCH   2   5
ATOM      5  C   UNL     1      44.547   5.346  11.494  0.00  0.00    +0.000 A 
ATOM      6  C   UNL     1      43.768   4.680  12.431  0.00  0.00    +0.000 A 
ATOM      7  S   UNL     1      43.472   3.049  12.032  0.00  0.00    +0.000 S 
ATOM      8  C   UNL     1      44.324   3.192  10.569  0.00  0.00    +0.000 A 
ATOM      9  N   UNL     1      44.425   2.141   9.710  0.00  0.00    +0.000 NA
ATOM     10  C   UNL     1      45.072   2.400   8.622  0.00  0.00    +0.000 A 
ATOM     11  N   UNL     1      45.630   3.613   8.320  0.00  0.00    +0.000 N 
ATOM     12  C   UNL     1      45.582   4.693   9.168  0.00  0.00    +0.000 A 
ATOM     13  O   UNL     1      46.141   5.753   8.881  0.00  0.00    +0.000 OA
ATOM     14  C   UNL     1      44.851   4.462  10.396  0.00  0.00    +0.000 A 
ATOM     15  H   UNL     1      46.134   3.750   7.457  0.00  0.00    +0.000 HD
ENDBRANCH   2   5
BRANCH   3  16
ATOM     16  C   UNL     1      46.374   8.335  12.846  0.00  0.00    +0.000 C 
BRANCH  16  17
ATOM     17  C   UNL     1      47.803   8.398  12.372  0.00  0.00    +0.000 A 
ATOM     18  C   UNL     1      48.336   9.608  11.911  0.00  0.00    +0.000 A 
ATOM     19  C   UNL     1      49.679   9.704  11.539  0.00  0.00    +0.000 A 
ATOM     20  C   UNL     1      50.521   8.589  11.617  0.00  0.00    +0.000 A 
ATOM     21  C   UNL     1      49.965   7.358  11.992  0.00  0.00    +0.000 A 
ATOM     22  C   UNL     1      48.619   7.261  12.366  0.00  0.00    +0.000 A 
BRANCH  20  23
ATOM     23  C   UNL     1      51.979   8.710  11.256  0.00  0.00    +0.000 C 
BRANCH  23  24
ATOM     24  C   UNL     1      52.430   8.496   9.788  0.00  0.00    +0.000 C 
ATOM     25  C   UNL     1      52.350   7.047   9.292  0.00  0.00    +0.000 C 
ATOM     26  C   UNL     1      53.613   6.234   9.566  0.00  0.00    +0.000 C 
ATOM     27  N   UNL     1      54.813   6.869   9.029  0.00  0.00    +0.000 NA
ATOM     28  C   UNL     1      54.996   8.221   9.555  0.00  0.00    +0.000 C 
ATOM     29  C   UNL     1      53.774   9.126   9.390  0.00  0.00    +0.000 C 
ATOM     30  H   UNL     1      54.764   6.894   8.012  0.00  0.00    +0.000 HD
ENDBRANCH  23  24
ENDBRANCH  20  23
ENDBRANCH  16  17
ENDBRANCH   3  16
TORSDOF 5
ENDMDL
