MODEL 1
REMARK VINA RESULT:    -7.709      0.000      0.000
REMARK INTER + INTRA:         -11.465
REMARK INTER:                  -9.962
REMARK INTRA:                  -1.503
REMARK UNBOUND:                -1.503
REMARK  Name = 
REMARK  5 active torsions:
REMARK  status: ('A' for Active; 'I' for Inactive)
REMARK    1  A    between atoms: C_2  and  C_5
REMARK    2  A    between atoms: C_10  and  N_11
REMARK    3  A    between atoms: N_11  and  C_12
REMARK    4  A    between atoms: C_12  and  C_13
REMARK    5  A    between atoms: C_17  and  C_18
REMARK                            x       y       z     vdW  Elec       q    Type
REMARK                         _______ _______ _______ _____ _____    ______ ____
ROOT
ATOM      1  C   UNL     1      43.706   6.547  11.411  0.00  0.00    +0.000 C 
ENDROOT
BRANCH   1   2
ATOM      2  C   UNL     1      43.700   5.097  10.994  0.00  0.00    +0.000 A 
ATOM      3  C   UNL     1      43.123   4.115  11.802  0.00  0.00    +0.000 A 
ATOM      4  C   UNL     1      43.260   2.787  11.431  0.00  0.00    +0.000 A 
ATOM      5  N   UNL     1      43.912   2.380  10.320  0.00  0.00    +0.000 NA
ATOM      6  C   UNL     1      44.446   3.335   9.521  0.00  0.00    +0.000 A 
ATOM      7  C   UNL     1      44.346   4.693   9.821  0.00  0.00    +0.000 A 
BRANCH   6   8
ATOM      8  C   UNL     1      45.205   2.885   8.289  0.00  0.00    +0.000 C 
ATOM      9  C   UNL     1      46.006   1.605   8.551  0.00  0.00    +0.000 C 
ATOM     10  C   UNL     1      46.805   1.224   7.312  0.00  0.00    +0.000 C 
ATOM     11  O   UNL     1      47.653   2.294   6.899  0.00  0.00    +0.000 OA
ATOM     12  C   UNL     1      46.920   3.469   6.558  0.00  0.00    +0.000 C 
ATOM     13  C   UNL     1      46.129   3.985   7.752  0.00  0.00    +0.000 C 
ENDBRANCH   6   8
ENDBRANCH   1   2
BRANCH   1  14
ATOM     14  N   UNL     1      44.480   6.765  12.617  0.00  0.00    +0.000 N 
ATOM     15  H   UNL     1      44.171   7.576  13.154  0.00  0.00    +0.000 HD
BRANCH  14  21
ATOM     16  C   UNL     1      46.753   5.863  13.029  0.00  0.00    +0.000 A 
ATOM     17  C   UNL     1      48.096   6.205  12.981  0.00  0.00    +0.000 A 
ATOM     18  N   UNL     1      48.567   7.380  12.533  0.00  0.00    +0.000 NA
ATOM     19  C   UNL     1      47.635   8.239  12.127  0.00  0.00    +0.000 A 
ATOM     20  N   UNL     1      46.308   8.017  12.137  0.00  0.00    +0.000 NA
ATOM     21  C   UNL     1      45.866   6.825  12.590  0.00  0.00    +0.000 A 
BRANCH  16  23
ATOM     22  F   UNL     1      47.337   3.992  14.389  0.00  0.00    +0.000 F 
ATOM     23  C   UNL     1      46.395   4.519  13.551  0.00  0.00    +0.000 C 
ATOM     24  F   UNL     1      46.262   3.589  12.562  0.00  0.00    +0.000 F 
ATOM     25  F   UNL     1      45.234   4.491  14.259  0.00  0.00    +0.000 F 
ENDBRANCH  16  23
ENDBRANCH  14  21
ENDBRANCH   1  14
TORSDOF 5
ENDMDL
MODEL 2
REMARK VINA RESULT:    -7.107      2.126      2.494
REMARK INTER + INTRA:         -10.687
REMARK INTER:                  -9.993
REMARK INTRA:                  -0.694
REMARK UNBOUND:                -1.503
REMARK  Name = 
REMARK  5 active torsions:
REMARK  status: ('A' for Active; 'I' for Inactive)
REMARK    1  A    between atoms: C_2  and  C_5
REMARK    2  A    between atoms: C_10  and  N_11
REMARK    3  A    between atoms: N_11  and  C_12
REMARK    4  A    between atoms: C_12  and  C_13
REMARK    5  A    between atoms: C_17  and  C_18
REMARK                            x       y       z     vdW  Elec       q    Type
REMARK                         _______ _______ _______ _____ _____    ______ ____
ROOT
ATOM      1  C   UNL     1      43.523   6.325  11.480  0.00  0.00    +0.000 C 
ENDROOT
BRANCH   1   2
ATOM      2  C   UNL     1      43.607   4.889  11.026  0.00  0.00    +0.000 A 
ATOM      3  C   UNL     1      43.111   3.850  11.819  0.00  0.00    +0.000 A 
ATOM      4  C   UNL     1      43.329   2.544  11.411  0.00  0.00    +0.000 A 
ATOM      5  N   UNL     1      43.987   2.209  10.279  0.00  0.00    +0.000 NA
ATOM      6  C   UNL     1      44.442   3.217   9.496  0.00  0.00    +0.000 A 
ATOM      7  C   UNL     1      44.256   4.557   9.833  0.00  0.00    +0.000 A 
BRANCH   6   8
ATOM      8  C   UNL     1      45.207   2.850   8.241  0.00  0.00    +0.000 C 
ATOM      9  C   UNL     1      46.054   1.588   8.441  0.00  0.00    +0.000 C 
ATOM     10  C   UNL     1      46.856   1.290   7.182  0.00  0.00    +0.000 C 
ATOM     11  O   UNL     1      47.664   2.407   6.813  0.00  0.00    +0.000 OA
ATOM     12  C   UNL     1      46.888   3.570   6.529  0.00  0.00    +0.000 C 
ATOM     13  C   UNL     1      46.089   4.005   7.749  0.00  0.00    +0.000 C 
ENDBRANCH   6   8
ENDBRANCH   1   2
BRANCH   1  14
ATOM     14  N   UNL     1      44.106   6.516  12.795  0.00  0.00    +0.000 N 
ATOM     15  H   UNL     1      43.833   7.397  13.232  0.00  0.00    +0.000 HD
BRANCH  14  21
ATOM     16  C   UNL     1      46.454   7.310  12.732  0.00  0.00    +0.000 A 
ATOM     17  C   UNL     1      47.760   6.898  12.952  0.00  0.00    +0.000 A 
ATOM     18  N   UNL     1      48.108   5.687  13.416  0.00  0.00    +0.000 NA
ATOM     19  C   UNL     1      47.089   4.866  13.657  0.00  0.00    +0.000 A 
ATOM     20  N   UNL     1      45.788   5.156  13.474  0.00  0.00    +0.000 NA
ATOM     21  C   UNL     1      45.470   6.383  13.010  0.00  0.00    +0.000 A 
BRANCH  16  23
ATOM     22  F   UNL     1      45.711   9.539  13.149  0.00  0.00    +0.000 F 
ATOM     23  C   UNL     1      46.236   8.687  12.218  0.00  0.00    +0.000 C 
ATOM     24  F   UNL     1      45.351   8.727  11.182  0.00  0.00    +0.000 F 
ATOM     25  F   UNL     1      47.369   9.299  11.776  0.00  0.00    +0.000 F 
ENDBRANCH  16  23
ENDBRANCH  14  21
ENDBRANCH   1  14
TORSDOF 5
ENDMDL
MODEL 3
REMARK VINA RESULT:    -6.940      1.114      1.466
REMARK INTER + INTRA:         -10.472
REMARK INTER:                  -9.402
REMARK INTRA:                  -1.070
REMARK UNBOUND:                -1.503
REMARK  Name = 
REMARK  5 active torsions:
REMARK  status: ('A' for Active; 'I' for Inactive)
REMARK    1  A    between atoms: C_2  and  C_5
REMARK    2  A    between atoms: C_10  and  N_11
REMARK    3  A    between atoms: N_11  and  C_12
REMARK    4  A    between atoms: C_12  and  C_13
REMARK    5  A    between atoms: C_17  and  C_18
REMARK                            x       y       z     vdW  Elec       q    Type
REMARK                         _______ _______ _______ _____ _____    ______ ____
ROOT
ATOM      1  C   UNL     1      45.487   6.577  11.272  0.00  0.00    +0.000 C 
ENDROOT
BRANCH   1   2
ATOM      2  C   UNL     1      44.904   5.295  10.731  0.00  0.00    +0.000 A 
ATOM      3  C   UNL     1      43.867   4.635  11.395  0.00  0.00    +0.000 A 
ATOM      4  C   UNL     1      43.459   3.398  10.923  0.00  0.00    +0.000 A 
ATOM      5  N   UNL     1      43.999   2.790   9.843  0.00  0.00    +0.000 NA
ATOM      6  C   UNL     1      44.984   3.444   9.182  0.00  0.00    +0.000 A 
ATOM      7  C   UNL     1      45.446   4.694   9.590  0.00  0.00    +0.000 A 
BRANCH   6   8
ATOM      8  C   UNL     1      45.614   2.755   7.988  0.00  0.00    +0.000 C 
ATOM      9  C   UNL     1      46.207   1.393   8.366  0.00  0.00    +0.000 C 
ATOM     10  C   UNL     1      46.887   0.764   7.158  0.00  0.00    +0.000 C 
ATOM     11  O   UNL     1      47.881   1.633   6.619  0.00  0.00    +0.000 OA
ATOM     12  C   UNL     1      47.336   2.874   6.172  0.00  0.00    +0.000 C 
ATOM     13  C   UNL     1      46.684   3.629   7.322  0.00  0.00    +0.000 C 
ENDBRANCH   6   8
ENDBRANCH   1   2
BRANCH   1  14
ATOM     14  N   UNL     1      46.934   6.524  11.359  0.00  0.00    +0.000 N 
ATOM     15  H   UNL     1      47.324   5.635  11.044  0.00  0.00    +0.000 HD
BRANCH  14  21
ATOM     16  C   UNL     1      47.569   6.161  13.728  0.00  0.00    +0.000 A 
ATOM     17  C   UNL     1      48.252   6.745  14.784  0.00  0.00    +0.000 A 
ATOM     18  N   UNL     1      48.934   7.899  14.706  0.00  0.00    +0.000 NA
ATOM     19  C   UNL     1      48.910   8.483  13.510  0.00  0.00    +0.000 A 
ATOM     20  N   UNL     1      48.276   8.012  12.421  0.00  0.00    +0.000 NA
ATOM     21  C   UNL     1      47.603   6.847  12.531  0.00  0.00    +0.000 A 
BRANCH  16  23
ATOM     22  F   UNL     1      47.035   3.960  12.979  0.00  0.00    +0.000 F 
ATOM     23  C   UNL     1      46.866   4.877  13.979  0.00  0.00    +0.000 C 
ATOM     24  F   UNL     1      45.515   5.027  14.078  0.00  0.00    +0.000 F 
ATOM     25  F   UNL     1      47.264   4.240  15.114  0.00  0.00    +0.000 F 
ENDBRANCH  16  23
ENDBRANCH  14  21
ENDBRANCH   1  14
TORSDOF 5
ENDMDL
MODEL 4
REMARK VINA RESULT:    -6.775      2.302      2.851
REMARK INTER + INTRA:         -10.259
REMARK INTER:                  -8.941
REMARK INTRA:                  -1.317
REMARK UNBOUND:                -1.503
REMARK  Name = 
REMARK  5 active torsions:
REMARK  status: ('A' for Active; 'I' for Inactive)
REMARK    1  A    between atoms: C_2  and  C_5
REMARK    2  A    between atoms: C_10  and  N_11
REMARK    3  A    between atoms: N_11  and  C_12
REMARK    4  A    between atoms: C_12  and  C_13
REMARK    5  A    between atoms: C_17  and  C_18
REMARK                            x       y       z     vdW  Elec       q    Type
REMARK                         _______ _______ _______ _____ _____    ______ ____
ROOT
ATOM      1  C   UNL     1      45.710   4.679  13.800  0.00  0.00    +0.000 C 
ENDROOT
BRANCH   1   2
ATOM      2  C   UNL     1      44.888   4.807  12.541  0.00  0.00    +0.000 A 
ATOM      3  C   UNL     1      43.641   5.436  12.553  0.00  0.00    +0.000 A 
ATOM      4  C   UNL     1      42.876   5.411  11.398  0.00  0.00    +0.000 A 
ATOM      5  N   UNL     1      43.269   4.821  10.248  0.00  0.00    +0.000 NA
ATOM      6  C   UNL     1      44.491   4.236  10.229  0.00  0.00    +0.000 A 
ATOM      7  C   UNL     1      45.324   4.225  11.347  0.00  0.00    +0.000 A 
BRANCH   6   8
ATOM      8  C   UNL     1      44.926   3.546   8.952  0.00  0.00    +0.000 C 
ATOM      9  C   UNL     1      45.488   2.146   9.227  0.00  0.00    +0.000 C 
ATOM     10  C   UNL     1      45.974   1.513   7.930  0.00  0.00    +0.000 C 
ATOM     11  O   UNL     1      46.937   2.344   7.284  0.00  0.00    +0.000 OA
ATOM     12  C   UNL     1      46.407   3.621   6.932  0.00  0.00    +0.000 C 
ATOM     13  C   UNL     1      45.947   4.380   8.169  0.00  0.00    +0.000 C 
ENDBRANCH   6   8
ENDBRANCH   1   2
BRANCH   1  14
ATOM     14  N   UNL     1      47.120   4.917  13.557  0.00  0.00    +0.000 N 
ATOM     15  H   UNL     1      47.708   4.113  13.780  0.00  0.00    +0.000 HD
BRANCH  14  21
ATOM     16  C   UNL     1      47.890   7.274  13.495  0.00  0.00    +0.000 A 
ATOM     17  C   UNL     1      48.673   8.192  14.177  0.00  0.00    +0.000 A 
ATOM     18  N   UNL     1      49.293   7.947  15.343  0.00  0.00    +0.000 NA
ATOM     19  C   UNL     1      49.114   6.719  15.825  0.00  0.00    +0.000 A 
ATOM     20  N   UNL     1      48.383   5.749  15.246  0.00  0.00    +0.000 NA
ATOM     21  C   UNL     1      47.769   6.028  14.077  0.00  0.00    +0.000 A 
BRANCH  16  23
ATOM     22  F   UNL     1      45.915   7.875  12.299  0.00  0.00    +0.000 F 
ATOM     23  C   UNL     1      47.268   7.703  12.216  0.00  0.00    +0.000 C 
ATOM     24  F   UNL     1      47.434   6.789  11.217  0.00  0.00    +0.000 F 
ATOM     25  F   UNL     1      47.747   8.883  11.737  0.00  0.00    +0.000 F 
ENDBRANCH  16  23
ENDBRANCH  14  21
ENDBRANCH   1  14
TORSDOF 5
ENDMDL
MODEL 5
REMARK VINA RESULT:    -6.469      3.443      5.437
REMARK INTER + INTRA:          -9.863
REMARK INTER:                  -8.828
REMARK INTRA:                  -1.035
REMARK UNBOUND:                -1.503
REMARK  Name = 
REMARK  5 active torsions:
REMARK  status: ('A' for Active; 'I' for Inactive)
REMARK    1  A    between atoms: C_2  and  C_5
REMARK    2  A    between atoms: C_10  and  N_11
REMARK    3  A    between atoms: N_11  and  C_12
REMARK    4  A    between atoms: C_12  and  C_13
REMARK    5  A    between atoms: C_17  and  C_18
REMARK                            x       y       z     vdW  Elec       q    Type
REMARK                         _______ _______ _______ _____ _____    ______ ____
ROOT
ATOM      1  C   UNL     1      48.949   7.075  14.783  0.00  0.00    +0.000 C 
ENDROOT
BRANCH   1   2
ATOM      2  C   UNL     1      47.740   7.131  13.882  0.00  0.00    +0.000 A 
ATOM      3  C   UNL     1      47.074   8.336  13.639  0.00  0.00    +0.000 A 
ATOM      4  C   UNL     1      45.897   8.306  12.909  0.00  0.00    +0.000 A 
ATOM      5  N   UNL     1      45.353   7.177  12.404  0.00  0.00    +0.000 NA
ATOM      6  C   UNL     1      46.014   6.014  12.615  0.00  0.00    +0.000 A 
ATOM      7  C   UNL     1      47.208   5.960  13.333  0.00  0.00    +0.000 A 
BRANCH   6   8
ATOM      8  C   UNL     1      45.396   4.739  12.078  0.00  0.00    +0.000 C 
ATOM      9  C   UNL     1      44.977   4.885  10.610  0.00  0.00    +0.000 C 
ATOM     10  C   UNL     1      44.302   3.609  10.128  0.00  0.00    +0.000 C 
ATOM     11  O   UNL     1      43.190   3.273  10.956  0.00  0.00    +0.000 OA
ATOM     12  C   UNL     1      43.571   3.038  12.311  0.00  0.00    +0.000 C 
ATOM     13  C   UNL     1      44.202   4.280  12.924  0.00  0.00    +0.000 C 
ENDBRANCH   6   8
ENDBRANCH   1   2
BRANCH   1  14
ATOM     14  N   UNL     1      48.620   6.591  16.109  0.00  0.00    +0.000 N 
ATOM     15  H   UNL     1      48.611   7.327  16.816  0.00  0.00    +0.000 HD
BRANCH  14  21
ATOM     16  C   UNL     1      48.735   4.371  17.209  0.00  0.00    +0.000 A 
ATOM     17  C   UNL     1      49.618   3.485  17.806  0.00  0.00    +0.000 A 
ATOM     18  N   UNL     1      50.946   3.670  17.883  0.00  0.00    +0.000 NA
ATOM     19  C   UNL     1      51.387   4.801  17.339  0.00  0.00    +0.000 A 
ATOM     20  N   UNL     1      50.621   5.733  16.742  0.00  0.00    +0.000 NA
ATOM     21  C   UNL     1      49.290   5.517  16.677  0.00  0.00    +0.000 A 
BRANCH  16  23
ATOM     22  F   UNL     1      46.714   4.104  15.968  0.00  0.00    +0.000 F 
ATOM     23  C   UNL     1      47.291   4.018  17.204  0.00  0.00    +0.000 C 
ATOM     24  F   UNL     1      46.544   4.847  17.987  0.00  0.00    +0.000 F 
ATOM     25  F   UNL     1      47.030   2.752  17.629  0.00  0.00    +0.000 F 
ENDBRANCH  16  23
ENDBRANCH  14  21
ENDBRANCH   1  14
TORSDOF 5
ENDMDL
MODEL 6
REMARK VINA RESULT:    -5.782      3.590      7.067
REMARK INTER + INTRA:          -8.975
REMARK INTER:                  -7.479
REMARK INTRA:                  -1.496
REMARK UNBOUND:                -1.503
REMARK  Name = 
REMARK  5 active torsions:
REMARK  status: ('A' for Active; 'I' for Inactive)
REMARK    1  A    between atoms: C_2  and  C_5
REMARK    2  A    between atoms: C_10  and  N_11
REMARK    3  A    between atoms: N_11  and  C_12
REMARK    4  A    between atoms: C_12  and  C_13
REMARK    5  A    between atoms: C_17  and  C_18
REMARK                            x       y       z     vdW  Elec       q    Type
REMARK                         _______ _______ _______ _____ _____    ______ ____
ROOT
ATOM      1  C   UNL     1      45.820   7.964  12.336  0.00  0.00    +0.000 C 
ENDROOT
BRANCH   1   2
ATOM      2  C   UNL     1      47.275   7.933  12.736  0.00  0.00    +0.000 A 
ATOM      3  C   UNL     1      48.289   7.960  11.775  0.00  0.00    +0.000 A 
ATOM      4  C   UNL     1      49.601   7.801  12.192  0.00  0.00    +0.000 A 
ATOM      5  N   UNL     1      49.965   7.631  13.483  0.00  0.00    +0.000 NA
ATOM      6  C   UNL     1      48.984   7.635  14.417  0.00  0.00    +0.000 A 
ATOM      7  C   UNL     1      47.640   7.797  14.079  0.00  0.00    +0.000 A 
BRANCH   6   8
ATOM      8  C   UNL     1      49.380   7.416  15.863  0.00  0.00    +0.000 C 
ATOM      9  C   UNL     1      48.911   6.051  16.379  0.00  0.00    +0.000 C 
ATOM     10  C   UNL     1      49.270   5.895  17.850  0.00  0.00    +0.000 C 
ATOM     11  O   UNL     1      48.725   6.961  18.626  0.00  0.00    +0.000 OA
ATOM     12  C   UNL     1      49.221   8.237  18.225  0.00  0.00    +0.000 C 
ATOM     13  C   UNL     1      48.859   8.532  16.776  0.00  0.00    +0.000 C 
ENDBRANCH   6   8
ENDBRANCH   1   2
BRANCH   1  14
ATOM     14  N   UNL     1      45.035   6.984  13.062  0.00  0.00    +0.000 N 
ATOM     15  H   UNL     1      45.423   6.756  13.978  0.00  0.00    +0.000 HD
BRANCH  14  21
ATOM     16  C   UNL     1      45.305   4.559  12.618  0.00  0.00    +0.000 A 
ATOM     17  C   UNL     1      44.794   3.518  11.859  0.00  0.00    +0.000 A 
ATOM     18  N   UNL     1      43.739   3.622  11.035  0.00  0.00    +0.000 NA
ATOM     19  C   UNL     1      43.191   4.834  10.977  0.00  0.00    +0.000 A 
ATOM     20  N   UNL     1      43.607   5.915  11.662  0.00  0.00    +0.000 NA
ATOM     21  C   UNL     1      44.668   5.777  12.485  0.00  0.00    +0.000 A 
BRANCH  16  23
ATOM     22  F   UNL     1      46.778   2.948  13.582  0.00  0.00    +0.000 F 
ATOM     23  C   UNL     1      46.478   4.278  13.486  0.00  0.00    +0.000 C 
ATOM     24  F   UNL     1      46.287   4.678  14.775  0.00  0.00    +0.000 F 
ATOM     25  F   UNL     1      47.629   4.872  13.069  0.00  0.00    +0.000 F 
ENDBRANCH  16  23
ENDBRANCH  14  21
ENDBRANCH   1  14
TORSDOF 5
ENDMDL
MODEL 7
REMARK VINA RESULT:    -5.772      3.767      5.790
REMARK INTER + INTRA:          -8.962
REMARK INTER:                  -7.609
REMARK INTRA:                  -1.353
REMARK UNBOUND:                -1.503
REMARK  Name = 
REMARK  5 active torsions:
REMARK  status: ('A' for Active; 'I' for Inactive)
REMARK    1  A    between atoms: C_2  and  C_5
REMARK    2  A    between atoms: C_10  and  N_11
REMARK    3  A    between atoms: N_11  and  C_12
REMARK    4  A    between atoms: C_12  and  C_13
REMARK    5  A    between atoms: C_17  and  C_18
REMARK                            x       y       z     vdW  Elec       q    Type
REMARK                         _______ _______ _______ _____ _____    ______ ____
ROOT
ATOM      1  C   UNL     1      44.646   7.126  11.635  0.00  0.00    +0.000 C 
ENDROOT
BRANCH   1   2
ATOM      2  C   UNL     1      45.205   5.828  12.164  0.00  0.00    +0.000 A 
ATOM      3  C   UNL     1      44.960   4.616  11.513  0.00  0.00    +0.000 A 
ATOM      4  C   UNL     1      45.389   3.444  12.113  0.00  0.00    +0.000 A 
ATOM      5  N   UNL     1      46.045   3.399  13.293  0.00  0.00    +0.000 NA
ATOM      6  C   UNL     1      46.309   4.576  13.909  0.00  0.00    +0.000 A 
ATOM      7  C   UNL     1      45.916   5.800  13.367  0.00  0.00    +0.000 A 
BRANCH   6   8
ATOM      8  C   UNL     1      47.018   4.533  15.248  0.00  0.00    +0.000 C 
ATOM      9  C   UNL     1      48.069   5.642  15.370  0.00  0.00    +0.000 C 
ATOM     10  C   UNL     1      48.803   5.525  16.698  0.00  0.00    +0.000 C 
ATOM     11  O   UNL     1      49.389   4.233  16.848  0.00  0.00    +0.000 OA
ATOM     12  C   UNL     1      48.417   3.189  16.834  0.00  0.00    +0.000 C 
ATOM     13  C   UNL     1      47.660   3.166  15.513  0.00  0.00    +0.000 C 
ENDBRANCH   6   8
ENDBRANCH   1   2
BRANCH   1  14
ATOM     14  N   UNL     1      44.817   8.217  12.575  0.00  0.00    +0.000 N 
ATOM     15  H   UNL     1      43.976   8.415  13.118  0.00  0.00    +0.000 HD
BRANCH  14  21
ATOM     16  C   UNL     1      46.644   9.820  12.087  0.00  0.00    +0.000 A 
ATOM     17  C   UNL     1      46.885  11.144  11.753  0.00  0.00    +0.000 A 
ATOM     18  N   UNL     1      45.927  12.053  11.506  0.00  0.00    +0.000 NA
ATOM     19  C   UNL     1      44.682  11.597  11.612  0.00  0.00    +0.000 A 
ATOM     20  N   UNL     1      44.333  10.339  11.937  0.00  0.00    +0.000 NA
ATOM     21  C   UNL     1      45.318   9.447  12.176  0.00  0.00    +0.000 A 
BRANCH  16  23
ATOM     22  F   UNL     1      47.879   8.449  13.601  0.00  0.00    +0.000 F 
ATOM     23  C   UNL     1      47.816   8.939  12.326  0.00  0.00    +0.000 C 
ATOM     24  F   UNL     1      49.005   9.585  12.151  0.00  0.00    +0.000 F 
ATOM     25  F   UNL     1      47.857   7.841  11.522  0.00  0.00    +0.000 F 
ENDBRANCH  16  23
ENDBRANCH  14  21
ENDBRANCH   1  14
TORSDOF 5
ENDMDL
MODEL 8
REMARK VINA RESULT:    -5.677      3.465      5.026
REMARK INTER + INTRA:          -8.839
REMARK INTER:                  -8.068
REMARK INTRA:                  -0.772
REMARK UNBOUND:                -1.503
REMARK  Name = 
REMARK  5 active torsions:
REMARK  status: ('A' for Active; 'I' for Inactive)
REMARK    1  A    between atoms: C_2  and  C_5
REMARK    2  A    between atoms: C_10  and  N_11
REMARK    3  A    between atoms: N_11  and  C_12
REMARK    4  A    between atoms: C_12  and  C_13
REMARK    5  A    between atoms: C_17  and  C_18
REMARK                            x       y       z     vdW  Elec       q    Type
REMARK                         _______ _______ _______ _____ _____    ______ ____
ROOT
ATOM      1  C   UNL     1      48.422   6.570  13.957  0.00  0.00    +0.000 C 
ENDROOT
BRANCH   1   2
ATOM      2  C   UNL     1      47.236   6.912  13.089  0.00  0.00    +0.000 A 
ATOM      3  C   UNL     1      46.628   8.168  13.158  0.00  0.00    +0.000 A 
ATOM      4  C   UNL     1      45.467   8.383  12.433  0.00  0.00    +0.000 A 
ATOM      5  N   UNL     1      44.888   7.449  11.647  0.00  0.00    +0.000 NA
ATOM      6  C   UNL     1      45.494   6.241  11.557  0.00  0.00    +0.000 A 
ATOM      7  C   UNL     1      46.668   5.949  12.250  0.00  0.00    +0.000 A 
BRANCH   6   8
ATOM      8  C   UNL     1      44.834   5.178  10.702  0.00  0.00    +0.000 C 
ATOM      9  C   UNL     1      44.707   3.846  11.450  0.00  0.00    +0.000 C 
ATOM     10  C   UNL     1      44.101   2.789  10.537  0.00  0.00    +0.000 C 
ATOM     11  O   UNL     1      44.864   2.645   9.341  0.00  0.00    +0.000 OA
ATOM     12  C   UNL     1      44.917   3.850   8.579  0.00  0.00    +0.000 C 
ATOM     13  C   UNL     1      45.572   4.970   9.375  0.00  0.00    +0.000 C 
ENDBRANCH   6   8
ENDBRANCH   1   2
BRANCH   1  14
ATOM     14  N   UNL     1      48.092   6.602  15.368  0.00  0.00    +0.000 N 
ATOM     15  H   UNL     1      48.645   7.278  15.896  0.00  0.00    +0.000 HD
BRANCH  14  21
ATOM     16  C   UNL     1      48.329   5.329  17.483  0.00  0.00    +0.000 A 
ATOM     17  C   UNL     1      48.326   4.041  17.996  0.00  0.00    +0.000 A 
ATOM     18  N   UNL     1      48.074   2.935  17.277  0.00  0.00    +0.000 NA
ATOM     19  C   UNL     1      47.825   3.151  15.988  0.00  0.00    +0.000 A 
ATOM     20  N   UNL     1      47.809   4.352  15.383  0.00  0.00    +0.000 NA
ATOM     21  C   UNL     1      48.062   5.445  16.134  0.00  0.00    +0.000 A 
BRANCH  16  23
ATOM     22  F   UNL     1      48.928   6.037  19.682  0.00  0.00    +0.000 F 
ATOM     23  C   UNL     1      48.623   6.449  18.414  0.00  0.00    +0.000 C 
ATOM     24  F   UNL     1      47.564   7.292  18.575  0.00  0.00    +0.000 F 
ATOM     25  F   UNL     1      49.674   7.225  18.032  0.00  0.00    +0.000 F 
ENDBRANCH  16  23
ENDBRANCH  14  21
ENDBRANCH   1  14
TORSDOF 5
ENDMDL
MODEL 9
REMARK VINA RESULT:    -5.509      3.627      6.731
REMARK INTER + INTRA:          -8.622
REMARK INTER:                  -7.249
REMARK INTRA:                  -1.374
REMARK UNBOUND:                -1.503
REMARK  Name = 
REMARK  5 active torsions:
REMARK  status: ('A' for Active; 'I' for Inactive)
REMARK    1  A    between atoms: C_2  and  C_5
REMARK    2  A    between atoms: C_10  and  N_11
REMARK    3  A    between atoms: N_11  and  C_12
REMARK    4  A    between atoms: C_12  and  C_13
REMARK    5  A    between atoms: C_17  and  C_18
REMARK                            x       y       z     vdW  Elec       q    Type
REMARK                         _______ _______ _______ _____ _____    ______ ____
ROOT
ATOM      1  C   UNL     1      46.635   4.544  14.616  0.00  0.00    +0.000 C 
ENDROOT
BRANCH   1   2
ATOM      2  C   UNL     1      47.745   5.495  14.992  0.00  0.00    +0.000 A 
ATOM      3  C   UNL     1      48.362   5.427  16.244  0.00  0.00    +0.000 A 
ATOM      4  C   UNL     1      49.284   6.405  16.582  0.00  0.00    +0.000 A 
ATOM      5  N   UNL     1      49.634   7.423  15.765  0.00  0.00    +0.000 NA
ATOM      6  C   UNL     1      49.057   7.471  14.540  0.00  0.00    +0.000 A 
ATOM      7  C   UNL     1      48.126   6.521  14.122  0.00  0.00    +0.000 A 
BRANCH   6   8
ATOM      8  C   UNL     1      49.422   8.626  13.630  0.00  0.00    +0.000 C 
ATOM      9  C   UNL     1      48.199   9.479  13.276  0.00  0.00    +0.000 C 
ATOM     10  C   UNL     1      48.594  10.587  12.309  0.00  0.00    +0.000 C 
ATOM     11  O   UNL     1      49.212  10.051  11.140  0.00  0.00    +0.000 OA
ATOM     12  C   UNL     1      50.408   9.332  11.437  0.00  0.00    +0.000 C 
ATOM     13  C   UNL     1      50.121   8.149  12.350  0.00  0.00    +0.000 C 
ENDBRANCH   6   8
ENDBRANCH   1   2
BRANCH   1  14
ATOM     14  N   UNL     1      46.568   4.324  13.184  0.00  0.00    +0.000 N 
ATOM     15  H   UNL     1      47.176   4.948  12.652  0.00  0.00    +0.000 HD
BRANCH  14  21
ATOM     16  C   UNL     1      44.687   5.368  11.950  0.00  0.00    +0.000 A 
ATOM     17  C   UNL     1      43.439   5.095  11.413  0.00  0.00    +0.000 A 
ATOM     18  N   UNL     1      42.865   3.881  11.399  0.00  0.00    +0.000 NA
ATOM     19  C   UNL     1      43.588   2.914  11.959  0.00  0.00    +0.000 A 
ATOM     20  N   UNL     1      44.804   3.066  12.515  0.00  0.00    +0.000 NA
ATOM     21  C   UNL     1      45.355   4.298  12.511  0.00  0.00    +0.000 A 
BRANCH  16  23
ATOM     22  F   UNL     1      45.247   7.381  13.102  0.00  0.00    +0.000 F 
ATOM     23  C   UNL     1      45.183   6.768  11.882  0.00  0.00    +0.000 C 
ATOM     24  F   UNL     1      44.376   7.576  11.136  0.00  0.00    +0.000 F 
ATOM     25  F   UNL     1      46.433   6.888  11.359  0.00  0.00    +0.000 F 
ENDBRANCH  16  23
ENDBRANCH  14  21
ENDBRANCH   1  14
TORSDOF 5
ENDMDL
