MODEL 1
REMARK VINA RESULT:    -8.614      0.000      0.000
REMARK INTER + INTRA:         -13.821
REMARK INTER:                 -12.643
REMARK INTRA:                  -1.178
REMARK UNBOUND:                -1.178
REMARK  Name = 
REMARK  9 active torsions:
REMARK  status: ('A' for Active; 'I' for Inactive)
REMARK    1  A    between atoms: C_1  and  C_2
REMARK    2  A    between atoms: C_2  and  C_3
REMARK    3  A    between atoms: C_3  and  N_4
REMARK    4  A    between atoms: C_3  and  C_12
REMARK    5  A    between atoms: N_4  and  C_5
REMARK    6  A    between atoms: C_5  and  C_6
REMARK    7  A    between atoms: C_15  and  C_16
REMARK    8  A    between atoms: C_16  and  N_17
REMARK    9  A    between atoms: C_18  and  C_20
REMARK                            x       y       z     vdW  Elec       q    Type
REMARK                         _______ _______ _______ _____ _____    ______ ____
ROOT
ATOM      1  C   UNL     1      45.481   4.570  12.267  0.00  0.00    +0.000 A 
ATOM      2  C   UNL     1      45.954   5.704  11.584  0.00  0.00    +0.000 A 
ATOM      3  C   UNL     1      46.938   6.526  12.145  0.00  0.00    +0.000 A 
ATOM      4  C   UNL     1      47.505   6.207  13.384  0.00  0.00    +0.000 A 
ATOM      5  C   UNL     1      47.049   5.074  14.063  0.00  0.00    +0.000 A 
ATOM      6  C   UNL     1      46.045   4.275  13.519  0.00  0.00    +0.000 A 
ENDROOT
BRANCH   1   7
ATOM      7  C   UNL     1      44.334   3.743  11.680  0.00  0.00    +0.000 C 
BRANCH   7   9
ATOM      8  C   UNL     1      42.392   5.475  11.768  0.00  0.00    +0.000 C 
ATOM      9  C   UNL     1      43.334   4.646  10.906  0.00  0.00    +0.000 C 
ENDBRANCH   7   9
BRANCH   7  10
ATOM     10  N   UNL     1      44.819   2.668  10.796  0.00  0.00    +0.000 NA
ATOM     11  H   UNL     1      44.465   1.778  11.136  0.00  0.00    +0.000 HD
BRANCH  10  12
ATOM     12  C   UNL     1      44.372   2.816   9.399  0.00  0.00    +0.000 C 
BRANCH  12  13
ATOM     13  C   UNL     1      45.479   2.511   8.407  0.00  0.00    +0.000 A 
ATOM     14  C   UNL     1      45.947   3.505   7.551  0.00  0.00    +0.000 A 
ATOM     15  C   UNL     1      46.984   3.203   6.673  0.00  0.00    +0.000 A 
ATOM     16  C   UNL     1      47.528   1.925   6.673  0.00  0.00    +0.000 A 
ATOM     17  C   UNL     1      47.000   0.991   7.548  0.00  0.00    +0.000 A 
ATOM     18  N   UNL     1      45.993   1.253   8.408  0.00  0.00    +0.000 NA
ENDBRANCH  12  13
ENDBRANCH  10  12
ENDBRANCH   7  10
ENDBRANCH   1   7
BRANCH   4  19
ATOM     19  C   UNL     1      48.552   7.081  14.018  0.00  0.00    +0.000 C 
BRANCH  19  20
ATOM     20  N   UNL     1      48.378   7.158  15.451  0.00  0.00    +0.000 N 
ATOM     21  C   UNL     1      49.314   6.693  16.335  0.00  0.00    +0.000 C 
ATOM     22  O   UNL     1      50.371   6.183  15.967  0.00  0.00    +0.000 OA
ATOM     23  H   UNL     1      47.440   7.371  15.777  0.00  0.00    +0.000 HD
BRANCH  21  24
ATOM     24  C   UNL     1      49.023   6.899  17.761  0.00  0.00    +0.000 A 
ATOM     25  C   UNL     1      48.898   8.193  18.249  0.00  0.00    +0.000 A 
ATOM     26  S   UNL     1      48.503   8.267  19.905  0.00  0.00    +0.000 S 
ATOM     27  C   UNL     1      48.535   6.572  20.044  0.00  0.00    +0.000 A 
ATOM     28  N   UNL     1      48.304   5.966  21.240  0.00  0.00    +0.000 NA
ATOM     29  C   UNL     1      48.405   4.680  21.213  0.00  0.00    +0.000 A 
ATOM     30  N   UNL     1      48.698   3.940  20.097  0.00  0.00    +0.000 N 
ATOM     31  C   UNL     1      48.864   4.503  18.853  0.00  0.00    +0.000 A 
ATOM     32  O   UNL     1      49.002   3.807  17.854  0.00  0.00    +0.000 OA
ATOM     33  C   UNL     1      48.815   5.955  18.837  0.00  0.00    +0.000 A 
ATOM     34  H   UNL     1      48.734   2.931  20.138  0.00  0.00    +0.000 HD
ENDBRANCH  21  24
ENDBRANCH  19  20
ENDBRANCH   4  19
TORSDOF 8
ENDMDL
MODEL 2
REMARK VINA RESULT:    -8.103      1.437      2.133
REMARK INTER + INTRA:         -13.071
REMARK INTER:                 -11.832
REMARK INTRA:                  -1.238
REMARK UNBOUND:                -1.178
REMARK  Name = 
REMARK  9 active torsions:
REMARK  status: ('A' for Active; 'I' for Inactive)
REMARK    1  A    between atoms: C_1  and  C_2
REMARK    2  A    between atoms: C_2  and  C_3
REMARK    3  A    between atoms: C_3  and  N_4
REMARK    4  A    between atoms: C_3  and  C_12
REMARK    5  A    between atoms: N_4  and  C_5
REMARK    6  A    between atoms: C_5  and  C_6
REMARK    7  A    between atoms: C_15  and  C_16
REMARK    8  A    between atoms: C_16  and  N_17
REMARK    9  A    between atoms: C_18  and  C_20
REMARK                            x       y       z     vdW  Elec       q    Type
REMARK                         _______ _______ _______ _____ _____    ______ ____
ROOT
ATOM      1  C   UNL     1      45.462   4.480  12.368  0.00  0.00    +0.000 A 
ATOM      2  C   UNL     1      45.975   5.683  11.851  0.00  0.00    +0.000 A 
ATOM      3  C   UNL     1      46.931   6.421  12.558  0.00  0.00    +0.000 A 
ATOM      4  C   UNL     1      47.429   5.952  13.778  0.00  0.00    +0.000 A 
ATOM      5  C   UNL     1      46.932   4.751  14.292  0.00  0.00    +0.000 A 
ATOM      6  C   UNL     1      45.956   4.033  13.604  0.00  0.00    +0.000 A 
ENDROOT
BRANCH   1   7
ATOM      7  C   UNL     1      44.345   3.741  11.626  0.00  0.00    +0.000 C 
BRANCH   7   9
ATOM      8  C   UNL     1      42.448   5.522  11.563  0.00  0.00    +0.000 C 
ATOM      9  C   UNL     1      43.486   4.724  10.786  0.00  0.00    +0.000 C 
ENDBRANCH   7   9
BRANCH   7  10
ATOM     10  N   UNL     1      44.868   2.671  10.757  0.00  0.00    +0.000 NA
ATOM     11  H   UNL     1      44.577   1.772  11.131  0.00  0.00    +0.000 HD
BRANCH  10  12
ATOM     12  C   UNL     1      44.374   2.753   9.370  0.00  0.00    +0.000 C 
BRANCH  12  13
ATOM     13  C   UNL     1      45.497   2.650   8.354  0.00  0.00    +0.000 A 
ATOM     14  C   UNL     1      46.196   1.456   8.200  0.00  0.00    +0.000 A 
ATOM     15  C   UNL     1      47.200   1.385   7.239  0.00  0.00    +0.000 A 
ATOM     16  C   UNL     1      47.479   2.499   6.459  0.00  0.00    +0.000 A 
ATOM     17  C   UNL     1      46.744   3.651   6.681  0.00  0.00    +0.000 A 
ATOM     18  N   UNL     1      45.767   3.752   7.607  0.00  0.00    +0.000 NA
ENDBRANCH  12  13
ENDBRANCH  10  12
ENDBRANCH   7  10
ENDBRANCH   1   7
BRANCH   4  19
ATOM     19  C   UNL     1      48.443   6.734  14.566  0.00  0.00    +0.000 C 
BRANCH  19  20
ATOM     20  N   UNL     1      48.249   6.566  15.989  0.00  0.00    +0.000 N 
ATOM     21  C   UNL     1      49.234   6.100  16.820  0.00  0.00    +0.000 C 
ATOM     22  O   UNL     1      50.353   5.800  16.409  0.00  0.00    +0.000 OA
ATOM     23  H   UNL     1      47.289   6.598  16.317  0.00  0.00    +0.000 HD
BRANCH  21  24
ATOM     24  C   UNL     1      48.906   6.044  18.251  0.00  0.00    +0.000 A 
ATOM     25  C   UNL     1      49.163   4.878  18.961  0.00  0.00    +0.000 A 
ATOM     26  S   UNL     1      48.783   4.986  20.619  0.00  0.00    +0.000 S 
ATOM     27  C   UNL     1      48.212   6.578  20.439  0.00  0.00    +0.000 A 
ATOM     28  N   UNL     1      47.704   7.261  21.501  0.00  0.00    +0.000 NA
ATOM     29  C   UNL     1      47.265   8.440  21.215  0.00  0.00    +0.000 A 
ATOM     30  N   UNL     1      47.302   9.009  19.968  0.00  0.00    +0.000 N 
ATOM     31  C   UNL     1      47.874   8.387  18.883  0.00  0.00    +0.000 A 
ATOM     32  O   UNL     1      48.004   8.969  17.813  0.00  0.00    +0.000 OA
ATOM     33  C   UNL     1      48.335   7.034  19.138  0.00  0.00    +0.000 A 
ATOM     34  H   UNL     1      46.966   9.950  19.817  0.00  0.00    +0.000 HD
ENDBRANCH  21  24
ENDBRANCH  19  20
ENDBRANCH   4  19
TORSDOF 8
ENDMDL
MODEL 3
REMARK VINA RESULT:    -8.074      2.028      2.401
REMARK INTER + INTRA:         -13.028
REMARK INTER:                 -11.552
REMARK INTRA:                  -1.476
REMARK UNBOUND:                -1.178
REMARK  Name = 
REMARK  9 active torsions:
REMARK  status: ('A' for Active; 'I' for Inactive)
REMARK    1  A    between atoms: C_1  and  C_2
REMARK    2  A    between atoms: C_2  and  C_3
REMARK    3  A    between atoms: C_3  and  N_4
REMARK    4  A    between atoms: C_3  and  C_12
REMARK    5  A    between atoms: N_4  and  C_5
REMARK    6  A    between atoms: C_5  and  C_6
REMARK    7  A    between atoms: C_15  and  C_16
REMARK    8  A    between atoms: C_16  and  N_17
REMARK    9  A    between atoms: C_18  and  C_20
REMARK                            x       y       z     vdW  Elec       q    Type
REMARK                         _______ _______ _______ _____ _____    ______ ____
ROOT
ATOM      1  C   UNL     1      45.598   4.757  12.199  0.00  0.00    +0.000 A 
ATOM      2  C   UNL     1      46.010   5.756  11.299  0.00  0.00    +0.000 A 
ATOM      3  C   UNL     1      46.987   6.691  11.658  0.00  0.00    +0.000 A 
ATOM      4  C   UNL     1      47.608   6.623  12.910  0.00  0.00    +0.000 A 
ATOM      5  C   UNL     1      47.213   5.625  13.804  0.00  0.00    +0.000 A 
ATOM      6  C   UNL     1      46.216   4.714  13.459  0.00  0.00    +0.000 A 
ENDROOT
BRANCH   1   7
ATOM      7  C   UNL     1      44.458   3.808  11.822  0.00  0.00    +0.000 C 
BRANCH   7   9
ATOM      8  C   UNL     1      42.432   5.442  11.845  0.00  0.00    +0.000 C 
ATOM      9  C   UNL     1      43.353   4.551  11.023  0.00  0.00    +0.000 C 
ENDBRANCH   7   9
BRANCH   7  10
ATOM     10  N   UNL     1      44.933   2.646  11.049  0.00  0.00    +0.000 NA
ATOM     11  H   UNL     1      44.677   1.795  11.543  0.00  0.00    +0.000 HD
BRANCH  10  12
ATOM     12  C   UNL     1      44.349   2.566   9.698  0.00  0.00    +0.000 C 
BRANCH  12  13
ATOM     13  C   UNL     1      45.412   2.477   8.617  0.00  0.00    +0.000 A 
ATOM     14  C   UNL     1      45.745   3.602   7.868  0.00  0.00    +0.000 A 
ATOM     15  C   UNL     1      46.744   3.496   6.905  0.00  0.00    +0.000 A 
ATOM     16  C   UNL     1      47.385   2.278   6.717  0.00  0.00    +0.000 A 
ATOM     17  C   UNL     1      46.988   1.205   7.497  0.00  0.00    +0.000 A 
ATOM     18  N   UNL     1      46.021   1.276   8.436  0.00  0.00    +0.000 NA
ENDBRANCH  12  13
ENDBRANCH  10  12
ENDBRANCH   7  10
ENDBRANCH   1   7
BRANCH   4  19
ATOM     19  C   UNL     1      48.648   7.625  13.328  0.00  0.00    +0.000 C 
BRANCH  19  20
ATOM     20  N   UNL     1      49.611   7.039  14.233  0.00  0.00    +0.000 N 
ATOM     21  C   UNL     1      50.622   7.764  14.807  0.00  0.00    +0.000 C 
ATOM     22  O   UNL     1      50.772   8.965  14.595  0.00  0.00    +0.000 OA
ATOM     23  H   UNL     1      49.643   6.025  14.257  0.00  0.00    +0.000 HD
BRANCH  21  24
ATOM     24  C   UNL     1      51.483   7.042  15.755  0.00  0.00    +0.000 A 
ATOM     25  C   UNL     1      52.862   7.182  15.662  0.00  0.00    +0.000 A 
ATOM     26  S   UNL     1      53.721   6.332  16.863  0.00  0.00    +0.000 S 
ATOM     27  C   UNL     1      52.284   5.702  17.521  0.00  0.00    +0.000 A 
ATOM     28  N   UNL     1      52.318   4.852  18.583  0.00  0.00    +0.000 NA
ATOM     29  C   UNL     1      51.161   4.415  18.951  0.00  0.00    +0.000 A 
ATOM     30  N   UNL     1      49.970   4.762  18.367  0.00  0.00    +0.000 N 
ATOM     31  C   UNL     1      49.882   5.674  17.342  0.00  0.00    +0.000 A 
ATOM     32  O   UNL     1      48.795   6.057  16.924  0.00  0.00    +0.000 OA
ATOM     33  C   UNL     1      51.161   6.157  16.852  0.00  0.00    +0.000 A 
ATOM     34  H   UNL     1      49.094   4.404  18.723  0.00  0.00    +0.000 HD
ENDBRANCH  21  24
ENDBRANCH  19  20
ENDBRANCH   4  19
TORSDOF 8
ENDMDL
MODEL 4
REMARK VINA RESULT:    -7.560      1.474      2.029
REMARK INTER + INTRA:         -12.275
REMARK INTER:                 -11.344
REMARK INTRA:                  -0.931
REMARK UNBOUND:                -1.178
REMARK  Name = 
REMARK  9 active torsions:
REMARK  status: ('A' for Active; 'I' for Inactive)
REMARK    1  A    between atoms: C_1  and  C_2
REMARK    2  A    between atoms: C_2  and  C_3
REMARK    3  A    between atoms: C_3  and  N_4
REMARK    4  A    between atoms: C_3  and  C_12
REMARK    5  A    between atoms: N_4  and  C_5
REMARK    6  A    between atoms: C_5  and  C_6
REMARK    7  A    between atoms: C_15  and  C_16
REMARK    8  A    between atoms: C_16  and  N_17
REMARK    9  A    between atoms: C_18  and  C_20
REMARK                            x       y       z     vdW  Elec       q    Type
REMARK                         _______ _______ _______ _____ _____    ______ ____
ROOT
ATOM      1  C   UNL     1      45.443   4.571  12.595  0.00  0.00    +0.000 A 
ATOM      2  C   UNL     1      46.338   3.901  13.449  0.00  0.00    +0.000 A 
ATOM      3  C   UNL     1      47.397   4.583  14.060  0.00  0.00    +0.000 A 
ATOM      4  C   UNL     1      47.560   5.959  13.867  0.00  0.00    +0.000 A 
ATOM      5  C   UNL     1      46.667   6.632  13.029  0.00  0.00    +0.000 A 
ATOM      6  C   UNL     1      45.633   5.947  12.395  0.00  0.00    +0.000 A 
ENDROOT
BRANCH   1   7
ATOM      7  C   UNL     1      44.354   3.786  11.859  0.00  0.00    +0.000 C 
BRANCH   7   9
ATOM      8  C   UNL     1      42.311   5.395  11.750  0.00  0.00    +0.000 C 
ATOM      9  C   UNL     1      43.463   4.732  11.008  0.00  0.00    +0.000 C 
ENDBRANCH   7   9
BRANCH   7  10
ATOM     10  N   UNL     1      44.914   2.727  11.000  0.00  0.00    +0.000 NA
ATOM     11  H   UNL     1      44.751   1.826  11.441  0.00  0.00    +0.000 HD
BRANCH  10  12
ATOM     12  C   UNL     1      44.305   2.680   9.659  0.00  0.00    +0.000 C 
BRANCH  12  13
ATOM     13  C   UNL     1      45.339   2.478   8.566  0.00  0.00    +0.000 A 
ATOM     14  C   UNL     1      45.623   3.507   7.672  0.00  0.00    +0.000 A 
ATOM     15  C   UNL     1      46.598   3.301   6.699  0.00  0.00    +0.000 A 
ATOM     16  C   UNL     1      47.262   2.083   6.645  0.00  0.00    +0.000 A 
ATOM     17  C   UNL     1      46.913   1.108   7.564  0.00  0.00    +0.000 A 
ATOM     18  N   UNL     1      45.971   1.276   8.516  0.00  0.00    +0.000 NA
ENDBRANCH  12  13
ENDBRANCH  10  12
ENDBRANCH   7  10
ENDBRANCH   1   7
BRANCH   4  19
ATOM     19  C   UNL     1      48.699   6.711  14.497  0.00  0.00    +0.000 C 
BRANCH  19  20
ATOM     20  N   UNL     1      48.240   7.551  15.581  0.00  0.00    +0.000 N 
ATOM     21  C   UNL     1      48.877   7.608  16.793  0.00  0.00    +0.000 C 
ATOM     22  O   UNL     1      49.887   6.951  17.036  0.00  0.00    +0.000 OA
ATOM     23  H   UNL     1      47.304   7.932  15.487  0.00  0.00    +0.000 HD
BRANCH  21  24
ATOM     24  C   UNL     1      48.328   8.555  17.773  0.00  0.00    +0.000 A 
ATOM     25  C   UNL     1      48.194   9.893  17.424  0.00  0.00    +0.000 A 
ATOM     26  S   UNL     1      47.491  10.854  18.643  0.00  0.00    +0.000 S 
ATOM     27  C   UNL     1      47.386   9.528  19.703  0.00  0.00    +0.000 A 
ATOM     28  N   UNL     1      46.889   9.678  20.961  0.00  0.00    +0.000 NA
ATOM     29  C   UNL     1      46.910   8.602  21.673  0.00  0.00    +0.000 A 
ATOM     30  N   UNL     1      47.366   7.384  21.239  0.00  0.00    +0.000 N 
ATOM     31  C   UNL     1      47.806   7.168  19.955  0.00  0.00    +0.000 A 
ATOM     32  O   UNL     1      48.090   6.043  19.561  0.00  0.00    +0.000 OA
ATOM     33  C   UNL     1      47.855   8.360  19.126  0.00  0.00    +0.000 A 
ATOM     34  H   UNL     1      47.328   6.572  21.840  0.00  0.00    +0.000 HD
ENDBRANCH  21  24
ENDBRANCH  19  20
ENDBRANCH   4  19
TORSDOF 8
ENDMDL
MODEL 5
REMARK VINA RESULT:    -7.400      4.108      6.366
REMARK INTER + INTRA:         -12.039
REMARK INTER:                 -10.718
REMARK INTRA:                  -1.321
REMARK UNBOUND:                -1.178
REMARK  Name = 
REMARK  9 active torsions:
REMARK  status: ('A' for Active; 'I' for Inactive)
REMARK    1  A    between atoms: C_1  and  C_2
REMARK    2  A    between atoms: C_2  and  C_3
REMARK    3  A    between atoms: C_3  and  N_4
REMARK    4  A    between atoms: C_3  and  C_12
REMARK    5  A    between atoms: N_4  and  C_5
REMARK    6  A    between atoms: C_5  and  C_6
REMARK    7  A    between atoms: C_15  and  C_16
REMARK    8  A    between atoms: C_16  and  N_17
REMARK    9  A    between atoms: C_18  and  C_20
REMARK                            x       y       z     vdW  Elec       q    Type
REMARK                         _______ _______ _______ _____ _____    ______ ____
ROOT
ATOM      1  C   UNL     1      45.594   4.690  12.284  0.00  0.00    +0.000 A 
ATOM      2  C   UNL     1      46.079   5.779  11.538  0.00  0.00    +0.000 A 
ATOM      3  C   UNL     1      47.103   6.594  12.035  0.00  0.00    +0.000 A 
ATOM      4  C   UNL     1      47.697   6.312  13.270  0.00  0.00    +0.000 A 
ATOM      5  C   UNL     1      47.228   5.224  14.010  0.00  0.00    +0.000 A 
ATOM      6  C   UNL     1      46.186   4.432  13.530  0.00  0.00    +0.000 A 
ENDROOT
BRANCH   1   7
ATOM      7  C   UNL     1      44.406   3.874  11.766  0.00  0.00    +0.000 C 
BRANCH   7   9
ATOM      8  C   UNL     1      42.388   5.517  11.765  0.00  0.00    +0.000 C 
ATOM      9  C   UNL     1      43.430   4.764  10.950  0.00  0.00    +0.000 C 
ENDBRANCH   7   9
BRANCH   7  10
ATOM     10  N   UNL     1      44.835   2.726  10.946  0.00  0.00    +0.000 NA
ATOM     11  H   UNL     1      44.496   1.870  11.376  0.00  0.00    +0.000 HD
BRANCH  10  12
ATOM     12  C   UNL     1      44.312   2.766   9.568  0.00  0.00    +0.000 C 
BRANCH  12  13
ATOM     13  C   UNL     1      45.417   2.680   8.532  0.00  0.00    +0.000 A 
ATOM     14  C   UNL     1      46.069   1.471   8.302  0.00  0.00    +0.000 A 
ATOM     15  C   UNL     1      47.058   1.417   7.324  0.00  0.00    +0.000 A 
ATOM     16  C   UNL     1      47.367   2.562   6.601  0.00  0.00    +0.000 A 
ATOM     17  C   UNL     1      46.679   3.726   6.897  0.00  0.00    +0.000 A 
ATOM     18  N   UNL     1      45.718   3.811   7.841  0.00  0.00    +0.000 NA
ENDBRANCH  12  13
ENDBRANCH  10  12
ENDBRANCH   7  10
ENDBRANCH   1   7
BRANCH   4  19
ATOM     19  C   UNL     1      48.786   7.180  13.835  0.00  0.00    +0.000 C 
BRANCH  19  20
ATOM     20  N   UNL     1      49.566   7.798  12.785  0.00  0.00    +0.000 N 
ATOM     21  C   UNL     1      50.811   8.325  13.002  0.00  0.00    +0.000 C 
ATOM     22  O   UNL     1      51.352   8.302  14.106  0.00  0.00    +0.000 OA
ATOM     23  H   UNL     1      49.067   8.022  11.930  0.00  0.00    +0.000 HD
BRANCH  21  24
ATOM     24  C   UNL     1      51.505   8.862  11.824  0.00  0.00    +0.000 A 
ATOM     25  C   UNL     1      52.714   8.301  11.432  0.00  0.00    +0.000 A 
ATOM     26  S   UNL     1      53.366   8.992  10.017  0.00  0.00    +0.000 S 
ATOM     27  C   UNL     1      52.083  10.103   9.904  0.00  0.00    +0.000 A 
ATOM     28  N   UNL     1      52.047  11.027   8.906  0.00  0.00    +0.000 NA
ATOM     29  C   UNL     1      51.044  11.837   8.966  0.00  0.00    +0.000 A 
ATOM     30  N   UNL     1      50.062  11.798   9.923  0.00  0.00    +0.000 N 
ATOM     31  C   UNL     1      50.017  10.837  10.904  0.00  0.00    +0.000 A 
ATOM     32  O   UNL     1      49.062  10.753  11.668  0.00  0.00    +0.000 OA
ATOM     33  C   UNL     1      51.153   9.932  10.915  0.00  0.00    +0.000 A 
ATOM     34  H   UNL     1      49.286  12.445   9.896  0.00  0.00    +0.000 HD
ENDBRANCH  21  24
ENDBRANCH  19  20
ENDBRANCH   4  19
TORSDOF 8
ENDMDL
MODEL 6
REMARK VINA RESULT:    -7.238      3.512      8.587
REMARK INTER + INTRA:         -11.802
REMARK INTER:                 -10.044
REMARK INTRA:                  -1.757
REMARK UNBOUND:                -1.178
REMARK  Name = 
REMARK  9 active torsions:
REMARK  status: ('A' for Active; 'I' for Inactive)
REMARK    1  A    between atoms: C_1  and  C_2
REMARK    2  A    between atoms: C_2  and  C_3
REMARK    3  A    between atoms: C_3  and  N_4
REMARK    4  A    between atoms: C_3  and  C_12
REMARK    5  A    between atoms: N_4  and  C_5
REMARK    6  A    between atoms: C_5  and  C_6
REMARK    7  A    between atoms: C_15  and  C_16
REMARK    8  A    between atoms: C_16  and  N_17
REMARK    9  A    between atoms: C_18  and  C_20
REMARK                            x       y       z     vdW  Elec       q    Type
REMARK                         _______ _______ _______ _____ _____    ______ ____
ROOT
ATOM      1  C   UNL     1      48.638   7.941  16.362  0.00  0.00    +0.000 A 
ATOM      2  C   UNL     1      48.968   6.801  15.607  0.00  0.00    +0.000 A 
ATOM      3  C   UNL     1      48.896   6.817  14.210  0.00  0.00    +0.000 A 
ATOM      4  C   UNL     1      48.535   7.987  13.532  0.00  0.00    +0.000 A 
ATOM      5  C   UNL     1      48.218   9.126  14.276  0.00  0.00    +0.000 A 
ATOM      6  C   UNL     1      48.258   9.101  15.668  0.00  0.00    +0.000 A 
ENDROOT
BRANCH   1   7
ATOM      7  C   UNL     1      48.627   7.871  17.892  0.00  0.00    +0.000 C 
BRANCH   7   9
ATOM      8  C   UNL     1      47.518   9.883  19.115  0.00  0.00    +0.000 C 
ATOM      9  C   UNL     1      48.783   9.284  18.517  0.00  0.00    +0.000 C 
ENDBRANCH   7   9
BRANCH   7  10
ATOM     10  N   UNL     1      47.405   7.231  18.411  0.00  0.00    +0.000 NA
ATOM     11  H   UNL     1      46.821   6.953  17.626  0.00  0.00    +0.000 HD
BRANCH  10  12
ATOM     12  C   UNL     1      47.674   6.022  19.211  0.00  0.00    +0.000 C 
BRANCH  12  13
ATOM     13  C   UNL     1      48.026   4.827  18.343  0.00  0.00    +0.000 A 
ATOM     14  C   UNL     1      49.310   4.290  18.377  0.00  0.00    +0.000 A 
ATOM     15  C   UNL     1      49.593   3.175  17.593  0.00  0.00    +0.000 A 
ATOM     16  C   UNL     1      48.593   2.626  16.801  0.00  0.00    +0.000 A 
ATOM     17  C   UNL     1      47.345   3.225  16.817  0.00  0.00    +0.000 A 
ATOM     18  N   UNL     1      47.041   4.308  17.564  0.00  0.00    +0.000 NA
ENDBRANCH  12  13
ENDBRANCH  10  12
ENDBRANCH   7  10
ENDBRANCH   1   7
BRANCH   4  19
ATOM     19  C   UNL     1      48.433   8.027  12.032  0.00  0.00    +0.000 C 
BRANCH  19  20
ATOM     20  N   UNL     1      47.664   6.911  11.526  0.00  0.00    +0.000 N 
ATOM     21  C   UNL     1      46.298   6.936  11.434  0.00  0.00    +0.000 C 
ATOM     22  O   UNL     1      45.634   7.914  11.771  0.00  0.00    +0.000 OA
ATOM     23  H   UNL     1      48.158   6.028  11.445  0.00  0.00    +0.000 HD
BRANCH  21  24
ATOM     24  C   UNL     1      45.664   5.751  10.840  0.00  0.00    +0.000 A 
ATOM     25  C   UNL     1      45.812   5.510   9.480  0.00  0.00    +0.000 A 
ATOM     26  S   UNL     1      45.069   4.070   8.953  0.00  0.00    +0.000 S 
ATOM     27  C   UNL     1      44.477   3.741  10.513  0.00  0.00    +0.000 A 
ATOM     28  N   UNL     1      43.713   2.639  10.751  0.00  0.00    +0.000 NA
ATOM     29  C   UNL     1      43.293   2.537  11.967  0.00  0.00    +0.000 A 
ATOM     30  N   UNL     1      43.579   3.423  12.973  0.00  0.00    +0.000 N 
ATOM     31  C   UNL     1      44.406   4.507  12.797  0.00  0.00    +0.000 A 
ATOM     32  O   UNL     1      44.742   5.210  13.743  0.00  0.00    +0.000 OA
ATOM     33  C   UNL     1      44.864   4.701  11.432  0.00  0.00    +0.000 A 
ATOM     34  H   UNL     1      43.240   3.268  13.912  0.00  0.00    +0.000 HD
ENDBRANCH  21  24
ENDBRANCH  19  20
ENDBRANCH   4  19
TORSDOF 8
ENDMDL
MODEL 7
REMARK VINA RESULT:    -7.169      2.228      3.594
REMARK INTER + INTRA:         -11.701
REMARK INTER:                 -10.588
REMARK INTRA:                  -1.113
REMARK UNBOUND:                -1.178
REMARK  Name = 
REMARK  9 active torsions:
REMARK  status: ('A' for Active; 'I' for Inactive)
REMARK    1  A    between atoms: C_1  and  C_2
REMARK    2  A    between atoms: C_2  and  C_3
REMARK    3  A    between atoms: C_3  and  N_4
REMARK    4  A    between atoms: C_3  and  C_12
REMARK    5  A    between atoms: N_4  and  C_5
REMARK    6  A    between atoms: C_5  and  C_6
REMARK    7  A    between atoms: C_15  and  C_16
REMARK    8  A    between atoms: C_16  and  N_17
REMARK    9  A    between atoms: C_18  and  C_20
REMARK                            x       y       z     vdW  Elec       q    Type
REMARK                         _______ _______ _______ _____ _____    ______ ____
ROOT
ATOM      1  C   UNL     1      45.411   4.490  12.685  0.00  0.00    +0.000 A 
ATOM      2  C   UNL     1      46.297   3.711  13.450  0.00  0.00    +0.000 A 
ATOM      3  C   UNL     1      47.358   4.301  14.147  0.00  0.00    +0.000 A 
ATOM      4  C   UNL     1      47.530   5.689  14.131  0.00  0.00    +0.000 A 
ATOM      5  C   UNL     1      46.645   6.470  13.384  0.00  0.00    +0.000 A 
ATOM      6  C   UNL     1      45.610   5.879  12.663  0.00  0.00    +0.000 A 
ENDROOT
BRANCH   1   7
ATOM      7  C   UNL     1      44.320   3.813  11.850  0.00  0.00    +0.000 C 
BRANCH   7   9
ATOM      8  C   UNL     1      42.297   5.446  11.710  0.00  0.00    +0.000 C 
ATOM      9  C   UNL     1      43.521   4.857  11.023  0.00  0.00    +0.000 C 
ENDBRANCH   7   9
BRANCH   7  10
ATOM     10  N   UNL     1      44.866   2.780  10.952  0.00  0.00    +0.000 NA
ATOM     11  H   UNL     1      44.634   1.864  11.325  0.00  0.00    +0.000 HD
BRANCH  10  12
ATOM     12  C   UNL     1      44.323   2.851   9.583  0.00  0.00    +0.000 C 
BRANCH  12  13
ATOM     13  C   UNL     1      45.409   2.741   8.528  0.00  0.00    +0.000 A 
ATOM     14  C   UNL     1      46.077   1.535   8.333  0.00  0.00    +0.000 A 
ATOM     15  C   UNL     1      47.047   1.458   7.338  0.00  0.00    +0.000 A 
ATOM     16  C   UNL     1      47.323   2.577   6.565  0.00  0.00    +0.000 A 
ATOM     17  C   UNL     1      46.621   3.741   6.828  0.00  0.00    +0.000 A 
ATOM     18  N   UNL     1      45.678   3.848   7.788  0.00  0.00    +0.000 NA
ENDBRANCH  12  13
ENDBRANCH  10  12
ENDBRANCH   7  10
ENDBRANCH   1   7
BRANCH   4  19
ATOM     19  C   UNL     1      48.671   6.347  14.857  0.00  0.00    +0.000 C 
BRANCH  19  20
ATOM     20  N   UNL     1      48.197   7.347  15.788  0.00  0.00    +0.000 N 
ATOM     21  C   UNL     1      48.747   7.521  17.030  0.00  0.00    +0.000 C 
ATOM     22  O   UNL     1      49.688   6.840  17.434  0.00  0.00    +0.000 OA
ATOM     23  H   UNL     1      47.300   7.770  15.572  0.00  0.00    +0.000 HD
BRANCH  21  24
ATOM     24  C   UNL     1      48.199   8.619  17.837  0.00  0.00    +0.000 A 
ATOM     25  C   UNL     1      47.580   8.331  19.047  0.00  0.00    +0.000 A 
ATOM     26  S   UNL     1      47.048   9.711  19.893  0.00  0.00    +0.000 S 
ATOM     27  C   UNL     1      47.579  10.744  18.650  0.00  0.00    +0.000 A 
ATOM     28  N   UNL     1      47.394  12.089  18.735  0.00  0.00    +0.000 NA
ATOM     29  C   UNL     1      47.802  12.748  17.703  0.00  0.00    +0.000 A 
ATOM     30  N   UNL     1      48.393  12.189  16.600  0.00  0.00    +0.000 N 
ATOM     31  C   UNL     1      48.668  10.846  16.503  0.00  0.00    +0.000 A 
ATOM     32  O   UNL     1      49.308  10.394  15.560  0.00  0.00    +0.000 OA
ATOM     33  C   UNL     1      48.180  10.049  17.615  0.00  0.00    +0.000 A 
ATOM     34  H   UNL     1      48.716  12.767  15.836  0.00  0.00    +0.000 HD
ENDBRANCH  21  24
ENDBRANCH  19  20
ENDBRANCH   4  19
TORSDOF 8
ENDMDL
MODEL 8
REMARK VINA RESULT:    -7.017      5.090      9.820
REMARK INTER + INTRA:         -11.477
REMARK INTER:                 -10.443
REMARK INTRA:                  -1.034
REMARK UNBOUND:                -1.178
REMARK  Name = 
REMARK  9 active torsions:
REMARK  status: ('A' for Active; 'I' for Inactive)
REMARK    1  A    between atoms: C_1  and  C_2
REMARK    2  A    between atoms: C_2  and  C_3
REMARK    3  A    between atoms: C_3  and  N_4
REMARK    4  A    between atoms: C_3  and  C_12
REMARK    5  A    between atoms: N_4  and  C_5
REMARK    6  A    between atoms: C_5  and  C_6
REMARK    7  A    between atoms: C_15  and  C_16
REMARK    8  A    between atoms: C_16  and  N_17
REMARK    9  A    between atoms: C_18  and  C_20
REMARK                            x       y       z     vdW  Elec       q    Type
REMARK                         _______ _______ _______ _____ _____    ______ ____
ROOT
ATOM      1  C   UNL     1      51.522   3.167  17.742  0.00  0.00    +0.000 A 
ATOM      2  C   UNL     1      50.757   2.084  17.273  0.00  0.00    +0.000 A 
ATOM      3  C   UNL     1      49.388   2.225  17.019  0.00  0.00    +0.000 A 
ATOM      4  C   UNL     1      48.760   3.464  17.187  0.00  0.00    +0.000 A 
ATOM      5  C   UNL     1      49.517   4.547  17.641  0.00  0.00    +0.000 A 
ATOM      6  C   UNL     1      50.873   4.398  17.925  0.00  0.00    +0.000 A 
ENDROOT
BRANCH   1   7
ATOM      7  C   UNL     1      52.995   2.964  18.108  0.00  0.00    +0.000 C 
BRANCH   7   9
ATOM      8  C   UNL     1      53.373   3.753  20.560  0.00  0.00    +0.000 C 
ATOM      9  C   UNL     1      53.488   4.074  19.076  0.00  0.00    +0.000 C 
ENDBRANCH   7   9
BRANCH   7  10
ATOM     10  N   UNL     1      53.243   1.639  18.704  0.00  0.00    +0.000 NA
ATOM     11  H   UNL     1      52.537   0.989  18.367  0.00  0.00    +0.000 HD
BRANCH  10  12
ATOM     12  C   UNL     1      54.561   1.079  18.355  0.00  0.00    +0.000 C 
BRANCH  12  13
ATOM     13  C   UNL     1      54.528  -0.434  18.233  0.00  0.00    +0.000 A 
ATOM     14  C   UNL     1      55.108  -1.061  17.134  0.00  0.00    +0.000 A 
ATOM     15  C   UNL     1      55.088  -2.451  17.066  0.00  0.00    +0.000 A 
ATOM     16  C   UNL     1      54.496  -3.176  18.092  0.00  0.00    +0.000 A 
ATOM     17  C   UNL     1      53.934  -2.476  19.145  0.00  0.00    +0.000 A 
ATOM     18  N   UNL     1      53.935  -1.130  19.238  0.00  0.00    +0.000 NA
ENDBRANCH  12  13
ENDBRANCH  10  12
ENDBRANCH   7  10
ENDBRANCH   1   7
BRANCH   4  19
ATOM     19  C   UNL     1      47.288   3.639  16.939  0.00  0.00    +0.000 C 
BRANCH  19  20
ATOM     20  N   UNL     1      47.040   4.615  15.901  0.00  0.00    +0.000 N 
ATOM     21  C   UNL     1      47.055   4.297  14.568  0.00  0.00    +0.000 C 
ATOM     22  O   UNL     1      47.274   3.156  14.167  0.00  0.00    +0.000 OA
ATOM     23  H   UNL     1      47.070   5.589  16.186  0.00  0.00    +0.000 HD
BRANCH  21  24
ATOM     24  C   UNL     1      46.723   5.383  13.636  0.00  0.00    +0.000 A 
ATOM     25  C   UNL     1      47.693   6.323  13.315  0.00  0.00    +0.000 A 
ATOM     26  S   UNL     1      47.176   7.484  12.180  0.00  0.00    +0.000 S 
ATOM     27  C   UNL     1      45.618   6.804  12.114  0.00  0.00    +0.000 A 
ATOM     28  N   UNL     1      44.650   7.353  11.330  0.00  0.00    +0.000 NA
ATOM     29  C   UNL     1      43.504   6.765  11.411  0.00  0.00    +0.000 A 
ATOM     30  N   UNL     1      43.239   5.668  12.189  0.00  0.00    +0.000 N 
ATOM     31  C   UNL     1      44.204   5.035  12.937  0.00  0.00    +0.000 A 
ATOM     32  O   UNL     1      43.966   3.985  13.523  0.00  0.00    +0.000 OA
ATOM     33  C   UNL     1      45.501   5.689  12.925  0.00  0.00    +0.000 A 
ATOM     34  H   UNL     1      42.324   5.237  12.185  0.00  0.00    +0.000 HD
ENDBRANCH  21  24
ENDBRANCH  19  20
ENDBRANCH   4  19
TORSDOF 8
ENDMDL
MODEL 9
REMARK VINA RESULT:    -6.953      3.320      9.050
REMARK INTER + INTRA:         -11.383
REMARK INTER:                  -9.720
REMARK INTRA:                  -1.663
REMARK UNBOUND:                -1.178
REMARK  Name = 
REMARK  9 active torsions:
REMARK  status: ('A' for Active; 'I' for Inactive)
REMARK    1  A    between atoms: C_1  and  C_2
REMARK    2  A    between atoms: C_2  and  C_3
REMARK    3  A    between atoms: C_3  and  N_4
REMARK    4  A    between atoms: C_3  and  C_12
REMARK    5  A    between atoms: N_4  and  C_5
REMARK    6  A    between atoms: C_5  and  C_6
REMARK    7  A    between atoms: C_15  and  C_16
REMARK    8  A    between atoms: C_16  and  N_17
REMARK    9  A    between atoms: C_18  and  C_20
REMARK                            x       y       z     vdW  Elec       q    Type
REMARK                         _______ _______ _______ _____ _____    ______ ____
ROOT
ATOM      1  C   UNL     1      49.096   8.372  15.936  0.00  0.00    +0.000 A 
ATOM      2  C   UNL     1      49.765   7.423  15.143  0.00  0.00    +0.000 A 
ATOM      3  C   UNL     1      49.390   7.201  13.813  0.00  0.00    +0.000 A 
ATOM      4  C   UNL     1      48.365   7.956  13.231  0.00  0.00    +0.000 A 
ATOM      5  C   UNL     1      47.704   8.909  14.010  0.00  0.00    +0.000 A 
ATOM      6  C   UNL     1      48.056   9.106  15.344  0.00  0.00    +0.000 A 
ENDROOT
BRANCH   1   7
ATOM      7  C   UNL     1      49.456   8.526  17.416  0.00  0.00    +0.000 C 
BRANCH   7   9
ATOM      8  C   UNL     1      48.142  10.310  18.782  0.00  0.00    +0.000 C 
ATOM      9  C   UNL     1      48.204   8.881  18.263  0.00  0.00    +0.000 C 
ENDBRANCH   7   9
BRANCH   7  10
ATOM     10  N   UNL     1      50.098   7.316  17.961  0.00  0.00    +0.000 NA
ATOM     11  H   UNL     1      50.872   7.595  18.558  0.00  0.00    +0.000 HD
BRANCH  10  12
ATOM     12  C   UNL     1      49.188   6.490  18.776  0.00  0.00    +0.000 C 
BRANCH  12  13
ATOM     13  C   UNL     1      48.855   5.170  18.104  0.00  0.00    +0.000 A 
ATOM     14  C   UNL     1      49.837   4.196  17.947  0.00  0.00    +0.000 A 
ATOM     15  C   UNL     1      49.494   2.984  17.354  0.00  0.00    +0.000 A 
ATOM     16  C   UNL     1      48.186   2.775  16.937  0.00  0.00    +0.000 A 
ATOM     17  C   UNL     1      47.271   3.798  17.121  0.00  0.00    +0.000 A 
ATOM     18  N   UNL     1      47.574   4.984  17.689  0.00  0.00    +0.000 NA
ENDBRANCH  12  13
ENDBRANCH  10  12
ENDBRANCH   7  10
ENDBRANCH   1   7
BRANCH   4  19
ATOM     19  C   UNL     1      47.930   7.727  11.810  0.00  0.00    +0.000 C 
BRANCH  19  20
ATOM     20  N   UNL     1      47.136   6.525  11.688  0.00  0.00    +0.000 N 
ATOM     21  C   UNL     1      45.768   6.532  11.761  0.00  0.00    +0.000 C 
ATOM     22  O   UNL     1      45.124   7.565  11.929  0.00  0.00    +0.000 OA
ATOM     23  H   UNL     1      47.639   5.647  11.765  0.00  0.00    +0.000 HD
BRANCH  21  24
ATOM     24  C   UNL     1      45.099   5.240  11.556  0.00  0.00    +0.000 A 
ATOM     25  C   UNL     1      44.389   4.669  12.605  0.00  0.00    +0.000 A 
ATOM     26  S   UNL     1      43.622   3.203  12.196  0.00  0.00    +0.000 S 
ATOM     27  C   UNL     1      44.253   3.250  10.617  0.00  0.00    +0.000 A 
ATOM     28  N   UNL     1      43.994   2.249   9.733  0.00  0.00    +0.000 NA
ATOM     29  C   UNL     1      44.572   2.388   8.588  0.00  0.00    +0.000 A 
ATOM     30  N   UNL     1      45.371   3.446   8.237  0.00  0.00    +0.000 N 
ATOM     31  C   UNL     1      45.598   4.515   9.070  0.00  0.00    +0.000 A 
ATOM     32  O   UNL     1      46.214   5.502   8.684  0.00  0.00    +0.000 OA
ATOM     33  C   UNL     1      45.015   4.383  10.393  0.00  0.00    +0.000 A 
ATOM     34  H   UNL     1      45.772   3.508   7.311  0.00  0.00    +0.000 HD
ENDBRANCH  21  24
ENDBRANCH  19  20
ENDBRANCH   4  19
TORSDOF 8
ENDMDL
