MODEL 1
REMARK VINA RESULT:    -7.550      0.000      0.000
REMARK INTER + INTRA:         -13.245
REMARK INTER:                 -11.522
REMARK INTRA:                  -1.722
REMARK UNBOUND:                -1.722
REMARK  Name = 
REMARK  11 active torsions:
REMARK  status: ('A' for Active; 'I' for Inactive)
REMARK    1  A    between atoms: C_1  and  C_2
REMARK    2  A    between atoms: C_2  and  C_3
REMARK    3  A    between atoms: C_2  and  N_4
REMARK    4  A    between atoms: C_2  and  C_19
REMARK    5  A    between atoms: N_4  and  C_5
REMARK    6  A    between atoms: C_8  and  C_9
REMARK    7  A    between atoms: C_9  and  C_10
REMARK    8  A    between atoms: C_10  and  N_11
REMARK    9  A    between atoms: C_22  and  C_23
REMARK   10  A    between atoms: N_25  and  C_26
REMARK   11  A    between atoms: C_26  and  C_27
REMARK                            x       y       z     vdW  Elec       q    Type
REMARK                         _______ _______ _______ _____ _____    ______ ____
ROOT
ATOM      1  C   UNL     1      47.607  11.717  12.209  0.00  0.00    +0.000 C 
ATOM      2  C   UNL     1      48.479  10.609  12.838  0.00  0.00    +0.000 C 
ATOM      3  C   UNL     1      49.924  10.589  12.288  0.00  0.00    +0.000 C 
ENDROOT
BRANCH   2   4
ATOM      4  C   UNL     1      47.768   9.279  12.475  0.00  0.00    +0.000 A 
ATOM      5  C   UNL     1      48.504   8.164  12.023  0.00  0.00    +0.000 A 
ATOM      6  C   UNL     1      47.875   6.966  11.672  0.00  0.00    +0.000 A 
ATOM      7  C   UNL     1      46.486   6.865  11.741  0.00  0.00    +0.000 A 
ATOM      8  C   UNL     1      45.735   7.960  12.176  0.00  0.00    +0.000 A 
ATOM      9  C   UNL     1      46.367   9.160  12.520  0.00  0.00    +0.000 A 
BRANCH   7  10
ATOM     10  C   UNL     1      45.769   5.613  11.383  0.00  0.00    +0.000 C 
ATOM     11  O   UNL     1      45.669   4.711  12.208  0.00  0.00    +0.000 OA
ATOM     12  N   UNL     1      45.219   5.558  10.123  0.00  0.00    +0.000 N 
ATOM     13  H   UNL     1      45.221   6.376   9.531  0.00  0.00    +0.000 HD
BRANCH  12  14
ATOM     14  C   UNL     1      44.467   4.407   9.672  0.00  0.00    +0.000 C 
BRANCH  14  15
ATOM     15  C   UNL     1      45.316   3.481   8.853  0.00  0.00    +0.000 A 
ATOM     16  C   UNL     1      46.123   3.949   7.812  0.00  0.00    +0.000 A 
ATOM     17  C   UNL     1      46.871   3.049   7.059  0.00  0.00    +0.000 A 
ATOM     18  C   UNL     1      46.787   1.702   7.372  0.00  0.00    +0.000 A 
ATOM     19  N   UNL     1      46.021   1.211   8.370  0.00  0.00    +0.000 NA
ATOM     20  C   UNL     1      45.300   2.108   9.079  0.00  0.00    +0.000 A 
ENDBRANCH  14  15
ENDBRANCH  12  14
ENDBRANCH   7  10
ENDBRANCH   2   4
BRANCH   2  21
ATOM     21  N   UNL     1      48.518  10.740  14.312  0.00  0.00    +0.000 N 
ATOM     22  H   UNL     1      47.700  11.230  14.667  0.00  0.00    +0.000 HD
BRANCH  21  23
ATOM     23  C   UNL     1      48.924   9.763  15.214  0.00  0.00    +0.000 A 
ATOM     24  C   UNL     1      48.103   9.207  16.192  0.00  0.00    +0.000 A 
ATOM     25  C   UNL     1      48.570   8.255  17.089  0.00  0.00    +0.000 A 
ATOM     26  C   UNL     1      49.867   7.759  16.988  0.00  0.00    +0.000 A 
ATOM     27  C   UNL     1      50.692   8.245  15.972  0.00  0.00    +0.000 A 
ATOM     28  C   UNL     1      50.219   9.231  15.095  0.00  0.00    +0.000 A 
BRANCH  26  29
ATOM     29  C   UNL     1      50.351   6.749  17.995  0.00  0.00    +0.000 C 
BRANCH  29  30
ATOM     30  C   UNL     1      49.193   6.144  18.810  0.00  0.00    +0.000 C 
BRANCH  30  31
ATOM     31  N   UNL     1      48.918   4.733  18.481  0.00  0.00    +0.000 NA
ATOM     32  C   UNL     1      47.666   4.583  17.723  0.00  0.00    +0.000 C 
ATOM     33  C   UNL     1      47.380   3.113  17.422  0.00  0.00    +0.000 C 
ATOM     34  C   UNL     1      48.534   2.472  16.665  0.00  0.00    +0.000 C 
ATOM     35  C   UNL     1      49.843   2.699  17.411  0.00  0.00    +0.000 C 
ATOM     36  C   UNL     1      50.054   4.180  17.722  0.00  0.00    +0.000 C 
ENDBRANCH  30  31
ENDBRANCH  29  30
ENDBRANCH  26  29
ENDBRANCH  21  23
ENDBRANCH   2  21
TORSDOF 9
ENDMDL
MODEL 2
REMARK VINA RESULT:    -7.224      3.020      9.201
REMARK INTER + INTRA:         -12.747
REMARK INTER:                 -11.323
REMARK INTRA:                  -1.424
REMARK UNBOUND:                -1.722
REMARK  Name = 
REMARK  11 active torsions:
REMARK  status: ('A' for Active; 'I' for Inactive)
REMARK    1  A    between atoms: C_1  and  C_2
REMARK    2  A    between atoms: C_2  and  C_3
REMARK    3  A    between atoms: C_2  and  N_4
REMARK    4  A    between atoms: C_2  and  C_19
REMARK    5  A    between atoms: N_4  and  C_5
REMARK    6  A    between atoms: C_8  and  C_9
REMARK    7  A    between atoms: C_9  and  C_10
REMARK    8  A    between atoms: C_10  and  N_11
REMARK    9  A    between atoms: C_22  and  C_23
REMARK   10  A    between atoms: N_25  and  C_26
REMARK   11  A    between atoms: C_26  and  C_27
REMARK                            x       y       z     vdW  Elec       q    Type
REMARK                         _______ _______ _______ _____ _____    ______ ____
ROOT
ATOM      1  C   UNL     1      49.036   7.037  12.590  0.00  0.00    +0.000 C 
ATOM      2  C   UNL     1      48.400   7.606  13.877  0.00  0.00    +0.000 C 
ATOM      3  C   UNL     1      48.574   9.137  14.012  0.00  0.00    +0.000 C 
ENDROOT
BRANCH   2   4
ATOM      4  C   UNL     1      49.137   6.895  15.042  0.00  0.00    +0.000 A 
ATOM      5  C   UNL     1      48.452   6.010  15.900  0.00  0.00    +0.000 A 
ATOM      6  C   UNL     1      49.097   5.379  16.967  0.00  0.00    +0.000 A 
ATOM      7  C   UNL     1      50.444   5.640  17.216  0.00  0.00    +0.000 A 
ATOM      8  C   UNL     1      51.141   6.522  16.386  0.00  0.00    +0.000 A 
ATOM      9  C   UNL     1      50.491   7.157  15.324  0.00  0.00    +0.000 A 
BRANCH   7  10
ATOM     10  C   UNL     1      51.178   4.992  18.335  0.00  0.00    +0.000 C 
ATOM     11  O   UNL     1      50.561   4.581  19.311  0.00  0.00    +0.000 OA
ATOM     12  N   UNL     1      52.540   4.864  18.184  0.00  0.00    +0.000 N 
ATOM     13  H   UNL     1      52.980   5.105  17.308  0.00  0.00    +0.000 HD
BRANCH  12  14
ATOM     14  C   UNL     1      53.357   4.219  19.188  0.00  0.00    +0.000 C 
BRANCH  14  15
ATOM     15  C   UNL     1      53.608   2.779  18.854  0.00  0.00    +0.000 A 
ATOM     16  C   UNL     1      52.953   2.144  17.795  0.00  0.00    +0.000 A 
ATOM     17  C   UNL     1      53.195   0.797  17.540  0.00  0.00    +0.000 A 
ATOM     18  C   UNL     1      54.088   0.125  18.358  0.00  0.00    +0.000 A 
ATOM     19  N   UNL     1      54.741   0.702  19.390  0.00  0.00    +0.000 NA
ATOM     20  C   UNL     1      54.480   2.009  19.617  0.00  0.00    +0.000 A 
ENDBRANCH  14  15
ENDBRANCH  12  14
ENDBRANCH   7  10
ENDBRANCH   2   4
BRANCH   2  21
ATOM     21  N   UNL     1      46.961   7.268  13.950  0.00  0.00    +0.000 N 
ATOM     22  H   UNL     1      46.401   8.069  14.237  0.00  0.00    +0.000 HD
BRANCH  21  23
ATOM     23  C   UNL     1      46.253   6.486  13.045  0.00  0.00    +0.000 A 
ATOM     24  C   UNL     1      46.058   5.113  13.176  0.00  0.00    +0.000 A 
ATOM     25  C   UNL     1      45.367   4.374  12.225  0.00  0.00    +0.000 A 
ATOM     26  C   UNL     1      44.770   5.001  11.135  0.00  0.00    +0.000 A 
ATOM     27  C   UNL     1      44.886   6.386  11.013  0.00  0.00    +0.000 A 
ATOM     28  C   UNL     1      45.616   7.115  11.962  0.00  0.00    +0.000 A 
BRANCH  26  29
ATOM     29  C   UNL     1      44.053   4.166  10.106  0.00  0.00    +0.000 C 
BRANCH  29  30
ATOM     30  C   UNL     1      44.682   2.768   9.955  0.00  0.00    +0.000 C 
BRANCH  30  31
ATOM     31  N   UNL     1      45.760   2.716   8.950  0.00  0.00    +0.000 NA
ATOM     32  C   UNL     1      45.906   1.369   8.376  0.00  0.00    +0.000 C 
ATOM     33  C   UNL     1      47.050   1.324   7.364  0.00  0.00    +0.000 C 
ATOM     34  C   UNL     1      46.842   2.348   6.257  0.00  0.00    +0.000 C 
ATOM     35  C   UNL     1      46.609   3.729   6.854  0.00  0.00    +0.000 C 
ATOM     36  C   UNL     1      45.485   3.703   7.890  0.00  0.00    +0.000 C 
ENDBRANCH  30  31
ENDBRANCH  29  30
ENDBRANCH  26  29
ENDBRANCH  21  23
ENDBRANCH   2  21
TORSDOF 9
ENDMDL
MODEL 3
REMARK VINA RESULT:    -7.081      1.582      2.284
REMARK INTER + INTRA:         -12.528
REMARK INTER:                 -11.128
REMARK INTRA:                  -1.400
REMARK UNBOUND:                -1.722
REMARK  Name = 
REMARK  11 active torsions:
REMARK  status: ('A' for Active; 'I' for Inactive)
REMARK    1  A    between atoms: C_1  and  C_2
REMARK    2  A    between atoms: C_2  and  C_3
REMARK    3  A    between atoms: C_2  and  N_4
REMARK    4  A    between atoms: C_2  and  C_19
REMARK    5  A    between atoms: N_4  and  C_5
REMARK    6  A    between atoms: C_8  and  C_9
REMARK    7  A    between atoms: C_9  and  C_10
REMARK    8  A    between atoms: C_10  and  N_11
REMARK    9  A    between atoms: C_22  and  C_23
REMARK   10  A    between atoms: N_25  and  C_26
REMARK   11  A    between atoms: C_26  and  C_27
REMARK                            x       y       z     vdW  Elec       q    Type
REMARK                         _______ _______ _______ _____ _____    ______ ____
ROOT
ATOM      1  C   UNL     1      47.650  11.218  12.718  0.00  0.00    +0.000 C 
ATOM      2  C   UNL     1      48.294   9.882  13.148  0.00  0.00    +0.000 C 
ATOM      3  C   UNL     1      49.747   9.720  12.644  0.00  0.00    +0.000 C 
ENDROOT
BRANCH   2   4
ATOM      4  C   UNL     1      47.401   8.781  12.518  0.00  0.00    +0.000 A 
ATOM      5  C   UNL     1      45.996   8.836  12.631  0.00  0.00    +0.000 A 
ATOM      6  C   UNL     1      45.179   7.840  12.088  0.00  0.00    +0.000 A 
ATOM      7  C   UNL     1      45.754   6.748  11.438  0.00  0.00    +0.000 A 
ATOM      8  C   UNL     1      47.144   6.666  11.325  0.00  0.00    +0.000 A 
ATOM      9  C   UNL     1      47.959   7.661  11.875  0.00  0.00    +0.000 A 
BRANCH   7  10
ATOM     10  C   UNL     1      44.931   5.665  10.840  0.00  0.00    +0.000 C 
ATOM     11  O   UNL     1      43.952   5.240  11.444  0.00  0.00    +0.000 OA
ATOM     12  N   UNL     1      45.313   5.218   9.596  0.00  0.00    +0.000 N 
ATOM     13  H   UNL     1      46.049   5.689   9.090  0.00  0.00    +0.000 HD
BRANCH  12  14
ATOM     14  C   UNL     1      44.570   4.192   8.897  0.00  0.00    +0.000 C 
BRANCH  14  15
ATOM     15  C   UNL     1      45.482   3.171   8.285  0.00  0.00    +0.000 A 
ATOM     16  C   UNL     1      46.314   3.481   7.204  0.00  0.00    +0.000 A 
ATOM     17  C   UNL     1      47.122   2.492   6.650  0.00  0.00    +0.000 A 
ATOM     18  C   UNL     1      47.071   1.220   7.195  0.00  0.00    +0.000 A 
ATOM     19  N   UNL     1      46.283   0.882   8.238  0.00  0.00    +0.000 NA
ATOM     20  C   UNL     1      45.504   1.861   8.751  0.00  0.00    +0.000 A 
ENDBRANCH  14  15
ENDBRANCH  12  14
ENDBRANCH   7  10
ENDBRANCH   2   4
BRANCH   2  21
ATOM     21  N   UNL     1      48.267   9.731  14.620  0.00  0.00    +0.000 N 
ATOM     22  H   UNL     1      47.340   9.919  15.000  0.00  0.00    +0.000 HD
BRANCH  21  23
ATOM     23  C   UNL     1      48.896   8.735  15.357  0.00  0.00    +0.000 A 
ATOM     24  C   UNL     1      48.454   7.417  15.436  0.00  0.00    +0.000 A 
ATOM     25  C   UNL     1      49.105   6.468  16.214  0.00  0.00    +0.000 A 
ATOM     26  C   UNL     1      50.283   6.787  16.885  0.00  0.00    +0.000 A 
ATOM     27  C   UNL     1      50.790   8.081  16.767  0.00  0.00    +0.000 A 
ATOM     28  C   UNL     1      50.104   9.039  16.007  0.00  0.00    +0.000 A 
BRANCH  26  29
ATOM     29  C   UNL     1      50.947   5.743  17.743  0.00  0.00    +0.000 C 
BRANCH  29  30
ATOM     30  C   UNL     1      50.454   4.322  17.412  0.00  0.00    +0.000 C 
BRANCH  30  31
ATOM     31  N   UNL     1      51.547   3.344  17.253  0.00  0.00    +0.000 NA
ATOM     32  C   UNL     1      52.692   3.660  18.121  0.00  0.00    +0.000 C 
ATOM     33  C   UNL     1      53.827   2.658  17.917  0.00  0.00    +0.000 C 
ATOM     34  C   UNL     1      53.354   1.234  18.167  0.00  0.00    +0.000 C 
ATOM     35  C   UNL     1      52.119   0.935  17.327  0.00  0.00    +0.000 C 
ATOM     36  C   UNL     1      51.036   1.992  17.540  0.00  0.00    +0.000 C 
ENDBRANCH  30  31
ENDBRANCH  29  30
ENDBRANCH  26  29
ENDBRANCH  21  23
ENDBRANCH   2  21
TORSDOF 9
ENDMDL
MODEL 4
REMARK VINA RESULT:    -6.476      1.480      2.388
REMARK INTER + INTRA:         -11.606
REMARK INTER:                  -9.787
REMARK INTRA:                  -1.819
REMARK UNBOUND:                -1.722
REMARK  Name = 
REMARK  11 active torsions:
REMARK  status: ('A' for Active; 'I' for Inactive)
REMARK    1  A    between atoms: C_1  and  C_2
REMARK    2  A    between atoms: C_2  and  C_3
REMARK    3  A    between atoms: C_2  and  N_4
REMARK    4  A    between atoms: C_2  and  C_19
REMARK    5  A    between atoms: N_4  and  C_5
REMARK    6  A    between atoms: C_8  and  C_9
REMARK    7  A    between atoms: C_9  and  C_10
REMARK    8  A    between atoms: C_10  and  N_11
REMARK    9  A    between atoms: C_22  and  C_23
REMARK   10  A    between atoms: N_25  and  C_26
REMARK   11  A    between atoms: C_26  and  C_27
REMARK                            x       y       z     vdW  Elec       q    Type
REMARK                         _______ _______ _______ _____ _____    ______ ____
ROOT
ATOM      1  C   UNL     1      50.785  11.647  11.325  0.00  0.00    +0.000 C 
ATOM      2  C   UNL     1      51.154  10.265  11.908  0.00  0.00    +0.000 C 
ATOM      3  C   UNL     1      52.191   9.503  11.050  0.00  0.00    +0.000 C 
ENDROOT
BRANCH   2   4
ATOM      4  C   UNL     1      49.822   9.471  11.939  0.00  0.00    +0.000 A 
ATOM      5  C   UNL     1      48.589  10.131  12.126  0.00  0.00    +0.000 A 
ATOM      6  C   UNL     1      47.383   9.426  12.178  0.00  0.00    +0.000 A 
ATOM      7  C   UNL     1      47.385   8.036  12.069  0.00  0.00    +0.000 A 
ATOM      8  C   UNL     1      48.595   7.359  11.895  0.00  0.00    +0.000 A 
ATOM      9  C   UNL     1      49.802   8.067  11.850  0.00  0.00    +0.000 A 
BRANCH   7  10
ATOM     10  C   UNL     1      46.131   7.240  12.114  0.00  0.00    +0.000 C 
ATOM     11  O   UNL     1      45.160   7.668  12.730  0.00  0.00    +0.000 OA
ATOM     12  N   UNL     1      46.129   6.055  11.416  0.00  0.00    +0.000 N 
ATOM     13  H   UNL     1      46.910   5.812  10.824  0.00  0.00    +0.000 HD
BRANCH  12  14
ATOM     14  C   UNL     1      44.955   5.211  11.356  0.00  0.00    +0.000 C 
BRANCH  14  15
ATOM     15  C   UNL     1      44.988   4.305  10.161  0.00  0.00    +0.000 A 
ATOM     16  C   UNL     1      44.572   2.972  10.237  0.00  0.00    +0.000 A 
ATOM     17  C   UNL     1      44.649   2.160   9.110  0.00  0.00    +0.000 A 
ATOM     18  C   UNL     1      45.143   2.708   7.937  0.00  0.00    +0.000 A 
ATOM     19  N   UNL     1      45.554   3.989   7.824  0.00  0.00    +0.000 NA
ATOM     20  C   UNL     1      45.474   4.753   8.937  0.00  0.00    +0.000 A 
ENDBRANCH  14  15
ENDBRANCH  12  14
ENDBRANCH   7  10
ENDBRANCH   2   4
BRANCH   2  21
ATOM     21  N   UNL     1      51.663  10.393  13.291  0.00  0.00    +0.000 N 
ATOM     22  H   UNL     1      51.688  11.365  13.594  0.00  0.00    +0.000 HD
BRANCH  21  23
ATOM     23  C   UNL     1      51.352   9.563  14.362  0.00  0.00    +0.000 A 
ATOM     24  C   UNL     1      50.275   9.760  15.223  0.00  0.00    +0.000 A 
ATOM     25  C   UNL     1      50.029   8.915  16.298  0.00  0.00    +0.000 A 
ATOM     26  C   UNL     1      50.813   7.783  16.506  0.00  0.00    +0.000 A 
ATOM     27  C   UNL     1      51.856   7.520  15.618  0.00  0.00    +0.000 A 
ATOM     28  C   UNL     1      52.115   8.400  14.557  0.00  0.00    +0.000 A 
BRANCH  26  29
ATOM     29  C   UNL     1      50.536   6.905  17.698  0.00  0.00    +0.000 C 
BRANCH  29  30
ATOM     30  C   UNL     1      50.915   5.436  17.435  0.00  0.00    +0.000 C 
BRANCH  30  31
ATOM     31  N   UNL     1      49.777   4.607  16.996  0.00  0.00    +0.000 NA
ATOM     32  C   UNL     1      49.948   3.197  17.382  0.00  0.00    +0.000 C 
ATOM     33  C   UNL     1      48.778   2.348  16.889  0.00  0.00    +0.000 C 
ATOM     34  C   UNL     1      47.453   2.880  17.414  0.00  0.00    +0.000 C 
ATOM     35  C   UNL     1      47.313   4.361  17.084  0.00  0.00    +0.000 C 
ATOM     36  C   UNL     1      48.530   5.152  17.562  0.00  0.00    +0.000 C 
ENDBRANCH  30  31
ENDBRANCH  29  30
ENDBRANCH  26  29
ENDBRANCH  21  23
ENDBRANCH   2  21
TORSDOF 9
ENDMDL
MODEL 5
REMARK VINA RESULT:    -6.451      4.042      7.640
REMARK INTER + INTRA:         -11.568
REMARK INTER:                  -9.987
REMARK INTRA:                  -1.581
REMARK UNBOUND:                -1.722
REMARK  Name = 
REMARK  11 active torsions:
REMARK  status: ('A' for Active; 'I' for Inactive)
REMARK    1  A    between atoms: C_1  and  C_2
REMARK    2  A    between atoms: C_2  and  C_3
REMARK    3  A    between atoms: C_2  and  N_4
REMARK    4  A    between atoms: C_2  and  C_19
REMARK    5  A    between atoms: N_4  and  C_5
REMARK    6  A    between atoms: C_8  and  C_9
REMARK    7  A    between atoms: C_9  and  C_10
REMARK    8  A    between atoms: C_10  and  N_11
REMARK    9  A    between atoms: C_22  and  C_23
REMARK   10  A    between atoms: N_25  and  C_26
REMARK   11  A    between atoms: C_26  and  C_27
REMARK                            x       y       z     vdW  Elec       q    Type
REMARK                         _______ _______ _______ _____ _____    ______ ____
ROOT
ATOM      1  C   UNL     1      47.927   8.805  14.872  0.00  0.00    +0.000 C 
ATOM      2  C   UNL     1      49.154   8.424  14.015  0.00  0.00    +0.000 C 
ATOM      3  C   UNL     1      50.496   8.620  14.759  0.00  0.00    +0.000 C 
ENDROOT
BRANCH   2   4
ATOM      4  C   UNL     1      49.099   9.371  12.787  0.00  0.00    +0.000 A 
ATOM      5  C   UNL     1      50.165   9.424  11.865  0.00  0.00    +0.000 A 
ATOM      6  C   UNL     1      50.139  10.287  10.766  0.00  0.00    +0.000 A 
ATOM      7  C   UNL     1      49.052  11.139  10.577  0.00  0.00    +0.000 A 
ATOM      8  C   UNL     1      47.989  11.112  11.484  0.00  0.00    +0.000 A 
ATOM      9  C   UNL     1      48.021  10.252  12.587  0.00  0.00    +0.000 A 
BRANCH   7  10
ATOM     10  C   UNL     1      48.973  12.072   9.423  0.00  0.00    +0.000 C 
ATOM     11  O   UNL     1      48.043  12.867   9.345  0.00  0.00    +0.000 OA
ATOM     12  N   UNL     1      49.997  12.004   8.506  0.00  0.00    +0.000 N 
ATOM     13  H   UNL     1      50.801  11.420   8.684  0.00  0.00    +0.000 HD
BRANCH  12  14
ATOM     14  C   UNL     1      50.049  12.885   7.360  0.00  0.00    +0.000 C 
BRANCH  14  15
ATOM     15  C   UNL     1      49.427  12.253   6.150  0.00  0.00    +0.000 A 
ATOM     16  C   UNL     1      48.107  12.520   5.776  0.00  0.00    +0.000 A 
ATOM     17  C   UNL     1      47.563  11.887   4.662  0.00  0.00    +0.000 A 
ATOM     18  C   UNL     1      48.360  11.002   3.955  0.00  0.00    +0.000 A 
ATOM     19  N   UNL     1      49.639  10.719   4.284  0.00  0.00    +0.000 NA
ATOM     20  C   UNL     1      50.138  11.343   5.374  0.00  0.00    +0.000 A 
ENDBRANCH  14  15
ENDBRANCH  12  14
ENDBRANCH   7  10
ENDBRANCH   2   4
BRANCH   2  21
ATOM     21  N   UNL     1      49.056   7.026  13.542  0.00  0.00    +0.000 N 
ATOM     22  H   UNL     1      49.633   6.399  14.100  0.00  0.00    +0.000 HD
BRANCH  21  23
ATOM     23  C   UNL     1      47.898   6.376  13.130  0.00  0.00    +0.000 A 
ATOM     24  C   UNL     1      47.221   5.421  13.884  0.00  0.00    +0.000 A 
ATOM     25  C   UNL     1      46.084   4.780  13.410  0.00  0.00    +0.000 A 
ATOM     26  C   UNL     1      45.530   5.132  12.182  0.00  0.00    +0.000 A 
ATOM     27  C   UNL     1      46.145   6.136  11.434  0.00  0.00    +0.000 A 
ATOM     28  C   UNL     1      47.312   6.751  11.909  0.00  0.00    +0.000 A 
BRANCH  26  29
ATOM     29  C   UNL     1      44.314   4.396  11.685  0.00  0.00    +0.000 C 
BRANCH  29  30
ATOM     30  C   UNL     1      43.925   4.818  10.256  0.00  0.00    +0.000 C 
BRANCH  30  31
ATOM     31  N   UNL     1      44.349   3.853   9.224  0.00  0.00    +0.000 NA
ATOM     32  C   UNL     1      45.520   4.335   8.475  0.00  0.00    +0.000 C 
ATOM     33  C   UNL     1      45.923   3.341   7.387  0.00  0.00    +0.000 C 
ATOM     34  C   UNL     1      46.205   1.967   7.977  0.00  0.00    +0.000 C 
ATOM     35  C   UNL     1      45.023   1.504   8.820  0.00  0.00    +0.000 C 
ATOM     36  C   UNL     1      44.639   2.556   9.860  0.00  0.00    +0.000 C 
ENDBRANCH  30  31
ENDBRANCH  29  30
ENDBRANCH  26  29
ENDBRANCH  21  23
ENDBRANCH   2  21
TORSDOF 9
ENDMDL
MODEL 6
REMARK VINA RESULT:    -6.426      4.119      9.700
REMARK INTER + INTRA:         -11.529
REMARK INTER:                 -11.153
REMARK INTRA:                  -0.376
REMARK UNBOUND:                -1.722
REMARK  Name = 
REMARK  11 active torsions:
REMARK  status: ('A' for Active; 'I' for Inactive)
REMARK    1  A    between atoms: C_1  and  C_2
REMARK    2  A    between atoms: C_2  and  C_3
REMARK    3  A    between atoms: C_2  and  N_4
REMARK    4  A    between atoms: C_2  and  C_19
REMARK    5  A    between atoms: N_4  and  C_5
REMARK    6  A    between atoms: C_8  and  C_9
REMARK    7  A    between atoms: C_9  and  C_10
REMARK    8  A    between atoms: C_10  and  N_11
REMARK    9  A    between atoms: C_22  and  C_23
REMARK   10  A    between atoms: N_25  and  C_26
REMARK   11  A    between atoms: C_26  and  C_27
REMARK                            x       y       z     vdW  Elec       q    Type
REMARK                         _______ _______ _______ _____ _____    ______ ____
ROOT
ATOM      1  C   UNL     1      47.441   5.217  18.105  0.00  0.00    +0.000 C 
ATOM      2  C   UNL     1      47.977   4.601  16.794  0.00  0.00    +0.000 C 
ATOM      3  C   UNL     1      47.069   3.482  16.235  0.00  0.00    +0.000 C 
ENDROOT
BRANCH   2   4
ATOM      4  C   UNL     1      49.363   4.008  17.164  0.00  0.00    +0.000 A 
ATOM      5  C   UNL     1      50.446   4.849  17.495  0.00  0.00    +0.000 A 
ATOM      6  C   UNL     1      51.705   4.330  17.808  0.00  0.00    +0.000 A 
ATOM      7  C   UNL     1      51.918   2.952  17.774  0.00  0.00    +0.000 A 
ATOM      8  C   UNL     1      50.862   2.100  17.438  0.00  0.00    +0.000 A 
ATOM      9  C   UNL     1      49.605   2.622  17.118  0.00  0.00    +0.000 A 
BRANCH   7  10
ATOM     10  C   UNL     1      53.236   2.350  18.103  0.00  0.00    +0.000 C 
ATOM     11  O   UNL     1      54.246   3.044  18.078  0.00  0.00    +0.000 OA
ATOM     12  N   UNL     1      53.233   1.020  18.456  0.00  0.00    +0.000 N 
ATOM     13  H   UNL     1      52.360   0.529  18.583  0.00  0.00    +0.000 HD
BRANCH  12  14
ATOM     14  C   UNL     1      54.449   0.332  18.831  0.00  0.00    +0.000 C 
BRANCH  14  15
ATOM     15  C   UNL     1      54.658  -0.906  18.010  0.00  0.00    +0.000 A 
ATOM     16  C   UNL     1      54.905  -0.844  16.635  0.00  0.00    +0.000 A 
ATOM     17  C   UNL     1      55.063  -2.021  15.909  0.00  0.00    +0.000 A 
ATOM     18  C   UNL     1      54.968  -3.227  16.583  0.00  0.00    +0.000 A 
ATOM     19  N   UNL     1      54.731  -3.328  17.909  0.00  0.00    +0.000 NA
ATOM     20  C   UNL     1      54.575  -2.169  18.587  0.00  0.00    +0.000 A 
ENDBRANCH  14  15
ENDBRANCH  12  14
ENDBRANCH   7  10
ENDBRANCH   2   4
BRANCH   2  21
ATOM     21  N   UNL     1      48.168   5.641  15.759  0.00  0.00    +0.000 N 
ATOM     22  H   UNL     1      49.148   5.899  15.662  0.00  0.00    +0.000 HD
BRANCH  21  23
ATOM     23  C   UNL     1      47.530   5.700  14.526  0.00  0.00    +0.000 A 
ATOM     24  C   UNL     1      46.396   4.964  14.190  0.00  0.00    +0.000 A 
ATOM     25  C   UNL     1      45.817   5.039  12.930  0.00  0.00    +0.000 A 
ATOM     26  C   UNL     1      46.308   5.924  11.974  0.00  0.00    +0.000 A 
ATOM     27  C   UNL     1      47.399   6.728  12.305  0.00  0.00    +0.000 A 
ATOM     28  C   UNL     1      47.996   6.617  13.569  0.00  0.00    +0.000 A 
BRANCH  26  29
ATOM     29  C   UNL     1      45.674   5.959  10.608  0.00  0.00    +0.000 C 
BRANCH  29  30
ATOM     30  C   UNL     1      44.528   4.940  10.475  0.00  0.00    +0.000 C 
BRANCH  30  31
ATOM     31  N   UNL     1      44.725   3.975   9.377  0.00  0.00    +0.000 NA
ATOM     32  C   UNL     1      45.807   4.393   8.472  0.00  0.00    +0.000 C 
ATOM     33  C   UNL     1      45.973   3.402   7.321  0.00  0.00    +0.000 C 
ATOM     34  C   UNL     1      46.235   1.996   7.842  0.00  0.00    +0.000 C 
ATOM     35  C   UNL     1      45.158   1.596   8.842  0.00  0.00    +0.000 C 
ATOM     36  C   UNL     1      45.007   2.644   9.943  0.00  0.00    +0.000 C 
ENDBRANCH  30  31
ENDBRANCH  29  30
ENDBRANCH  26  29
ENDBRANCH  21  23
ENDBRANCH   2  21
TORSDOF 9
ENDMDL
MODEL 7
REMARK VINA RESULT:    -6.411      2.677      6.442
REMARK INTER + INTRA:         -11.507
REMARK INTER:                  -9.046
REMARK INTRA:                  -2.460
REMARK UNBOUND:                -1.722
REMARK  Name = 
REMARK  11 active torsions:
REMARK  status: ('A' for Active; 'I' for Inactive)
REMARK    1  A    between atoms: C_1  and  C_2
REMARK    2  A    between atoms: C_2  and  C_3
REMARK    3  A    between atoms: C_2  and  N_4
REMARK    4  A    between atoms: C_2  and  C_19
REMARK    5  A    between atoms: N_4  and  C_5
REMARK    6  A    between atoms: C_8  and  C_9
REMARK    7  A    between atoms: C_9  and  C_10
REMARK    8  A    between atoms: C_10  and  N_11
REMARK    9  A    between atoms: C_22  and  C_23
REMARK   10  A    between atoms: N_25  and  C_26
REMARK   11  A    between atoms: C_26  and  C_27
REMARK                            x       y       z     vdW  Elec       q    Type
REMARK                         _______ _______ _______ _____ _____    ______ ____
ROOT
ATOM      1  C   UNL     1      49.697   5.177  21.742  0.00  0.00    +0.000 C 
ATOM      2  C   UNL     1      48.694   6.055  20.961  0.00  0.00    +0.000 C 
ATOM      3  C   UNL     1      47.332   6.203  21.679  0.00  0.00    +0.000 C 
ENDROOT
BRANCH   2   4
ATOM      4  C   UNL     1      48.489   5.327  19.606  0.00  0.00    +0.000 A 
ATOM      5  C   UNL     1      49.552   4.637  18.987  0.00  0.00    +0.000 A 
ATOM      6  C   UNL     1      49.389   3.996  17.756  0.00  0.00    +0.000 A 
ATOM      7  C   UNL     1      48.159   4.052  17.101  0.00  0.00    +0.000 A 
ATOM      8  C   UNL     1      47.094   4.739  17.690  0.00  0.00    +0.000 A 
ATOM      9  C   UNL     1      47.263   5.386  18.919  0.00  0.00    +0.000 A 
BRANCH   7  10
ATOM     10  C   UNL     1      47.932   3.383  15.793  0.00  0.00    +0.000 C 
ATOM     11  O   UNL     1      48.506   2.330  15.540  0.00  0.00    +0.000 OA
ATOM     12  N   UNL     1      47.041   3.992  14.938  0.00  0.00    +0.000 N 
ATOM     13  H   UNL     1      46.502   4.788  15.247  0.00  0.00    +0.000 HD
BRANCH  12  14
ATOM     14  C   UNL     1      46.711   3.418  13.652  0.00  0.00    +0.000 C 
BRANCH  14  15
ATOM     15  C   UNL     1      45.695   4.246  12.923  0.00  0.00    +0.000 A 
ATOM     16  C   UNL     1      45.791   5.639  12.857  0.00  0.00    +0.000 A 
ATOM     17  C   UNL     1      44.808   6.368  12.195  0.00  0.00    +0.000 A 
ATOM     18  C   UNL     1      43.755   5.678  11.618  0.00  0.00    +0.000 A 
ATOM     19  N   UNL     1      43.627   4.334  11.659  0.00  0.00    +0.000 NA
ATOM     20  C   UNL     1      44.593   3.653  12.315  0.00  0.00    +0.000 A 
ENDBRANCH  14  15
ENDBRANCH  12  14
ENDBRANCH   7  10
ENDBRANCH   2   4
BRANCH   2  21
ATOM     21  N   UNL     1      49.258   7.397  20.699  0.00  0.00    +0.000 N 
ATOM     22  H   UNL     1      50.198   7.490  21.079  0.00  0.00    +0.000 HD
BRANCH  21  23
ATOM     23  C   UNL     1      49.141   8.122  19.518  0.00  0.00    +0.000 A 
ATOM     24  C   UNL     1      48.023   8.872  19.163  0.00  0.00    +0.000 A 
ATOM     25  C   UNL     1      47.948   9.553  17.955  0.00  0.00    +0.000 A 
ATOM     26  C   UNL     1      49.033   9.574  17.083  0.00  0.00    +0.000 A 
ATOM     27  C   UNL     1      50.194   8.891  17.444  0.00  0.00    +0.000 A 
ATOM     28  C   UNL     1      50.244   8.179  18.650  0.00  0.00    +0.000 A 
BRANCH  26  29
ATOM     29  C   UNL     1      48.907  10.298  15.768  0.00  0.00    +0.000 C 
BRANCH  29  30
ATOM     30  C   UNL     1      50.123  10.057  14.855  0.00  0.00    +0.000 C 
BRANCH  30  31
ATOM     31  N   UNL     1      49.761   9.567  13.512  0.00  0.00    +0.000 NA
ATOM     32  C   UNL     1      50.549   8.386  13.130  0.00  0.00    +0.000 C 
ATOM     33  C   UNL     1      50.186   7.914  11.723  0.00  0.00    +0.000 C 
ATOM     34  C   UNL     1      48.699   7.612  11.613  0.00  0.00    +0.000 C 
ATOM     35  C   UNL     1      47.882   8.809  12.085  0.00  0.00    +0.000 C 
ATOM     36  C   UNL     1      48.319   9.262  13.478  0.00  0.00    +0.000 C 
ENDBRANCH  30  31
ENDBRANCH  29  30
ENDBRANCH  26  29
ENDBRANCH  21  23
ENDBRANCH   2  21
TORSDOF 9
ENDMDL
MODEL 8
REMARK VINA RESULT:    -6.284      2.071      7.596
REMARK INTER + INTRA:         -11.312
REMARK INTER:                  -9.721
REMARK INTRA:                  -1.591
REMARK UNBOUND:                -1.722
REMARK  Name = 
REMARK  11 active torsions:
REMARK  status: ('A' for Active; 'I' for Inactive)
REMARK    1  A    between atoms: C_1  and  C_2
REMARK    2  A    between atoms: C_2  and  C_3
REMARK    3  A    between atoms: C_2  and  N_4
REMARK    4  A    between atoms: C_2  and  C_19
REMARK    5  A    between atoms: N_4  and  C_5
REMARK    6  A    between atoms: C_8  and  C_9
REMARK    7  A    between atoms: C_9  and  C_10
REMARK    8  A    between atoms: C_10  and  N_11
REMARK    9  A    between atoms: C_22  and  C_23
REMARK   10  A    between atoms: N_25  and  C_26
REMARK   11  A    between atoms: C_26  and  C_27
REMARK                            x       y       z     vdW  Elec       q    Type
REMARK                         _______ _______ _______ _____ _____    ______ ____
ROOT
ATOM      1  C   UNL     1      51.079  10.322  12.100  0.00  0.00    +0.000 C 
ATOM      2  C   UNL     1      49.665  10.375  12.720  0.00  0.00    +0.000 C 
ATOM      3  C   UNL     1      49.247  11.799  13.154  0.00  0.00    +0.000 C 
ENDROOT
BRANCH   2   4
ATOM      4  C   UNL     1      49.735   9.452  13.965  0.00  0.00    +0.000 A 
ATOM      5  C   UNL     1      48.889   9.667  15.074  0.00  0.00    +0.000 A 
ATOM      6  C   UNL     1      48.955   8.858  16.212  0.00  0.00    +0.000 A 
ATOM      7  C   UNL     1      49.891   7.826  16.277  0.00  0.00    +0.000 A 
ATOM      8  C   UNL     1      50.747   7.601  15.195  0.00  0.00    +0.000 A 
ATOM      9  C   UNL     1      50.683   8.417  14.061  0.00  0.00    +0.000 A 
BRANCH   7  10
ATOM     10  C   UNL     1      49.999   6.935  17.461  0.00  0.00    +0.000 C 
ATOM     11  O   UNL     1      50.319   7.403  18.548  0.00  0.00    +0.000 OA
ATOM     12  N   UNL     1      49.693   5.608  17.263  0.00  0.00    +0.000 N 
ATOM     13  H   UNL     1      49.314   5.300  16.379  0.00  0.00    +0.000 HD
BRANCH  12  14
ATOM     14  C   UNL     1      49.728   4.651  18.346  0.00  0.00    +0.000 C 
BRANCH  14  15
ATOM     15  C   UNL     1      50.628   3.493  18.030  0.00  0.00    +0.000 A 
ATOM     16  C   UNL     1      51.989   3.510  18.347  0.00  0.00    +0.000 A 
ATOM     17  C   UNL     1      52.791   2.425  18.008  0.00  0.00    +0.000 A 
ATOM     18  C   UNL     1      52.204   1.351  17.359  0.00  0.00    +0.000 A 
ATOM     19  N   UNL     1      50.893   1.296  17.036  0.00  0.00    +0.000 NA
ATOM     20  C   UNL     1      50.141   2.368  17.372  0.00  0.00    +0.000 A 
ENDBRANCH  14  15
ENDBRANCH  12  14
ENDBRANCH   7  10
ENDBRANCH   2   4
BRANCH   2  21
ATOM     21  N   UNL     1      48.656   9.832  11.783  0.00  0.00    +0.000 N 
ATOM     22  H   UNL     1      49.032   9.736  10.841  0.00  0.00    +0.000 HD
BRANCH  21  23
ATOM     23  C   UNL     1      47.753   8.810  12.049  0.00  0.00    +0.000 A 
ATOM     24  C   UNL     1      46.432   9.010  12.444  0.00  0.00    +0.000 A 
ATOM     25  C   UNL     1      45.581   7.950  12.727  0.00  0.00    +0.000 A 
ATOM     26  C   UNL     1      46.000   6.635  12.545  0.00  0.00    +0.000 A 
ATOM     27  C   UNL     1      47.295   6.403  12.082  0.00  0.00    +0.000 A 
ATOM     28  C   UNL     1      48.155   7.481  11.834  0.00  0.00    +0.000 A 
BRANCH  26  29
ATOM     29  C   UNL     1      45.060   5.509  12.890  0.00  0.00    +0.000 C 
BRANCH  29  30
ATOM     30  C   UNL     1      44.160   5.121  11.702  0.00  0.00    +0.000 C 
BRANCH  30  31
ATOM     31  N   UNL     1      44.843   4.288  10.696  0.00  0.00    +0.000 NA
ATOM     32  C   UNL     1      44.076   3.072  10.383  0.00  0.00    +0.000 C 
ATOM     33  C   UNL     1      44.815   2.203   9.367  0.00  0.00    +0.000 C 
ATOM     34  C   UNL     1      45.111   2.981   8.093  0.00  0.00    +0.000 C 
ATOM     35  C   UNL     1      45.834   4.280   8.426  0.00  0.00    +0.000 C 
ATOM     36  C   UNL     1      45.072   5.084   9.477  0.00  0.00    +0.000 C 
ENDBRANCH  30  31
ENDBRANCH  29  30
ENDBRANCH  26  29
ENDBRANCH  21  23
ENDBRANCH   2  21
TORSDOF 9
ENDMDL
MODEL 9
REMARK VINA RESULT:    -6.229      4.348      8.319
REMARK INTER + INTRA:         -11.229
REMARK INTER:                 -10.390
REMARK INTRA:                  -0.838
REMARK UNBOUND:                -1.722
REMARK  Name = 
REMARK  11 active torsions:
REMARK  status: ('A' for Active; 'I' for Inactive)
REMARK    1  A    between atoms: C_1  and  C_2
REMARK    2  A    between atoms: C_2  and  C_3
REMARK    3  A    between atoms: C_2  and  N_4
REMARK    4  A    between atoms: C_2  and  C_19
REMARK    5  A    between atoms: N_4  and  C_5
REMARK    6  A    between atoms: C_8  and  C_9
REMARK    7  A    between atoms: C_9  and  C_10
REMARK    8  A    between atoms: C_10  and  N_11
REMARK    9  A    between atoms: C_22  and  C_23
REMARK   10  A    between atoms: N_25  and  C_26
REMARK   11  A    between atoms: C_26  and  C_27
REMARK                            x       y       z     vdW  Elec       q    Type
REMARK                         _______ _______ _______ _____ _____    ______ ____
ROOT
ATOM      1  C   UNL     1      46.653   9.045  12.707  0.00  0.00    +0.000 C 
ATOM      2  C   UNL     1      47.891   8.425  13.391  0.00  0.00    +0.000 C 
ATOM      3  C   UNL     1      48.136   8.976  14.815  0.00  0.00    +0.000 C 
ENDROOT
BRANCH   2   4
ATOM      4  C   UNL     1      49.088   8.801  12.477  0.00  0.00    +0.000 A 
ATOM      5  C   UNL     1      50.009   7.821  12.050  0.00  0.00    +0.000 A 
ATOM      6  C   UNL     1      51.104   8.148  11.246  0.00  0.00    +0.000 A 
ATOM      7  C   UNL     1      51.317   9.473  10.868  0.00  0.00    +0.000 A 
ATOM      8  C   UNL     1      50.425  10.463  11.288  0.00  0.00    +0.000 A 
ATOM      9  C   UNL     1      49.334  10.134  12.099  0.00  0.00    +0.000 A 
BRANCH   7  10
ATOM     10  C   UNL     1      52.463   9.873  10.010  0.00  0.00    +0.000 C 
ATOM     11  O   UNL     1      52.940  10.998  10.115  0.00  0.00    +0.000 OA
ATOM     12  N   UNL     1      52.951   8.915   9.149  0.00  0.00    +0.000 N 
ATOM     13  H   UNL     1      52.604   7.968   9.193  0.00  0.00    +0.000 HD
BRANCH  12  14
ATOM     14  C   UNL     1      54.085   9.175   8.290  0.00  0.00    +0.000 C 
BRANCH  14  15
ATOM     15  C   UNL     1      53.652   9.653   6.936  0.00  0.00    +0.000 A 
ATOM     16  C   UNL     1      52.453   9.230   6.354  0.00  0.00    +0.000 A 
ATOM     17  C   UNL     1      52.107   9.677   5.082  0.00  0.00    +0.000 A 
ATOM     18  C   UNL     1      52.976  10.535   4.429  0.00  0.00    +0.000 A 
ATOM     19  N   UNL     1      54.142  10.966   4.957  0.00  0.00    +0.000 NA
ATOM     20  C   UNL     1      54.455  10.510   6.190  0.00  0.00    +0.000 A 
ENDBRANCH  14  15
ENDBRANCH  12  14
ENDBRANCH   7  10
ENDBRANCH   2   4
BRANCH   2  21
ATOM     21  N   UNL     1      47.782   6.951  13.448  0.00  0.00    +0.000 N 
ATOM     22  H   UNL     1      47.845   6.606  14.404  0.00  0.00    +0.000 HD
BRANCH  21  23
ATOM     23  C   UNL     1      46.911   6.161  12.707  0.00  0.00    +0.000 A 
ATOM     24  C   UNL     1      46.214   5.068  13.216  0.00  0.00    +0.000 A 
ATOM     25  C   UNL     1      45.378   4.294  12.422  0.00  0.00    +0.000 A 
ATOM     26  C   UNL     1      45.144   4.636  11.092  0.00  0.00    +0.000 A 
ATOM     27  C   UNL     1      45.773   5.767  10.572  0.00  0.00    +0.000 A 
ATOM     28  C   UNL     1      46.642   6.520  11.375  0.00  0.00    +0.000 A 
BRANCH  26  29
ATOM     29  C   UNL     1      44.256   3.757  10.251  0.00  0.00    +0.000 C 
BRANCH  29  30
ATOM     30  C   UNL     1      44.331   4.118   8.756  0.00  0.00    +0.000 C 
BRANCH  30  31
ATOM     31  N   UNL     1      45.075   3.132   7.951  0.00  0.00    +0.000 NA
ATOM     32  C   UNL     1      46.226   3.742   7.268  0.00  0.00    +0.000 C 
ATOM     33  C   UNL     1      46.964   2.714   6.411  0.00  0.00    +0.000 C 
ATOM     34  C   UNL     1      47.417   1.527   7.248  0.00  0.00    +0.000 C 
ATOM     35  C   UNL     1      46.238   0.945   8.018  0.00  0.00    +0.000 C 
ATOM     36  C   UNL     1      45.515   2.026   8.821  0.00  0.00    +0.000 C 
ENDBRANCH  30  31
ENDBRANCH  29  30
ENDBRANCH  26  29
ENDBRANCH  21  23
ENDBRANCH   2  21
TORSDOF 9
ENDMDL
