MODEL 1
REMARK VINA RESULT:    -9.637      0.000      0.000
REMARK INTER + INTRA:         -13.755
REMARK INTER:                 -12.736
REMARK INTRA:                  -1.019
REMARK UNBOUND:                -1.019
REMARK  Name = 
REMARK  6 active torsions:
REMARK  status: ('A' for Active; 'I' for Inactive)
REMARK    1  A    between atoms: C_2  and  C_4
REMARK    2  A    between atoms: N_8  and  C_9
REMARK    3  A    between atoms: C_9  and  C_10
REMARK    4  A    between atoms: C_10  and  O_11
REMARK    5  A    between atoms: C_10  and  C_12
REMARK    6  A    between atoms: C_17  and  C_18
REMARK                            x       y       z     vdW  Elec       q    Type
REMARK                         _______ _______ _______ _____ _____    ______ ____
ROOT
ATOM      1  C   UNL     1      43.399   5.641  12.158  0.00  0.00    +0.000 C 
ENDROOT
BRANCH   1   2
ATOM      2  C   UNL     1      44.851   5.619  12.597  0.00  0.00    +0.000 A 
ATOM      3  C   UNL     1      45.379   4.588  13.370  0.00  0.00    +0.000 A 
ATOM      4  C   UNL     1      46.722   4.602  13.740  0.00  0.00    +0.000 A 
ATOM      5  F   UNL     1      47.215   3.611  14.493  0.00  0.00    +0.000 F 
ATOM      6  C   UNL     1      47.556   5.639  13.353  0.00  0.00    +0.000 A 
ATOM      7  C   UNL     1      47.066   6.698  12.581  0.00  0.00    +0.000 A 
ATOM      8  C   UNL     1      45.710   6.654  12.191  0.00  0.00    +0.000 A 
BRANCH   7   9
ATOM      9  C   UNL     1      47.914   7.855  12.241  0.00  0.00    +0.000 A 
ATOM     10  C   UNL     1      49.268   7.692  11.909  0.00  0.00    +0.000 A 
ATOM     11  C   UNL     1      50.043   8.769  11.482  0.00  0.00    +0.000 A 
ATOM     12  C   UNL     1      49.476  10.035  11.386  0.00  0.00    +0.000 A 
ATOM     13  C   UNL     1      48.147  10.234  11.742  0.00  0.00    +0.000 A 
ATOM     14  C   UNL     1      47.375   9.155  12.176  0.00  0.00    +0.000 A 
ENDBRANCH   7   9
ENDBRANCH   1   2
BRANCH   1  15
ATOM     15  O   UNL     1      42.555   5.336  13.272  0.00  0.00    +0.000 OA
ATOM     16  H   UNL     1      42.411   4.375  13.279  0.00  0.00    +0.000 HD
ENDBRANCH   1  15
BRANCH   1  17
ATOM     17  C   UNL     1      43.179   4.666  10.983  0.00  0.00    +0.000 C 
BRANCH  17  22
ATOM     18  C   UNL     1      46.422   2.357   7.779  0.00  0.00    +0.000 A 
ATOM     19  C   UNL     1      45.754   1.899   8.906  0.00  0.00    +0.000 A 
ATOM     20  C   UNL     1      44.938   2.779   9.610  0.00  0.00    +0.000 A 
ATOM     21  C   UNL     1      44.802   4.100   9.189  0.00  0.00    +0.000 A 
ATOM     22  N   UNL     1      43.982   4.998   9.823  0.00  0.00    +0.000 N 
ATOM     23  N   UNL     1      45.470   4.560   8.112  0.00  0.00    +0.000 NA
ATOM     24  C   UNL     1      46.269   3.690   7.435  0.00  0.00    +0.000 A 
ATOM     25  H   UNL     1      44.027   5.947   9.467  0.00  0.00    +0.000 HD
BRANCH  18  27
ATOM     26  N   UNL     1      48.447   2.008   6.505  0.00  0.00    +0.000 N 
ATOM     27  C   UNL     1      47.274   1.473   6.962  0.00  0.00    +0.000 C 
ATOM     28  O   UNL     1      46.964   0.313   6.732  0.00  0.00    +0.000 OA
ATOM     29  H   UNL     1      49.082   1.374   6.035  0.00  0.00    +0.000 HD
ATOM     30  H   UNL     1      48.838   2.857   6.888  0.00  0.00    +0.000 HD
ENDBRANCH  18  27
ENDBRANCH  17  22
ENDBRANCH   1  17
TORSDOF 6
ENDMDL
MODEL 2
REMARK VINA RESULT:    -8.905      2.299      3.883
REMARK INTER + INTRA:         -12.786
REMARK INTER:                 -11.756
REMARK INTRA:                  -1.031
REMARK UNBOUND:                -1.019
REMARK  Name = 
REMARK  6 active torsions:
REMARK  status: ('A' for Active; 'I' for Inactive)
REMARK    1  A    between atoms: C_2  and  C_4
REMARK    2  A    between atoms: N_8  and  C_9
REMARK    3  A    between atoms: C_9  and  C_10
REMARK    4  A    between atoms: C_10  and  O_11
REMARK    5  A    between atoms: C_10  and  C_12
REMARK    6  A    between atoms: C_17  and  C_18
REMARK                            x       y       z     vdW  Elec       q    Type
REMARK                         _______ _______ _______ _____ _____    ______ ____
ROOT
ATOM      1  C   UNL     1      43.672   4.416  12.528  0.00  0.00    +0.000 C 
ENDROOT
BRANCH   1   2
ATOM      2  C   UNL     1      45.056   4.982  12.783  0.00  0.00    +0.000 A 
ATOM      3  C   UNL     1      45.701   5.812  11.870  0.00  0.00    +0.000 A 
ATOM      4  C   UNL     1      46.968   6.319  12.151  0.00  0.00    +0.000 A 
ATOM      5  F   UNL     1      47.583   7.107  11.260  0.00  0.00    +0.000 F 
ATOM      6  C   UNL     1      47.613   6.005  13.337  0.00  0.00    +0.000 A 
ATOM      7  C   UNL     1      47.004   5.171  14.281  0.00  0.00    +0.000 A 
ATOM      8  C   UNL     1      45.709   4.688  13.993  0.00  0.00    +0.000 A 
BRANCH   7   9
ATOM      9  C   UNL     1      47.713   4.750  15.503  0.00  0.00    +0.000 A 
ATOM     10  C   UNL     1      48.461   5.665  16.261  0.00  0.00    +0.000 A 
ATOM     11  C   UNL     1      49.041   5.297  17.473  0.00  0.00    +0.000 A 
ATOM     12  C   UNL     1      48.888   3.998  17.948  0.00  0.00    +0.000 A 
ATOM     13  C   UNL     1      48.183   3.061  17.203  0.00  0.00    +0.000 A 
ATOM     14  C   UNL     1      47.608   3.431  15.985  0.00  0.00    +0.000 A 
ENDBRANCH   7   9
ENDBRANCH   1   2
BRANCH   1  15
ATOM     15  O   UNL     1      43.526   3.171  13.216  0.00  0.00    +0.000 OA
ATOM     16  H   UNL     1      44.417   2.845  13.430  0.00  0.00    +0.000 HD
ENDBRANCH   1  15
BRANCH   1  17
ATOM     17  C   UNL     1      43.424   4.269  11.012  0.00  0.00    +0.000 C 
BRANCH  17  22
ATOM     18  C   UNL     1      46.571   2.593   7.352  0.00  0.00    +0.000 A 
ATOM     19  C   UNL     1      46.166   3.872   7.707  0.00  0.00    +0.000 A 
ATOM     20  C   UNL     1      45.261   4.027   8.752  0.00  0.00    +0.000 A 
ATOM     21  C   UNL     1      44.769   2.910   9.425  0.00  0.00    +0.000 A 
ATOM     22  N   UNL     1      43.905   3.007  10.486  0.00  0.00    +0.000 N 
ATOM     23  N   UNL     1      45.136   1.663   9.067  0.00  0.00    +0.000 NA
ATOM     24  C   UNL     1      46.018   1.525   8.040  0.00  0.00    +0.000 A 
ATOM     25  H   UNL     1      43.560   2.122  10.842  0.00  0.00    +0.000 HD
BRANCH  18  27
ATOM     26  N   UNL     1      47.423   3.115   5.150  0.00  0.00    +0.000 N 
ATOM     27  C   UNL     1      47.555   2.355   6.279  0.00  0.00    +0.000 C 
ATOM     28  O   UNL     1      48.461   1.543   6.405  0.00  0.00    +0.000 OA
ATOM     29  H   UNL     1      48.156   3.030   4.457  0.00  0.00    +0.000 HD
ATOM     30  H   UNL     1      46.856   3.951   5.126  0.00  0.00    +0.000 HD
ENDBRANCH  18  27
ENDBRANCH  17  22
ENDBRANCH   1  17
TORSDOF 6
ENDMDL
MODEL 3
REMARK VINA RESULT:    -8.682      1.894      2.468
REMARK INTER + INTRA:         -12.492
REMARK INTER:                 -11.887
REMARK INTRA:                  -0.605
REMARK UNBOUND:                -1.019
REMARK  Name = 
REMARK  6 active torsions:
REMARK  status: ('A' for Active; 'I' for Inactive)
REMARK    1  A    between atoms: C_2  and  C_4
REMARK    2  A    between atoms: N_8  and  C_9
REMARK    3  A    between atoms: C_9  and  C_10
REMARK    4  A    between atoms: C_10  and  O_11
REMARK    5  A    between atoms: C_10  and  C_12
REMARK    6  A    between atoms: C_17  and  C_18
REMARK                            x       y       z     vdW  Elec       q    Type
REMARK                         _______ _______ _______ _____ _____    ______ ____
ROOT
ATOM      1  C   UNL     1      43.798   4.571  12.405  0.00  0.00    +0.000 C 
ENDROOT
BRANCH   1   2
ATOM      2  C   UNL     1      44.891   5.622  12.354  0.00  0.00    +0.000 A 
ATOM      3  C   UNL     1      46.225   5.322  12.621  0.00  0.00    +0.000 A 
ATOM      4  C   UNL     1      47.198   6.317  12.550  0.00  0.00    +0.000 A 
ATOM      5  F   UNL     1      48.475   6.018  12.820  0.00  0.00    +0.000 F 
ATOM      6  C   UNL     1      46.861   7.620  12.219  0.00  0.00    +0.000 A 
ATOM      7  C   UNL     1      45.533   7.966  11.947  0.00  0.00    +0.000 A 
ATOM      8  C   UNL     1      44.563   6.941  11.997  0.00  0.00    +0.000 A 
BRANCH   7   9
ATOM      9  C   UNL     1      45.144   9.364  11.687  0.00  0.00    +0.000 A 
ATOM     10  C   UNL     1      46.011  10.428  11.984  0.00  0.00    +0.000 A 
ATOM     11  C   UNL     1      45.690  11.739  11.639  0.00  0.00    +0.000 A 
ATOM     12  C   UNL     1      44.489  12.013  10.994  0.00  0.00    +0.000 A 
ATOM     13  C   UNL     1      43.595  10.985  10.719  0.00  0.00    +0.000 A 
ATOM     14  C   UNL     1      43.915   9.672  11.071  0.00  0.00    +0.000 A 
ENDBRANCH   7   9
ENDBRANCH   1   2
BRANCH   1  15
ATOM     15  O   UNL     1      44.335   3.342  12.899  0.00  0.00    +0.000 OA
ATOM     16  H   UNL     1      45.224   3.234  12.521  0.00  0.00    +0.000 HD
ENDBRANCH   1  15
BRANCH   1  17
ATOM     17  C   UNL     1      43.152   4.401  11.014  0.00  0.00    +0.000 C 
BRANCH  17  22
ATOM     18  C   UNL     1      46.478   2.469   7.649  0.00  0.00    +0.000 A 
ATOM     19  C   UNL     1      45.757   1.879   8.679  0.00  0.00    +0.000 A 
ATOM     20  C   UNL     1      44.930   2.675   9.465  0.00  0.00    +0.000 A 
ATOM     21  C   UNL     1      44.835   4.044   9.221  0.00  0.00    +0.000 A 
ATOM     22  N   UNL     1      44.007   4.868   9.940  0.00  0.00    +0.000 N 
ATOM     23  N   UNL     1      45.554   4.628   8.242  0.00  0.00    +0.000 NA
ATOM     24  C   UNL     1      46.363   3.840   7.483  0.00  0.00    +0.000 A 
ATOM     25  H   UNL     1      44.083   5.854   9.718  0.00  0.00    +0.000 HD
BRANCH  18  27
ATOM     26  N   UNL     1      48.421   2.337   6.216  0.00  0.00    +0.000 N 
ATOM     27  C   UNL     1      47.346   1.683   6.753  0.00  0.00    +0.000 C 
ATOM     28  O   UNL     1      47.134   0.501   6.525  0.00  0.00    +0.000 OA
ATOM     29  H   UNL     1      49.076   1.775   5.686  0.00  0.00    +0.000 HD
ATOM     30  H   UNL     1      48.755   3.217   6.584  0.00  0.00    +0.000 HD
ENDBRANCH  18  27
ENDBRANCH  17  22
ENDBRANCH   1  17
TORSDOF 6
ENDMDL
MODEL 4
REMARK VINA RESULT:    -8.467      3.503      7.006
REMARK INTER + INTRA:         -12.208
REMARK INTER:                 -11.482
REMARK INTRA:                  -0.726
REMARK UNBOUND:                -1.019
REMARK  Name = 
REMARK  6 active torsions:
REMARK  status: ('A' for Active; 'I' for Inactive)
REMARK    1  A    between atoms: C_2  and  C_4
REMARK    2  A    between atoms: N_8  and  C_9
REMARK    3  A    between atoms: C_9  and  C_10
REMARK    4  A    between atoms: C_10  and  O_11
REMARK    5  A    between atoms: C_10  and  C_12
REMARK    6  A    between atoms: C_17  and  C_18
REMARK                            x       y       z     vdW  Elec       q    Type
REMARK                         _______ _______ _______ _____ _____    ______ ____
ROOT
ATOM      1  C   UNL     1      45.202   6.419  11.592  0.00  0.00    +0.000 C 
ENDROOT
BRANCH   1   2
ATOM      2  C   UNL     1      44.853   5.042  11.060  0.00  0.00    +0.000 A 
ATOM      3  C   UNL     1      43.943   4.205  11.701  0.00  0.00    +0.000 A 
ATOM      4  C   UNL     1      43.642   2.952  11.170  0.00  0.00    +0.000 A 
ATOM      5  F   UNL     1      42.775   2.152  11.802  0.00  0.00    +0.000 F 
ATOM      6  C   UNL     1      44.244   2.513  10.001  0.00  0.00    +0.000 A 
ATOM      7  C   UNL     1      45.167   3.319   9.327  0.00  0.00    +0.000 A 
ATOM      8  C   UNL     1      45.440   4.596   9.863  0.00  0.00    +0.000 A 
BRANCH   7   9
ATOM      9  C   UNL     1      45.886   2.829   8.136  0.00  0.00    +0.000 A 
ATOM     10  C   UNL     1      46.154   3.677   7.050  0.00  0.00    +0.000 A 
ATOM     11  C   UNL     1      46.927   3.248   5.972  0.00  0.00    +0.000 A 
ATOM     12  C   UNL     1      47.443   1.956   5.959  0.00  0.00    +0.000 A 
ATOM     13  C   UNL     1      47.165   1.084   7.005  0.00  0.00    +0.000 A 
ATOM     14  C   UNL     1      46.384   1.513   8.080  0.00  0.00    +0.000 A 
ENDBRANCH   7   9
ENDBRANCH   1   2
BRANCH   1  15
ATOM     15  O   UNL     1      44.507   7.416  10.839  0.00  0.00    +0.000 OA
ATOM     16  H   UNL     1      45.092   7.704  10.118  0.00  0.00    +0.000 HD
ENDBRANCH   1  15
BRANCH   1  17
ATOM     17  C   UNL     1      46.730   6.633  11.562  0.00  0.00    +0.000 C 
BRANCH  17  22
ATOM     18  C   UNL     1      47.742   4.020  15.835  0.00  0.00    +0.000 A 
ATOM     19  C   UNL     1      47.143   3.643  14.642  0.00  0.00    +0.000 A 
ATOM     20  C   UNL     1      46.973   4.595  13.642  0.00  0.00    +0.000 A 
ATOM     21  C   UNL     1      47.395   5.907  13.844  0.00  0.00    +0.000 A 
ATOM     22  N   UNL     1      47.286   6.876  12.879  0.00  0.00    +0.000 N 
ATOM     23  N   UNL     1      47.951   6.289  15.011  0.00  0.00    +0.000 NA
ATOM     24  C   UNL     1      48.108   5.349  15.983  0.00  0.00    +0.000 A 
ATOM     25  H   UNL     1      47.559   7.808  13.172  0.00  0.00    +0.000 HD
BRANCH  18  27
ATOM     26  N   UNL     1      46.914   2.734  17.708  0.00  0.00    +0.000 N 
ATOM     27  C   UNL     1      47.989   3.058  16.925  0.00  0.00    +0.000 C 
ATOM     28  O   UNL     1      49.087   2.551  17.101  0.00  0.00    +0.000 OA
ATOM     29  H   UNL     1      47.054   1.997  18.388  0.00  0.00    +0.000 HD
ATOM     30  H   UNL     1      45.964   2.935  17.429  0.00  0.00    +0.000 HD
ENDBRANCH  18  27
ENDBRANCH  17  22
ENDBRANCH   1  17
TORSDOF 6
ENDMDL
MODEL 5
REMARK VINA RESULT:    -8.107      4.234      7.850
REMARK INTER + INTRA:         -11.733
REMARK INTER:                 -10.972
REMARK INTRA:                  -0.761
REMARK UNBOUND:                -1.019
REMARK  Name = 
REMARK  6 active torsions:
REMARK  status: ('A' for Active; 'I' for Inactive)
REMARK    1  A    between atoms: C_2  and  C_4
REMARK    2  A    between atoms: N_8  and  C_9
REMARK    3  A    between atoms: C_9  and  C_10
REMARK    4  A    between atoms: C_10  and  O_11
REMARK    5  A    between atoms: C_10  and  C_12
REMARK    6  A    between atoms: C_17  and  C_18
REMARK                            x       y       z     vdW  Elec       q    Type
REMARK                         _______ _______ _______ _____ _____    ______ ____
ROOT
ATOM      1  C   UNL     1      46.316   7.135  12.649  0.00  0.00    +0.000 C 
ENDROOT
BRANCH   1   2
ATOM      2  C   UNL     1      45.341   6.277  11.865  0.00  0.00    +0.000 A 
ATOM      3  C   UNL     1      43.977   6.255  12.144  0.00  0.00    +0.000 A 
ATOM      4  C   UNL     1      43.115   5.461  11.390  0.00  0.00    +0.000 A 
ATOM      5  F   UNL     1      41.808   5.440  11.676  0.00  0.00    +0.000 F 
ATOM      6  C   UNL     1      43.597   4.674  10.356  0.00  0.00    +0.000 A 
ATOM      7  C   UNL     1      44.960   4.661  10.044  0.00  0.00    +0.000 A 
ATOM      8  C   UNL     1      45.815   5.493  10.799  0.00  0.00    +0.000 A 
BRANCH   7   9
ATOM      9  C   UNL     1      45.501   3.760   9.010  0.00  0.00    +0.000 A 
ATOM     10  C   UNL     1      46.187   4.263   7.893  0.00  0.00    +0.000 A 
ATOM     11  C   UNL     1      46.794   3.411   6.973  0.00  0.00    +0.000 A 
ATOM     12  C   UNL     1      46.719   2.033   7.150  0.00  0.00    +0.000 A 
ATOM     13  C   UNL     1      46.017   1.506   8.227  0.00  0.00    +0.000 A 
ATOM     14  C   UNL     1      45.404   2.361   9.144  0.00  0.00    +0.000 A 
ENDBRANCH   7   9
ENDBRANCH   1   2
BRANCH   1  15
ATOM     15  O   UNL     1      46.814   8.183  11.812  0.00  0.00    +0.000 OA
ATOM     16  H   UNL     1      47.760   8.290  12.005  0.00  0.00    +0.000 HD
ENDBRANCH   1  15
BRANCH   1  17
ATOM     17  C   UNL     1      47.453   6.266  13.224  0.00  0.00    +0.000 C 
BRANCH  17  22
ATOM     18  C   UNL     1      48.241   4.568  17.979  0.00  0.00    +0.000 A 
ATOM     19  C   UNL     1      48.841   5.585  17.250  0.00  0.00    +0.000 A 
ATOM     20  C   UNL     1      48.431   5.809  15.940  0.00  0.00    +0.000 A 
ATOM     21  C   UNL     1      47.436   5.015  15.371  0.00  0.00    +0.000 A 
ATOM     22  N   UNL     1      46.967   5.216  14.098  0.00  0.00    +0.000 N 
ATOM     23  N   UNL     1      46.869   4.007  16.063  0.00  0.00    +0.000 NA
ATOM     24  C   UNL     1      47.283   3.796  17.343  0.00  0.00    +0.000 A 
ATOM     25  H   UNL     1      46.298   4.527  13.773  0.00  0.00    +0.000 HD
BRANCH  18  27
ATOM     26  N   UNL     1      48.367   3.028  19.839  0.00  0.00    +0.000 N 
ATOM     27  C   UNL     1      48.599   4.298  19.384  0.00  0.00    +0.000 C 
ATOM     28  O   UNL     1      49.104   5.153  20.096  0.00  0.00    +0.000 OA
ATOM     29  H   UNL     1      48.707   2.810  20.768  0.00  0.00    +0.000 HD
ATOM     30  H   UNL     1      48.196   2.254  19.213  0.00  0.00    +0.000 HD
ENDBRANCH  18  27
ENDBRANCH  17  22
ENDBRANCH   1  17
TORSDOF 6
ENDMDL
MODEL 6
REMARK VINA RESULT:    -7.141      3.470      6.891
REMARK INTER + INTRA:         -10.455
REMARK INTER:                  -9.680
REMARK INTRA:                  -0.775
REMARK UNBOUND:                -1.019
REMARK  Name = 
REMARK  6 active torsions:
REMARK  status: ('A' for Active; 'I' for Inactive)
REMARK    1  A    between atoms: C_2  and  C_4
REMARK    2  A    between atoms: N_8  and  C_9
REMARK    3  A    between atoms: C_9  and  C_10
REMARK    4  A    between atoms: C_10  and  O_11
REMARK    5  A    between atoms: C_10  and  C_12
REMARK    6  A    between atoms: C_17  and  C_18
REMARK                            x       y       z     vdW  Elec       q    Type
REMARK                         _______ _______ _______ _____ _____    ______ ____
ROOT
ATOM      1  C   UNL     1      44.982   5.934  12.320  0.00  0.00    +0.000 C 
ENDROOT
BRANCH   1   2
ATOM      2  C   UNL     1      44.697   4.645  11.573  0.00  0.00    +0.000 A 
ATOM      3  C   UNL     1      43.794   3.696  12.043  0.00  0.00    +0.000 A 
ATOM      4  C   UNL     1      43.553   2.531  11.318  0.00  0.00    +0.000 A 
ATOM      5  F   UNL     1      42.691   1.621  11.787  0.00  0.00    +0.000 F 
ATOM      6  C   UNL     1      44.210   2.291  10.121  0.00  0.00    +0.000 A 
ATOM      7  C   UNL     1      45.129   3.215   9.613  0.00  0.00    +0.000 A 
ATOM      8  C   UNL     1      45.340   4.403  10.347  0.00  0.00    +0.000 A 
BRANCH   7   9
ATOM      9  C   UNL     1      45.905   2.932   8.392  0.00  0.00    +0.000 A 
ATOM     10  C   UNL     1      46.363   1.637   8.106  0.00  0.00    +0.000 A 
ATOM     11  C   UNL     1      47.001   1.345   6.902  0.00  0.00    +0.000 A 
ATOM     12  C   UNL     1      47.199   2.351   5.960  0.00  0.00    +0.000 A 
ATOM     13  C   UNL     1      46.788   3.650   6.232  0.00  0.00    +0.000 A 
ATOM     14  C   UNL     1      46.155   3.941   7.441  0.00  0.00    +0.000 A 
ENDBRANCH   7   9
ENDBRANCH   1   2
BRANCH   1  15
ATOM     15  O   UNL     1      43.921   6.201  13.241  0.00  0.00    +0.000 OA
ATOM     16  H   UNL     1      43.560   5.347  13.533  0.00  0.00    +0.000 HD
ENDBRANCH   1  15
BRANCH   1  17
ATOM     17  C   UNL     1      45.189   7.096  11.326  0.00  0.00    +0.000 C 
BRANCH  17  22
ATOM     18  C   UNL     1      49.899   8.728  12.452  0.00  0.00    +0.000 A 
ATOM     19  C   UNL     1      49.441   7.542  11.896  0.00  0.00    +0.000 A 
ATOM     20  C   UNL     1      48.071   7.361  11.726  0.00  0.00    +0.000 A 
ATOM     21  C   UNL     1      47.179   8.358  12.116  0.00  0.00    +0.000 A 
ATOM     22  N   UNL     1      45.823   8.248  11.936  0.00  0.00    +0.000 N 
ATOM     23  N   UNL     1      47.615   9.500  12.683  0.00  0.00    +0.000 NA
ATOM     24  C   UNL     1      48.956   9.663  12.848  0.00  0.00    +0.000 A 
ATOM     25  H   UNL     1      45.275   9.006  12.329  0.00  0.00    +0.000 HD
BRANCH  18  27
ATOM     26  N   UNL     1      52.063   8.055  13.294  0.00  0.00    +0.000 N 
ATOM     27  C   UNL     1      51.337   9.004  12.628  0.00  0.00    +0.000 C 
ATOM     28  O   UNL     1      51.859  10.012  12.176  0.00  0.00    +0.000 OA
ATOM     29  H   UNL     1      53.067   8.191  13.325  0.00  0.00    +0.000 HD
ATOM     30  H   UNL     1      51.716   7.119  13.447  0.00  0.00    +0.000 HD
ENDBRANCH  18  27
ENDBRANCH  17  22
ENDBRANCH   1  17
TORSDOF 6
ENDMDL
MODEL 7
REMARK VINA RESULT:    -6.853      4.917      6.939
REMARK INTER + INTRA:         -10.075
REMARK INTER:                  -9.473
REMARK INTRA:                  -0.601
REMARK UNBOUND:                -1.019
REMARK  Name = 
REMARK  6 active torsions:
REMARK  status: ('A' for Active; 'I' for Inactive)
REMARK    1  A    between atoms: C_2  and  C_4
REMARK    2  A    between atoms: N_8  and  C_9
REMARK    3  A    between atoms: C_9  and  C_10
REMARK    4  A    between atoms: C_10  and  O_11
REMARK    5  A    between atoms: C_10  and  C_12
REMARK    6  A    between atoms: C_17  and  C_18
REMARK                            x       y       z     vdW  Elec       q    Type
REMARK                         _______ _______ _______ _____ _____    ______ ____
ROOT
ATOM      1  C   UNL     1      48.815   7.599  15.896  0.00  0.00    +0.000 C 
ENDROOT
BRANCH   1   2
ATOM      2  C   UNL     1      48.902   6.586  17.022  0.00  0.00    +0.000 A 
ATOM      3  C   UNL     1      48.099   6.663  18.157  0.00  0.00    +0.000 A 
ATOM      4  C   UNL     1      48.204   5.702  19.161  0.00  0.00    +0.000 A 
ATOM      5  F   UNL     1      47.434   5.794  20.252  0.00  0.00    +0.000 F 
ATOM      6  C   UNL     1      49.110   4.659  19.055  0.00  0.00    +0.000 A 
ATOM      7  C   UNL     1      49.940   4.546  17.935  0.00  0.00    +0.000 A 
ATOM      8  C   UNL     1      49.802   5.511  16.914  0.00  0.00    +0.000 A 
BRANCH   7   9
ATOM      9  C   UNL     1      50.974   3.498  17.849  0.00  0.00    +0.000 A 
ATOM     10  C   UNL     1      52.272   3.716  18.337  0.00  0.00    +0.000 A 
ATOM     11  C   UNL     1      53.218   2.693  18.358  0.00  0.00    +0.000 A 
ATOM     12  C   UNL     1      52.883   1.430  17.883  0.00  0.00    +0.000 A 
ATOM     13  C   UNL     1      51.617   1.194  17.361  0.00  0.00    +0.000 A 
ATOM     14  C   UNL     1      50.673   2.222  17.335  0.00  0.00    +0.000 A 
ENDBRANCH   7   9
ENDBRANCH   1   2
BRANCH   1  15
ATOM     15  O   UNL     1      47.796   8.559  16.190  0.00  0.00    +0.000 OA
ATOM     16  H   UNL     1      47.382   8.817  15.350  0.00  0.00    +0.000 HD
ENDBRANCH   1  15
BRANCH   1  17
ATOM     17  C   UNL     1      48.565   6.886  14.551  0.00  0.00    +0.000 C 
BRANCH  17  22
ATOM     18  C   UNL     1      45.026   4.699  11.584  0.00  0.00    +0.000 A 
ATOM     19  C   UNL     1      45.907   5.745  11.351  0.00  0.00    +0.000 A 
ATOM     20  C   UNL     1      46.757   6.151  12.376  0.00  0.00    +0.000 A 
ATOM     21  C   UNL     1      46.714   5.516  13.615  0.00  0.00    +0.000 A 
ATOM     22  N   UNL     1      47.555   5.850  14.647  0.00  0.00    +0.000 N 
ATOM     23  N   UNL     1      45.841   4.519  13.857  0.00  0.00    +0.000 NA
ATOM     24  C   UNL     1      45.012   4.134  12.849  0.00  0.00    +0.000 A 
ATOM     25  H   UNL     1      47.375   5.368  15.521  0.00  0.00    +0.000 HD
BRANCH  18  27
ATOM     26  N   UNL     1      44.331   4.664   9.268  0.00  0.00    +0.000 N 
ATOM     27  C   UNL     1      44.122   4.191  10.534  0.00  0.00    +0.000 C 
ATOM     28  O   UNL     1      43.252   3.368  10.777  0.00  0.00    +0.000 OA
ATOM     29  H   UNL     1      43.784   4.239   8.529  0.00  0.00    +0.000 HD
ATOM     30  H   UNL     1      45.185   5.134   9.002  0.00  0.00    +0.000 HD
ENDBRANCH  18  27
ENDBRANCH  17  22
ENDBRANCH   1  17
TORSDOF 6
ENDMDL
MODEL 8
REMARK VINA RESULT:    -6.848      4.222      6.440
REMARK INTER + INTRA:         -10.068
REMARK INTER:                  -8.944
REMARK INTRA:                  -1.124
REMARK UNBOUND:                -1.019
REMARK  Name = 
REMARK  6 active torsions:
REMARK  status: ('A' for Active; 'I' for Inactive)
REMARK    1  A    between atoms: C_2  and  C_4
REMARK    2  A    between atoms: N_8  and  C_9
REMARK    3  A    between atoms: C_9  and  C_10
REMARK    4  A    between atoms: C_10  and  O_11
REMARK    5  A    between atoms: C_10  and  C_12
REMARK    6  A    between atoms: C_17  and  C_18
REMARK                            x       y       z     vdW  Elec       q    Type
REMARK                         _______ _______ _______ _____ _____    ______ ____
ROOT
ATOM      1  C   UNL     1      48.400   8.499  14.653  0.00  0.00    +0.000 C 
ENDROOT
BRANCH   1   2
ATOM      2  C   UNL     1      48.597   7.854  16.011  0.00  0.00    +0.000 A 
ATOM      3  C   UNL     1      48.402   8.549  17.202  0.00  0.00    +0.000 A 
ATOM      4  C   UNL     1      48.582   7.912  18.428  0.00  0.00    +0.000 A 
ATOM      5  F   UNL     1      48.403   8.595  19.565  0.00  0.00    +0.000 F 
ATOM      6  C   UNL     1      48.964   6.581  18.488  0.00  0.00    +0.000 A 
ATOM      7  C   UNL     1      49.175   5.846  17.318  0.00  0.00    +0.000 A 
ATOM      8  C   UNL     1      48.962   6.498  16.084  0.00  0.00    +0.000 A 
BRANCH   7   9
ATOM      9  C   UNL     1      49.673   4.458  17.363  0.00  0.00    +0.000 A 
ATOM     10  C   UNL     1      48.855   3.380  16.991  0.00  0.00    +0.000 A 
ATOM     11  C   UNL     1      49.355   2.081  16.928  0.00  0.00    +0.000 A 
ATOM     12  C   UNL     1      50.687   1.835  17.245  0.00  0.00    +0.000 A 
ATOM     13  C   UNL     1      51.511   2.877  17.652  0.00  0.00    +0.000 A 
ATOM     14  C   UNL     1      51.006   4.177  17.720  0.00  0.00    +0.000 A 
ENDBRANCH   7   9
ENDBRANCH   1   2
BRANCH   1  15
ATOM     15  O   UNL     1      47.059   8.983  14.540  0.00  0.00    +0.000 OA
ATOM     16  H   UNL     1      46.507   8.251  14.217  0.00  0.00    +0.000 HD
ENDBRANCH   1  15
BRANCH   1  17
ATOM     17  C   UNL     1      48.750   7.501  13.529  0.00  0.00    +0.000 C 
BRANCH  17  22
ATOM     18  C   UNL     1      44.999   4.414  11.944  0.00  0.00    +0.000 A 
ATOM     19  C   UNL     1      45.935   4.284  12.961  0.00  0.00    +0.000 A 
ATOM     20  C   UNL     1      46.871   5.295  13.149  0.00  0.00    +0.000 A 
ATOM     21  C   UNL     1      46.868   6.416  12.321  0.00  0.00    +0.000 A 
ATOM     22  N   UNL     1      47.744   7.459  12.486  0.00  0.00    +0.000 N 
ATOM     23  N   UNL     1      45.981   6.536  11.314  0.00  0.00    +0.000 NA
ATOM     24  C   UNL     1      45.073   5.538  11.138  0.00  0.00    +0.000 A 
ATOM     25  H   UNL     1      47.691   8.181  11.775  0.00  0.00    +0.000 HD
BRANCH  18  27
ATOM     26  N   UNL     1      43.890   2.370  12.608  0.00  0.00    +0.000 N 
ATOM     27  C   UNL     1      43.953   3.400  11.710  0.00  0.00    +0.000 C 
ATOM     28  O   UNL     1      43.164   3.491  10.781  0.00  0.00    +0.000 OA
ATOM     29  H   UNL     1      43.110   1.731  12.511  0.00  0.00    +0.000 HD
ATOM     30  H   UNL     1      44.351   2.409  13.506  0.00  0.00    +0.000 HD
ENDBRANCH  18  27
ENDBRANCH  17  22
ENDBRANCH   1  17
TORSDOF 6
ENDMDL
MODEL 9
REMARK VINA RESULT:    -6.780      5.203      8.575
REMARK INTER + INTRA:          -9.979
REMARK INTER:                  -9.228
REMARK INTRA:                  -0.751
REMARK UNBOUND:                -1.019
REMARK  Name = 
REMARK  6 active torsions:
REMARK  status: ('A' for Active; 'I' for Inactive)
REMARK    1  A    between atoms: C_2  and  C_4
REMARK    2  A    between atoms: N_8  and  C_9
REMARK    3  A    between atoms: C_9  and  C_10
REMARK    4  A    between atoms: C_10  and  O_11
REMARK    5  A    between atoms: C_10  and  C_12
REMARK    6  A    between atoms: C_17  and  C_18
REMARK                            x       y       z     vdW  Elec       q    Type
REMARK                         _______ _______ _______ _____ _____    ______ ____
ROOT
ATOM      1  C   UNL     1      48.724   7.630  13.303  0.00  0.00    +0.000 C 
ENDROOT
BRANCH   1   2
ATOM      2  C   UNL     1      47.353   7.648  12.656  0.00  0.00    +0.000 A 
ATOM      3  C   UNL     1      46.496   8.742  12.755  0.00  0.00    +0.000 A 
ATOM      4  C   UNL     1      45.250   8.719  12.134  0.00  0.00    +0.000 A 
ATOM      5  F   UNL     1      44.431   9.773  12.246  0.00  0.00    +0.000 F 
ATOM      6  C   UNL     1      44.835   7.612  11.412  0.00  0.00    +0.000 A 
ATOM      7  C   UNL     1      45.661   6.489  11.289  0.00  0.00    +0.000 A 
ATOM      8  C   UNL     1      46.932   6.539  11.902  0.00  0.00    +0.000 A 
BRANCH   7   9
ATOM      9  C   UNL     1      45.197   5.267  10.606  0.00  0.00    +0.000 A 
ATOM     10  C   UNL     1      45.468   5.048   9.246  0.00  0.00    +0.000 A 
ATOM     11  C   UNL     1      45.127   3.848   8.626  0.00  0.00    +0.000 A 
ATOM     12  C   UNL     1      44.502   2.843   9.356  0.00  0.00    +0.000 A 
ATOM     13  C   UNL     1      44.190   3.045  10.695  0.00  0.00    +0.000 A 
ATOM     14  C   UNL     1      44.526   4.251  11.313  0.00  0.00    +0.000 A 
ENDBRANCH   7   9
ENDBRANCH   1   2
BRANCH   1  15
ATOM     15  O   UNL     1      49.458   6.491  12.845  0.00  0.00    +0.000 OA
ATOM     16  H   UNL     1      48.828   5.883  12.423  0.00  0.00    +0.000 HD
ENDBRANCH   1  15
BRANCH   1  17
ATOM     17  C   UNL     1      48.592   7.651  14.840  0.00  0.00    +0.000 C 
BRANCH  17  22
ATOM     18  C   UNL     1      49.099   5.132  19.258  0.00  0.00    +0.000 A 
ATOM     19  C   UNL     1      49.513   6.396  18.863  0.00  0.00    +0.000 A 
ATOM     20  C   UNL     1      49.252   6.815  17.562  0.00  0.00    +0.000 A 
ATOM     21  C   UNL     1      48.590   5.972  16.673  0.00  0.00    +0.000 A 
ATOM     22  N   UNL     1      48.274   6.348  15.392  0.00  0.00    +0.000 N 
ATOM     23  N   UNL     1      48.210   4.732  17.040  0.00  0.00    +0.000 NA
ATOM     24  C   UNL     1      48.475   4.332  18.314  0.00  0.00    +0.000 A 
ATOM     25  H   UNL     1      47.860   5.620  14.819  0.00  0.00    +0.000 HD
BRANCH  18  27
ATOM     26  N   UNL     1      50.601   4.591  21.073  0.00  0.00    +0.000 N 
ATOM     27  C   UNL     1      49.307   4.635  20.631  0.00  0.00    +0.000 C 
ATOM     28  O   UNL     1      48.372   4.309  21.347  0.00  0.00    +0.000 OA
ATOM     29  H   UNL     1      50.739   4.351  22.048  0.00  0.00    +0.000 HD
ATOM     30  H   UNL     1      51.348   5.085  20.606  0.00  0.00    +0.000 HD
ENDBRANCH  18  27
ENDBRANCH  17  22
ENDBRANCH   1  17
TORSDOF 6
ENDMDL
