MODEL 1
REMARK VINA RESULT:    -8.420      0.000      0.000
REMARK INTER + INTRA:         -12.375
REMARK INTER:                 -11.373
REMARK INTRA:                  -1.002
REMARK UNBOUND:                -1.002
REMARK  Name = 
REMARK  6 active torsions:
REMARK  status: ('A' for Active; 'I' for Inactive)
REMARK    1  A    between atoms: C_2  and  C_25
REMARK    2  A    between atoms: N_3  and  C_4
REMARK    3  A    between atoms: C_4  and  C_5
REMARK    4  A    between atoms: C_8  and  C_9
REMARK    5  A    between atoms: C_9  and  N_10
REMARK    6  A    between atoms: C_11  and  C_13
REMARK                            x       y       z     vdW  Elec       q    Type
REMARK                         _______ _______ _______ _____ _____    ______ ____
ROOT
ATOM      1  C   UNL     1      45.446   4.047  12.568  0.00  0.00    +0.000 A 
ATOM      2  C   UNL     1      45.337   5.418  12.646  0.00  0.00    +0.000 A 
ATOM      3  N   UNL     1      46.156   6.202  13.372  0.00  0.00    +0.000 NA
ATOM      4  C   UNL     1      47.148   5.579  14.041  0.00  0.00    +0.000 A 
ATOM      5  N   UNL     1      47.334   4.243  14.051  0.00  0.00    +0.000 NA
ATOM      6  C   UNL     1      46.483   3.509  13.301  0.00  0.00    +0.000 A 
ENDROOT
BRANCH   1   7
ATOM      7  C   UNL     1      44.519   3.224  11.742  0.00  0.00    +0.000 C 
BRANCH   7  10
ATOM      8  O   UNL     1      44.263   4.297   9.145  0.00  0.00    +0.000 OA
ATOM      9  C   UNL     1      44.982   3.317   9.319  0.00  0.00    +0.000 C 
ATOM     10  N   UNL     1      45.152   2.715  10.551  0.00  0.00    +0.000 N 
ATOM     11  H   UNL     1      45.745   1.891  10.568  0.00  0.00    +0.000 HD
BRANCH   9  12
ATOM     12  C   UNL     1      45.757   2.695   8.199  0.00  0.00    +0.000 A 
ATOM     13  C   UNL     1      46.005   3.434   7.049  0.00  0.00    +0.000 A 
ATOM     14  C   UNL     1      46.750   2.844   6.034  0.00  0.00    +0.000 A 
ATOM     15  C   UNL     1      47.220   1.547   6.205  0.00  0.00    +0.000 A 
ATOM     16  C   UNL     1      46.925   0.884   7.389  0.00  0.00    +0.000 A 
ATOM     17  N   UNL     1      46.202   1.421   8.400  0.00  0.00    +0.000 NA
ENDBRANCH   9  12
ENDBRANCH   7  10
ENDBRANCH   1   7
BRANCH   4  18
ATOM     18  C   UNL     1      48.098   6.455  14.828  0.00  0.00    +0.000 C 
BRANCH  18  19
ATOM     19  N   UNL     1      49.028   5.708  15.650  0.00  0.00    +0.000 N 
ATOM     20  C   UNL     1      49.134   5.977  16.991  0.00  0.00    +0.000 C 
ATOM     21  O   UNL     1      48.479   6.869  17.524  0.00  0.00    +0.000 OA
ATOM     22  H   UNL     1      49.337   4.811  15.287  0.00  0.00    +0.000 HD
BRANCH  20  23
ATOM     23  C   UNL     1      50.141   5.219  17.739  0.00  0.00    +0.000 A 
ATOM     24  C   UNL     1      51.020   5.867  18.596  0.00  0.00    +0.000 A 
ATOM     25  S   UNL     1      52.353   4.893  19.042  0.00  0.00    +0.000 S 
ATOM     26  C   UNL     1      51.730   3.562  18.183  0.00  0.00    +0.000 A 
ATOM     27  N   UNL     1      52.435   2.409  18.030  0.00  0.00    +0.000 NA
ATOM     28  C   UNL     1      51.791   1.469  17.422  0.00  0.00    +0.000 A 
ATOM     29  N   UNL     1      50.486   1.555  17.006  0.00  0.00    +0.000 N 
ATOM     30  C   UNL     1      49.734   2.693  17.158  0.00  0.00    +0.000 A 
ATOM     31  O   UNL     1      48.541   2.723  16.877  0.00  0.00    +0.000 OA
ATOM     32  C   UNL     1      50.460   3.818  17.704  0.00  0.00    +0.000 A 
ATOM     33  H   UNL     1      50.007   0.752  16.627  0.00  0.00    +0.000 HD
ENDBRANCH  20  23
ENDBRANCH  18  19
ENDBRANCH   4  18
TORSDOF 6
ENDMDL
MODEL 2
REMARK VINA RESULT:    -8.185      2.230      2.550
REMARK INTER + INTRA:         -12.057
REMARK INTER:                 -11.188
REMARK INTRA:                  -0.869
REMARK UNBOUND:                -1.002
REMARK  Name = 
REMARK  6 active torsions:
REMARK  status: ('A' for Active; 'I' for Inactive)
REMARK    1  A    between atoms: C_2  and  C_25
REMARK    2  A    between atoms: N_3  and  C_4
REMARK    3  A    between atoms: C_4  and  C_5
REMARK    4  A    between atoms: C_8  and  C_9
REMARK    5  A    between atoms: C_9  and  N_10
REMARK    6  A    between atoms: C_11  and  C_13
REMARK                            x       y       z     vdW  Elec       q    Type
REMARK                         _______ _______ _______ _____ _____    ______ ____
ROOT
ATOM      1  C   UNL     1      45.582   4.360  12.557  0.00  0.00    +0.000 A 
ATOM      2  C   UNL     1      45.472   5.725  12.413  0.00  0.00    +0.000 A 
ATOM      3  N   UNL     1      46.309   6.615  12.979  0.00  0.00    +0.000 NA
ATOM      4  C   UNL     1      47.320   6.108  13.712  0.00  0.00    +0.000 A 
ATOM      5  N   UNL     1      47.510   4.790  13.935  0.00  0.00    +0.000 NA
ATOM      6  C   UNL     1      46.640   3.946  13.339  0.00  0.00    +0.000 A 
ENDROOT
BRANCH   1   7
ATOM      7  C   UNL     1      44.635   3.415  11.902  0.00  0.00    +0.000 C 
BRANCH   7  10
ATOM      8  O   UNL     1      44.266   4.294   9.247  0.00  0.00    +0.000 OA
ATOM      9  C   UNL     1      44.975   3.314   9.460  0.00  0.00    +0.000 C 
ATOM     10  N   UNL     1      45.196   2.803  10.724  0.00  0.00    +0.000 N 
ATOM     11  H   UNL     1      45.775   1.970  10.774  0.00  0.00    +0.000 HD
BRANCH   9  12
ATOM     12  C   UNL     1      45.681   2.593   8.354  0.00  0.00    +0.000 A 
ATOM     13  C   UNL     1      45.994   3.276   7.184  0.00  0.00    +0.000 A 
ATOM     14  C   UNL     1      46.674   2.592   6.182  0.00  0.00    +0.000 A 
ATOM     15  C   UNL     1      47.016   1.260   6.385  0.00  0.00    +0.000 A 
ATOM     16  C   UNL     1      46.663   0.658   7.585  0.00  0.00    +0.000 A 
ATOM     17  N   UNL     1      46.001   1.287   8.584  0.00  0.00    +0.000 NA
ENDBRANCH   9  12
ENDBRANCH   7  10
ENDBRANCH   1   7
BRANCH   4  18
ATOM     18  C   UNL     1      48.290   7.097  14.319  0.00  0.00    +0.000 C 
BRANCH  18  19
ATOM     19  N   UNL     1      48.093   7.307  15.739  0.00  0.00    +0.000 N 
ATOM     20  C   UNL     1      48.927   6.708  16.648  0.00  0.00    +0.000 C 
ATOM     21  O   UNL     1      49.833   5.957  16.295  0.00  0.00    +0.000 OA
ATOM     22  H   UNL     1      47.556   8.128  16.007  0.00  0.00    +0.000 HD
BRANCH  20  23
ATOM     23  C   UNL     1      48.622   6.923  18.065  0.00  0.00    +0.000 A 
ATOM     24  C   UNL     1      48.462   8.207  18.566  0.00  0.00    +0.000 A 
ATOM     25  S   UNL     1      48.525   8.267  20.275  0.00  0.00    +0.000 S 
ATOM     26  C   UNL     1      48.664   6.573  20.377  0.00  0.00    +0.000 A 
ATOM     27  N   UNL     1      48.890   5.940  21.559  0.00  0.00    +0.000 NA
ATOM     28  C   UNL     1      48.889   4.650  21.478  0.00  0.00    +0.000 A 
ATOM     29  N   UNL     1      48.625   3.936  20.337  0.00  0.00    +0.000 N 
ATOM     30  C   UNL     1      48.374   4.537  19.129  0.00  0.00    +0.000 A 
ATOM     31  O   UNL     1      48.038   3.891  18.142  0.00  0.00    +0.000 OA
ATOM     32  C   UNL     1      48.506   5.977  19.141  0.00  0.00    +0.000 A 
ATOM     33  H   UNL     1      48.541   2.930  20.360  0.00  0.00    +0.000 HD
ENDBRANCH  20  23
ENDBRANCH  18  19
ENDBRANCH   4  18
TORSDOF 6
ENDMDL
MODEL 3
REMARK VINA RESULT:    -8.136      1.876      2.405
REMARK INTER + INTRA:         -11.991
REMARK INTER:                 -10.959
REMARK INTRA:                  -1.032
REMARK UNBOUND:                -1.002
REMARK  Name = 
REMARK  6 active torsions:
REMARK  status: ('A' for Active; 'I' for Inactive)
REMARK    1  A    between atoms: C_2  and  C_25
REMARK    2  A    between atoms: N_3  and  C_4
REMARK    3  A    between atoms: C_4  and  C_5
REMARK    4  A    between atoms: C_8  and  C_9
REMARK    5  A    between atoms: C_9  and  N_10
REMARK    6  A    between atoms: C_11  and  C_13
REMARK                            x       y       z     vdW  Elec       q    Type
REMARK                         _______ _______ _______ _____ _____    ______ ____
ROOT
ATOM      1  C   UNL     1      44.956   6.202  11.270  0.00  0.00    +0.000 A 
ATOM      2  C   UNL     1      46.073   5.731  11.923  0.00  0.00    +0.000 A 
ATOM      3  N   UNL     1      46.852   6.481  12.725  0.00  0.00    +0.000 NA
ATOM      4  C   UNL     1      46.480   7.766  12.894  0.00  0.00    +0.000 A 
ATOM      5  N   UNL     1      45.418   8.335  12.287  0.00  0.00    +0.000 NA
ATOM      6  C   UNL     1      44.672   7.532  11.497  0.00  0.00    +0.000 A 
ENDROOT
BRANCH   1   7
ATOM      7  C   UNL     1      44.120   5.328  10.400  0.00  0.00    +0.000 C 
BRANCH   7  10
ATOM      8  O   UNL     1      44.155   2.527  10.064  0.00  0.00    +0.000 OA
ATOM      9  C   UNL     1      44.847   3.226   9.329  0.00  0.00    +0.000 C 
ATOM     10  N   UNL     1      44.906   4.602   9.434  0.00  0.00    +0.000 N 
ATOM     11  H   UNL     1      45.539   5.072   8.792  0.00  0.00    +0.000 HD
BRANCH   9  12
ATOM     12  C   UNL     1      45.682   2.639   8.234  0.00  0.00    +0.000 A 
ATOM     13  C   UNL     1      45.971   3.405   7.110  0.00  0.00    +0.000 A 
ATOM     14  C   UNL     1      46.771   2.847   6.119  0.00  0.00    +0.000 A 
ATOM     15  C   UNL     1      47.253   1.553   6.287  0.00  0.00    +0.000 A 
ATOM     16  C   UNL     1      46.914   0.863   7.443  0.00  0.00    +0.000 A 
ATOM     17  N   UNL     1      46.137   1.368   8.430  0.00  0.00    +0.000 NA
ENDBRANCH   9  12
ENDBRANCH   7  10
ENDBRANCH   1   7
BRANCH   4  18
ATOM     18  C   UNL     1      47.326   8.607  13.825  0.00  0.00    +0.000 C 
BRANCH  18  19
ATOM     19  N   UNL     1      47.747   7.904  15.020  0.00  0.00    +0.000 N 
ATOM     20  C   UNL     1      49.028   7.426  15.123  0.00  0.00    +0.000 C 
ATOM     21  O   UNL     1      49.838   7.544  14.207  0.00  0.00    +0.000 OA
ATOM     22  H   UNL     1      47.196   8.062  15.859  0.00  0.00    +0.000 HD
BRANCH  20  23
ATOM     23  C   UNL     1      49.356   6.675  16.339  0.00  0.00    +0.000 A 
ATOM     24  C   UNL     1      50.207   7.213  17.294  0.00  0.00    +0.000 A 
ATOM     25  S   UNL     1      50.782   6.047  18.406  0.00  0.00    +0.000 S 
ATOM     26  C   UNL     1      49.827   4.829  17.696  0.00  0.00    +0.000 A 
ATOM     27  N   UNL     1      49.923   3.527  18.074  0.00  0.00    +0.000 NA
ATOM     28  C   UNL     1      49.074   2.742  17.496  0.00  0.00    +0.000 A 
ATOM     29  N   UNL     1      48.101   3.149  16.619  0.00  0.00    +0.000 N 
ATOM     30  C   UNL     1      47.959   4.457  16.225  0.00  0.00    +0.000 A 
ATOM     31  O   UNL     1      47.023   4.823  15.523  0.00  0.00    +0.000 OA
ATOM     32  C   UNL     1      48.978   5.346  16.737  0.00  0.00    +0.000 A 
ATOM     33  H   UNL     1      47.405   2.503  16.277  0.00  0.00    +0.000 HD
ENDBRANCH  20  23
ENDBRANCH  18  19
ENDBRANCH   4  18
TORSDOF 6
ENDMDL
MODEL 4
REMARK VINA RESULT:    -7.863      2.271      3.498
REMARK INTER + INTRA:         -11.623
REMARK INTER:                 -10.665
REMARK INTRA:                  -0.958
REMARK UNBOUND:                -1.002
REMARK  Name = 
REMARK  6 active torsions:
REMARK  status: ('A' for Active; 'I' for Inactive)
REMARK    1  A    between atoms: C_2  and  C_25
REMARK    2  A    between atoms: N_3  and  C_4
REMARK    3  A    between atoms: C_4  and  C_5
REMARK    4  A    between atoms: C_8  and  C_9
REMARK    5  A    between atoms: C_9  and  N_10
REMARK    6  A    between atoms: C_11  and  C_13
REMARK                            x       y       z     vdW  Elec       q    Type
REMARK                         _______ _______ _______ _____ _____    ______ ____
ROOT
ATOM      1  C   UNL     1      45.572   4.271  12.589  0.00  0.00    +0.000 A 
ATOM      2  C   UNL     1      45.460   5.643  12.529  0.00  0.00    +0.000 A 
ATOM      3  N   UNL     1      46.287   6.497  13.160  0.00  0.00    +0.000 NA
ATOM      4  C   UNL     1      47.291   5.947  13.873  0.00  0.00    +0.000 A 
ATOM      5  N   UNL     1      47.481   4.619  14.016  0.00  0.00    +0.000 NA
ATOM      6  C   UNL     1      46.621   3.811  13.357  0.00  0.00    +0.000 A 
ENDROOT
BRANCH   1   7
ATOM      7  C   UNL     1      44.635   3.367  11.865  0.00  0.00    +0.000 C 
BRANCH   7  10
ATOM      8  O   UNL     1      44.225   4.326   9.243  0.00  0.00    +0.000 OA
ATOM      9  C   UNL     1      44.973   3.368   9.420  0.00  0.00    +0.000 C 
ATOM     10  N   UNL     1      45.217   2.821  10.665  0.00  0.00    +0.000 N 
ATOM     11  H   UNL     1      45.829   2.010  10.684  0.00  0.00    +0.000 HD
BRANCH   9  12
ATOM     12  C   UNL     1      45.704   2.716   8.288  0.00  0.00    +0.000 A 
ATOM     13  C   UNL     1      45.974   3.449   7.138  0.00  0.00    +0.000 A 
ATOM     14  C   UNL     1      46.677   2.830   6.111  0.00  0.00    +0.000 A 
ATOM     15  C   UNL     1      47.086   1.510   6.270  0.00  0.00    +0.000 A 
ATOM     16  C   UNL     1      46.773   0.856   7.454  0.00  0.00    +0.000 A 
ATOM     17  N   UNL     1      46.089   1.421   8.477  0.00  0.00    +0.000 NA
ENDBRANCH   9  12
ENDBRANCH   7  10
ENDBRANCH   1   7
BRANCH   4  18
ATOM     18  C   UNL     1      48.250   6.899  14.552  0.00  0.00    +0.000 C 
BRANCH  18  19
ATOM     19  N   UNL     1      48.222   6.817  15.998  0.00  0.00    +0.000 N 
ATOM     20  C   UNL     1      49.298   6.309  16.682  0.00  0.00    +0.000 C 
ATOM     21  O   UNL     1      50.291   5.881  16.098  0.00  0.00    +0.000 OA
ATOM     22  H   UNL     1      47.557   7.419  16.476  0.00  0.00    +0.000 HD
BRANCH  20  23
ATOM     23  C   UNL     1      49.165   6.205  18.138  0.00  0.00    +0.000 A 
ATOM     24  C   UNL     1      49.468   5.019  18.792  0.00  0.00    +0.000 A 
ATOM     25  S   UNL     1      48.865   4.969  20.392  0.00  0.00    +0.000 S 
ATOM     26  C   UNL     1      48.283   6.564  20.273  0.00  0.00    +0.000 A 
ATOM     27  N   UNL     1      47.531   7.130  21.255  0.00  0.00    +0.000 NA
ATOM     28  C   UNL     1      47.236   8.371  21.048  0.00  0.00    +0.000 A 
ATOM     29  N   UNL     1      47.672   9.114  19.980  0.00  0.00    +0.000 N 
ATOM     30  C   UNL     1      48.447   8.585  18.978  0.00  0.00    +0.000 A 
ATOM     31  O   UNL     1      48.915   9.282  18.084  0.00  0.00    +0.000 OA
ATOM     32  C   UNL     1      48.682   7.163  19.095  0.00  0.00    +0.000 A 
ATOM     33  H   UNL     1      47.490  10.105  19.925  0.00  0.00    +0.000 HD
ENDBRANCH  20  23
ENDBRANCH  18  19
ENDBRANCH   4  18
TORSDOF 6
ENDMDL
MODEL 5
REMARK VINA RESULT:    -7.833      2.199      2.824
REMARK INTER + INTRA:         -11.582
REMARK INTER:                 -10.735
REMARK INTRA:                  -0.847
REMARK UNBOUND:                -1.002
REMARK  Name = 
REMARK  6 active torsions:
REMARK  status: ('A' for Active; 'I' for Inactive)
REMARK    1  A    between atoms: C_2  and  C_25
REMARK    2  A    between atoms: N_3  and  C_4
REMARK    3  A    between atoms: C_4  and  C_5
REMARK    4  A    between atoms: C_8  and  C_9
REMARK    5  A    between atoms: C_9  and  N_10
REMARK    6  A    between atoms: C_11  and  C_13
REMARK                            x       y       z     vdW  Elec       q    Type
REMARK                         _______ _______ _______ _____ _____    ______ ____
ROOT
ATOM      1  C   UNL     1      45.122   6.190  11.470  0.00  0.00    +0.000 A 
ATOM      2  C   UNL     1      46.379   5.918  11.963  0.00  0.00    +0.000 A 
ATOM      3  N   UNL     1      47.134   6.804  12.638  0.00  0.00    +0.000 NA
ATOM      4  C   UNL     1      46.593   8.021  12.846  0.00  0.00    +0.000 A 
ATOM      5  N   UNL     1      45.381   8.401  12.391  0.00  0.00    +0.000 NA
ATOM      6  C   UNL     1      44.667   7.468  11.722  0.00  0.00    +0.000 A 
ENDROOT
BRANCH   1   7
ATOM      7  C   UNL     1      44.321   5.171  10.735  0.00  0.00    +0.000 C 
BRANCH   7  10
ATOM      8  O   UNL     1      43.944   2.507   9.885  0.00  0.00    +0.000 OA
ATOM      9  C   UNL     1      44.826   3.183   9.362  0.00  0.00    +0.000 C 
ATOM     10  N   UNL     1      45.093   4.488   9.728  0.00  0.00    +0.000 N 
ATOM     11  H   UNL     1      45.868   4.937   9.247  0.00  0.00    +0.000 HD
BRANCH   9  12
ATOM     12  C   UNL     1      45.684   2.647   8.259  0.00  0.00    +0.000 A 
ATOM     13  C   UNL     1      45.995   3.464   7.178  0.00  0.00    +0.000 A 
ATOM     14  C   UNL     1      46.816   2.953   6.179  0.00  0.00    +0.000 A 
ATOM     15  C   UNL     1      47.296   1.653   6.297  0.00  0.00    +0.000 A 
ATOM     16  C   UNL     1      46.934   0.909   7.412  0.00  0.00    +0.000 A 
ATOM     17  N   UNL     1      46.136   1.368   8.405  0.00  0.00    +0.000 NA
ENDBRANCH   9  12
ENDBRANCH   7  10
ENDBRANCH   1   7
BRANCH   4  18
ATOM     18  C   UNL     1      47.417   9.011  13.639  0.00  0.00    +0.000 C 
BRANCH  18  19
ATOM     19  N   UNL     1      47.544   8.669  15.041  0.00  0.00    +0.000 N 
ATOM     20  C   UNL     1      48.731   8.187  15.530  0.00  0.00    +0.000 C 
ATOM     21  O   UNL     1      49.701   7.999  14.799  0.00  0.00    +0.000 OA
ATOM     22  H   UNL     1      46.868   9.088  15.675  0.00  0.00    +0.000 HD
BRANCH  20  23
ATOM     23  C   UNL     1      48.757   7.809  16.946  0.00  0.00    +0.000 A 
ATOM     24  C   UNL     1      48.719   8.779  17.937  0.00  0.00    +0.000 A 
ATOM     25  S   UNL     1      49.169   8.179  19.474  0.00  0.00    +0.000 S 
ATOM     26  C   UNL     1      49.323   6.597  18.864  0.00  0.00    +0.000 A 
ATOM     27  N   UNL     1      49.811   5.577  19.620  0.00  0.00    +0.000 NA
ATOM     28  C   UNL     1      49.788   4.425  19.037  0.00  0.00    +0.000 A 
ATOM     29  N   UNL     1      49.269   4.188  17.789  0.00  0.00    +0.000 N 
ATOM     30  C   UNL     1      48.752   5.185  17.001  0.00  0.00    +0.000 A 
ATOM     31  O   UNL     1      48.198   4.946  15.933  0.00  0.00    +0.000 OA
ATOM     32  C   UNL     1      48.887   6.514  17.556  0.00  0.00    +0.000 A 
ATOM     33  H   UNL     1      49.190   3.249  17.428  0.00  0.00    +0.000 HD
ENDBRANCH  20  23
ENDBRANCH  18  19
ENDBRANCH   4  18
TORSDOF 6
ENDMDL
MODEL 6
REMARK VINA RESULT:    -7.061      4.306      9.527
REMARK INTER + INTRA:         -10.539
REMARK INTER:                  -9.454
REMARK INTRA:                  -1.085
REMARK UNBOUND:                -1.002
REMARK  Name = 
REMARK  6 active torsions:
REMARK  status: ('A' for Active; 'I' for Inactive)
REMARK    1  A    between atoms: C_2  and  C_25
REMARK    2  A    between atoms: N_3  and  C_4
REMARK    3  A    between atoms: C_4  and  C_5
REMARK    4  A    between atoms: C_8  and  C_9
REMARK    5  A    between atoms: C_9  and  N_10
REMARK    6  A    between atoms: C_11  and  C_13
REMARK                            x       y       z     vdW  Elec       q    Type
REMARK                         _______ _______ _______ _____ _____    ______ ____
ROOT
ATOM      1  C   UNL     1      51.406   2.781  17.790  0.00  0.00    +0.000 A 
ATOM      2  C   UNL     1      50.640   1.924  17.031  0.00  0.00    +0.000 A 
ATOM      3  N   UNL     1      49.341   2.128  16.741  0.00  0.00    +0.000 NA
ATOM      4  C   UNL     1      48.787   3.259  17.222  0.00  0.00    +0.000 A 
ATOM      5  N   UNL     1      49.439   4.155  17.993  0.00  0.00    +0.000 NA
ATOM      6  C   UNL     1      50.741   3.899  18.247  0.00  0.00    +0.000 A 
ENDROOT
BRANCH   1   7
ATOM      7  C   UNL     1      52.844   2.515  18.076  0.00  0.00    +0.000 C 
BRANCH   7  10
ATOM      8  O   UNL     1      54.979   1.032  16.979  0.00  0.00    +0.000 OA
ATOM      9  C   UNL     1      54.191   0.475  17.738  0.00  0.00    +0.000 C 
ATOM     10  N   UNL     1      53.108   1.117  18.306  0.00  0.00    +0.000 N 
ATOM     11  H   UNL     1      52.507   0.545  18.893  0.00  0.00    +0.000 HD
BRANCH   9  12
ATOM     12  C   UNL     1      54.352  -0.962  18.129  0.00  0.00    +0.000 A 
ATOM     13  C   UNL     1      55.053  -1.822  17.292  0.00  0.00    +0.000 A 
ATOM     14  C   UNL     1      55.211  -3.145  17.689  0.00  0.00    +0.000 A 
ATOM     15  C   UNL     1      54.669  -3.557  18.902  0.00  0.00    +0.000 A 
ATOM     16  C   UNL     1      53.986  -2.628  19.674  0.00  0.00    +0.000 A 
ATOM     17  N   UNL     1      53.807  -1.333  19.323  0.00  0.00    +0.000 NA
ENDBRANCH   9  12
ENDBRANCH   7  10
ENDBRANCH   1   7
BRANCH   4  18
ATOM     18  C   UNL     1      47.339   3.518  16.869  0.00  0.00    +0.000 C 
BRANCH  18  19
ATOM     19  N   UNL     1      47.160   4.574  15.893  0.00  0.00    +0.000 N 
ATOM     20  C   UNL     1      47.088   4.274  14.557  0.00  0.00    +0.000 C 
ATOM     21  O   UNL     1      47.208   3.123  14.146  0.00  0.00    +0.000 OA
ATOM     22  H   UNL     1      46.778   5.451  16.237  0.00  0.00    +0.000 HD
BRANCH  20  23
ATOM     23  C   UNL     1      46.967   5.406  13.633  0.00  0.00    +0.000 A 
ATOM     24  C   UNL     1      45.812   5.585  12.884  0.00  0.00    +0.000 A 
ATOM     25  S   UNL     1      46.021   6.688  11.593  0.00  0.00    +0.000 S 
ATOM     26  C   UNL     1      47.620   7.021  12.073  0.00  0.00    +0.000 A 
ATOM     27  N   UNL     1      48.448   7.800  11.327  0.00  0.00    +0.000 NA
ATOM     28  C   UNL     1      49.600   8.021  11.869  0.00  0.00    +0.000 A 
ATOM     29  N   UNL     1      49.978   7.584  13.114  0.00  0.00    +0.000 N 
ATOM     30  C   UNL     1      49.166   6.811  13.905  0.00  0.00    +0.000 A 
ATOM     31  O   UNL     1      49.474   6.514  15.054  0.00  0.00    +0.000 OA
ATOM     32  C   UNL     1      47.922   6.419  13.279  0.00  0.00    +0.000 A 
ATOM     33  H   UNL     1      50.855   7.872  13.523  0.00  0.00    +0.000 HD
ENDBRANCH  20  23
ENDBRANCH  18  19
ENDBRANCH   4  18
TORSDOF 6
ENDMDL
MODEL 7
REMARK VINA RESULT:    -7.018      3.718      9.575
REMARK INTER + INTRA:         -10.482
REMARK INTER:                  -9.781
REMARK INTRA:                  -0.701
REMARK UNBOUND:                -1.002
REMARK  Name = 
REMARK  6 active torsions:
REMARK  status: ('A' for Active; 'I' for Inactive)
REMARK    1  A    between atoms: C_2  and  C_25
REMARK    2  A    between atoms: N_3  and  C_4
REMARK    3  A    between atoms: C_4  and  C_5
REMARK    4  A    between atoms: C_8  and  C_9
REMARK    5  A    between atoms: C_9  and  N_10
REMARK    6  A    between atoms: C_11  and  C_13
REMARK                            x       y       z     vdW  Elec       q    Type
REMARK                         _______ _______ _______ _____ _____    ______ ____
ROOT
ATOM      1  C   UNL     1      51.491   3.110  17.774  0.00  0.00    +0.000 A 
ATOM      2  C   UNL     1      50.713   2.185  17.112  0.00  0.00    +0.000 A 
ATOM      3  N   UNL     1      49.394   2.330  16.886  0.00  0.00    +0.000 NA
ATOM      4  C   UNL     1      48.829   3.471  17.330  0.00  0.00    +0.000 A 
ATOM      5  N   UNL     1      49.491   4.433  18.007  0.00  0.00    +0.000 NA
ATOM      6  C   UNL     1      50.813   4.233  18.201  0.00  0.00    +0.000 A 
ENDROOT
BRANCH   1   7
ATOM      7  C   UNL     1      52.950   2.908  17.991  0.00  0.00    +0.000 C 
BRANCH   7  10
ATOM      8  O   UNL     1      54.445   1.080  19.536  0.00  0.00    +0.000 OA
ATOM      9  C   UNL     1      54.109   0.767  18.396  0.00  0.00    +0.000 C 
ATOM     10  N   UNL     1      53.393   1.605  17.563  0.00  0.00    +0.000 N 
ATOM     11  H   UNL     1      53.201   1.250  16.631  0.00  0.00    +0.000 HD
BRANCH   9  12
ATOM     12  C   UNL     1      54.438  -0.573  17.814  0.00  0.00    +0.000 A 
ATOM     13  C   UNL     1      54.390  -1.700  18.627  0.00  0.00    +0.000 A 
ATOM     14  C   UNL     1      54.673  -2.936  18.057  0.00  0.00    +0.000 A 
ATOM     15  C   UNL     1      54.990  -3.002  16.704  0.00  0.00    +0.000 A 
ATOM     16  C   UNL     1      55.013  -1.824  15.970  0.00  0.00    +0.000 A 
ATOM     17  N   UNL     1      54.746  -0.601  16.486  0.00  0.00    +0.000 NA
ENDBRANCH   9  12
ENDBRANCH   7  10
ENDBRANCH   1   7
BRANCH   4  18
ATOM     18  C   UNL     1      47.356   3.661  17.046  0.00  0.00    +0.000 C 
BRANCH  18  19
ATOM     19  N   UNL     1      47.088   4.597  15.972  0.00  0.00    +0.000 N 
ATOM     20  C   UNL     1      47.080   4.169  14.669  0.00  0.00    +0.000 C 
ATOM     21  O   UNL     1      47.331   3.003  14.371  0.00  0.00    +0.000 OA
ATOM     22  H   UNL     1      46.607   5.455  16.227  0.00  0.00    +0.000 HD
BRANCH  20  23
ATOM     23  C   UNL     1      46.861   5.190  13.641  0.00  0.00    +0.000 A 
ATOM     24  C   UNL     1      47.776   6.218  13.460  0.00  0.00    +0.000 A 
ATOM     25  S   UNL     1      47.151   7.506  12.524  0.00  0.00    +0.000 S 
ATOM     26  C   UNL     1      45.692   6.670  12.259  0.00  0.00    +0.000 A 
ATOM     27  N   UNL     1      44.635   7.249  11.630  0.00  0.00    +0.000 NA
ATOM     28  C   UNL     1      43.633   6.457  11.437  0.00  0.00    +0.000 A 
ATOM     29  N   UNL     1      43.614   5.123  11.761  0.00  0.00    +0.000 N 
ATOM     30  C   UNL     1      44.667   4.497  12.380  0.00  0.00    +0.000 A 
ATOM     31  O   UNL     1      44.678   3.286  12.571  0.00  0.00    +0.000 OA
ATOM     32  C   UNL     1      45.753   5.379  12.745  0.00  0.00    +0.000 A 
ATOM     33  H   UNL     1      42.839   4.534  11.495  0.00  0.00    +0.000 HD
ENDBRANCH  20  23
ENDBRANCH  18  19
ENDBRANCH   4  18
TORSDOF 6
ENDMDL
MODEL 8
REMARK VINA RESULT:    -6.816      3.395      8.910
REMARK INTER + INTRA:         -10.209
REMARK INTER:                  -9.401
REMARK INTRA:                  -0.808
REMARK UNBOUND:                -1.002
REMARK  Name = 
REMARK  6 active torsions:
REMARK  status: ('A' for Active; 'I' for Inactive)
REMARK    1  A    between atoms: C_2  and  C_25
REMARK    2  A    between atoms: N_3  and  C_4
REMARK    3  A    between atoms: C_4  and  C_5
REMARK    4  A    between atoms: C_8  and  C_9
REMARK    5  A    between atoms: C_9  and  N_10
REMARK    6  A    between atoms: C_11  and  C_13
REMARK                            x       y       z     vdW  Elec       q    Type
REMARK                         _______ _______ _______ _____ _____    ______ ____
ROOT
ATOM      1  C   UNL     1      49.542   7.445  16.043  0.00  0.00    +0.000 A 
ATOM      2  C   UNL     1      49.695   8.662  15.414  0.00  0.00    +0.000 A 
ATOM      3  N   UNL     1      49.206   8.948  14.193  0.00  0.00    +0.000 NA
ATOM      4  C   UNL     1      48.511   7.970  13.578  0.00  0.00    +0.000 A 
ATOM      5  N   UNL     1      48.318   6.737  14.093  0.00  0.00    +0.000 NA
ATOM      6  C   UNL     1      48.829   6.509  15.323  0.00  0.00    +0.000 A 
ENDROOT
BRANCH   1   7
ATOM      7  C   UNL     1      50.094   7.180  17.401  0.00  0.00    +0.000 C 
BRANCH   7  10
ATOM      8  O   UNL     1      49.092   4.764  18.457  0.00  0.00    +0.000 OA
ATOM      9  C   UNL     1      50.228   4.787  17.989  0.00  0.00    +0.000 C 
ATOM     10  N   UNL     1      50.806   5.928  17.469  0.00  0.00    +0.000 N 
ATOM     11  H   UNL     1      51.762   5.835  17.139  0.00  0.00    +0.000 HD
BRANCH   9  12
ATOM     12  C   UNL     1      51.084   3.560  17.929  0.00  0.00    +0.000 A 
ATOM     13  C   UNL     1      50.552   2.381  17.422  0.00  0.00    +0.000 A 
ATOM     14  C   UNL     1      51.375   1.262  17.351  0.00  0.00    +0.000 A 
ATOM     15  C   UNL     1      52.692   1.363  17.785  0.00  0.00    +0.000 A 
ATOM     16  C   UNL     1      53.139   2.582  18.276  0.00  0.00    +0.000 A 
ATOM     17  N   UNL     1      52.370   3.693  18.364  0.00  0.00    +0.000 NA
ENDBRANCH   9  12
ENDBRANCH   7  10
ENDBRANCH   1   7
BRANCH   4  18
ATOM     18  C   UNL     1      47.923   8.295  12.223  0.00  0.00    +0.000 C 
BRANCH  18  19
ATOM     19  N   UNL     1      47.439   7.132  11.507  0.00  0.00    +0.000 N 
ATOM     20  C   UNL     1      46.108   6.803  11.545  0.00  0.00    +0.000 C 
ATOM     21  O   UNL     1      45.300   7.453  12.206  0.00  0.00    +0.000 OA
ATOM     22  H   UNL     1      48.025   6.786  10.752  0.00  0.00    +0.000 HD
BRANCH  20  23
ATOM     23  C   UNL     1      45.710   5.579  10.843  0.00  0.00    +0.000 A 
ATOM     24  C   UNL     1      45.849   5.478   9.466  0.00  0.00    +0.000 A 
ATOM     25  S   UNL     1      44.966   4.172   8.803  0.00  0.00    +0.000 S 
ATOM     26  C   UNL     1      44.469   3.660  10.349  0.00  0.00    +0.000 A 
ATOM     27  N   UNL     1      43.571   2.653  10.520  0.00  0.00    +0.000 NA
ATOM     28  C   UNL     1      43.361   2.333  11.754  0.00  0.00    +0.000 A 
ATOM     29  N   UNL     1      44.009   2.888  12.829  0.00  0.00    +0.000 N 
ATOM     30  C   UNL     1      44.933   3.894  12.698  0.00  0.00    +0.000 A 
ATOM     31  O   UNL     1      45.579   4.309  13.655  0.00  0.00    +0.000 OA
ATOM     32  C   UNL     1      45.095   4.382  11.346  0.00  0.00    +0.000 A 
ATOM     33  H   UNL     1      43.873   2.527  13.762  0.00  0.00    +0.000 HD
ENDBRANCH  20  23
ENDBRANCH  18  19
ENDBRANCH   4  18
TORSDOF 6
ENDMDL
MODEL 9
REMARK VINA RESULT:    -6.807      4.848      5.706
REMARK INTER + INTRA:         -10.196
REMARK INTER:                  -9.513
REMARK INTRA:                  -0.682
REMARK UNBOUND:                -1.002
REMARK  Name = 
REMARK  6 active torsions:
REMARK  status: ('A' for Active; 'I' for Inactive)
REMARK    1  A    between atoms: C_2  and  C_25
REMARK    2  A    between atoms: N_3  and  C_4
REMARK    3  A    between atoms: C_4  and  C_5
REMARK    4  A    between atoms: C_8  and  C_9
REMARK    5  A    between atoms: C_9  and  N_10
REMARK    6  A    between atoms: C_11  and  C_13
REMARK                            x       y       z     vdW  Elec       q    Type
REMARK                         _______ _______ _______ _____ _____    ______ ____
ROOT
ATOM      1  C   UNL     1      44.521   4.840  11.718  0.00  0.00    +0.000 A 
ATOM      2  C   UNL     1      45.704   5.093  12.376  0.00  0.00    +0.000 A 
ATOM      3  N   UNL     1      46.109   6.319  12.760  0.00  0.00    +0.000 NA
ATOM      4  C   UNL     1      45.274   7.341  12.486  0.00  0.00    +0.000 A 
ATOM      5  N   UNL     1      44.102   7.210  11.830  0.00  0.00    +0.000 NA
ATOM      6  C   UNL     1      43.747   5.956  11.473  0.00  0.00    +0.000 A 
ENDROOT
BRANCH   1   7
ATOM      7  C   UNL     1      44.113   3.463  11.322  0.00  0.00    +0.000 C 
BRANCH   7  10
ATOM      8  O   UNL     1      44.020   4.256   8.615  0.00  0.00    +0.000 OA
ATOM      9  C   UNL     1      44.826   3.396   8.960  0.00  0.00    +0.000 C 
ATOM     10  N   UNL     1      44.929   2.934  10.258  0.00  0.00    +0.000 N 
ATOM     11  H   UNL     1      45.611   2.198  10.417  0.00  0.00    +0.000 HD
BRANCH   9  12
ATOM     12  C   UNL     1      45.789   2.781   7.992  0.00  0.00    +0.000 A 
ATOM     13  C   UNL     1      46.237   1.483   8.207  0.00  0.00    +0.000 A 
ATOM     14  C   UNL     1      47.109   0.923   7.280  0.00  0.00    +0.000 A 
ATOM     15  C   UNL     1      47.498   1.675   6.177  0.00  0.00    +0.000 A 
ATOM     16  C   UNL     1      46.999   2.964   6.042  0.00  0.00    +0.000 A 
ATOM     17  N   UNL     1      46.150   3.546   6.922  0.00  0.00    +0.000 NA
ENDBRANCH   9  12
ENDBRANCH   7  10
ENDBRANCH   1   7
BRANCH   4  18
ATOM     18  C   UNL     1      45.700   8.716  12.950  0.00  0.00    +0.000 C 
BRANCH  18  19
ATOM     19  N   UNL     1      46.872   9.222  12.264  0.00  0.00    +0.000 N 
ATOM     20  C   UNL     1      48.007   9.527  12.970  0.00  0.00    +0.000 C 
ATOM     21  O   UNL     1      48.057   9.416  14.193  0.00  0.00    +0.000 OA
ATOM     22  H   UNL     1      46.930   9.038  11.266  0.00  0.00    +0.000 HD
BRANCH  20  23
ATOM     23  C   UNL     1      49.127  10.090  12.210  0.00  0.00    +0.000 A 
ATOM     24  C   UNL     1      48.991  11.299  11.543  0.00  0.00    +0.000 A 
ATOM     25  S   UNL     1      50.234  11.573  10.401  0.00  0.00    +0.000 S 
ATOM     26  C   UNL     1      51.028  10.135  10.849  0.00  0.00    +0.000 A 
ATOM     27  N   UNL     1      52.116   9.674  10.175  0.00  0.00    +0.000 NA
ATOM     28  C   UNL     1      52.648   8.615  10.689  0.00  0.00    +0.000 A 
ATOM     29  N   UNL     1      52.229   8.009  11.847  0.00  0.00    +0.000 N 
ATOM     30  C   UNL     1      51.148   8.454  12.566  0.00  0.00    +0.000 A 
ATOM     31  O   UNL     1      50.847   7.968  13.651  0.00  0.00    +0.000 OA
ATOM     32  C   UNL     1      50.434   9.551  11.950  0.00  0.00    +0.000 A 
ATOM     33  H   UNL     1      52.747   7.243  12.251  0.00  0.00    +0.000 HD
ENDBRANCH  20  23
ENDBRANCH  18  19
ENDBRANCH   4  18
TORSDOF 6
ENDMDL
