MODEL 1
REMARK VINA RESULT:    -8.146      0.000      0.000
REMARK INTER + INTRA:         -12.016
REMARK INTER:                 -11.003
REMARK INTRA:                  -1.013
REMARK UNBOUND:                -1.013
REMARK  Name = 
REMARK  7 active torsions:
REMARK  status: ('A' for Active; 'I' for Inactive)
REMARK    1  A    between atoms: C_1  and  C_2
REMARK    2  A    between atoms: C_2  and  N_3
REMARK    3  A    between atoms: C_2  and  C_10
REMARK    4  A    between atoms: N_3  and  C_4
REMARK    5  A    between atoms: C_13  and  C_14
REMARK    6  A    between atoms: C_14  and  N_15
REMARK    7  A    between atoms: N_15  and  C_16
REMARK                            x       y       z     vdW  Elec       q    Type
REMARK                         _______ _______ _______ _____ _____    ______ ____
ROOT
ATOM      1  C   UNL     1      45.112   5.030  11.579  0.00  0.00    +0.000 A 
ATOM      2  C   UNL     1      45.550   4.393  12.751  0.00  0.00    +0.000 A 
ATOM      3  C   UNL     1      46.615   4.909  13.492  0.00  0.00    +0.000 A 
ATOM      4  C   UNL     1      47.264   6.081  13.084  0.00  0.00    +0.000 A 
ATOM      5  C   UNL     1      46.865   6.693  11.889  0.00  0.00    +0.000 A 
ATOM      6  C   UNL     1      45.792   6.184  11.154  0.00  0.00    +0.000 A 
ENDROOT
BRANCH   1   8
ATOM      7  C   UNL     1      42.675   5.373  11.365  0.00  0.00    +0.000 C 
ATOM      8  C   UNL     1      43.854   4.525  10.875  0.00  0.00    +0.000 C 
BRANCH   8   9
ATOM      9  N   UNL     1      44.013   4.610   9.414  0.00  0.00    +0.000 N 
ATOM     10  H   UNL     1      44.197   5.571   9.129  0.00  0.00    +0.000 HD
BRANCH   9  11
ATOM     11  C   UNL     1      44.905   3.748   8.756  0.00  0.00    +0.000 A 
ATOM     12  C   UNL     1      45.900   4.176   7.881  0.00  0.00    +0.000 A 
ATOM     13  C   UNL     1      46.764   3.246   7.320  0.00  0.00    +0.000 A 
ATOM     14  N   UNL     1      46.722   1.927   7.581  0.00  0.00    +0.000 NA
ATOM     15  C   UNL     1      45.790   1.529   8.465  0.00  0.00    +0.000 A 
ATOM     16  C   UNL     1      44.892   2.387   9.083  0.00  0.00    +0.000 A 
ENDBRANCH   9  11
ENDBRANCH   8   9
ENDBRANCH   1   8
BRANCH   4  17
ATOM     17  C   UNL     1      48.366   6.685  13.925  0.00  0.00    +0.000 C 
BRANCH  17  18
ATOM     18  N   UNL     1      48.008   6.623  15.325  0.00  0.00    +0.000 N 
ATOM     19  H   UNL     1      47.040   6.374  15.518  0.00  0.00    +0.000 HD
BRANCH  18  20
ATOM     20  C   UNL     1      48.873   5.870  16.126  0.00  0.00    +0.000 A 
ATOM     21  N   UNL     1      50.175   6.232  16.287  0.00  0.00    +0.000 NA
ATOM     22  C   UNL     1      50.963   5.495  17.104  0.00  0.00    +0.000 A 
ATOM     23  N   UNL     1      50.642   4.394  17.809  0.00  0.00    +0.000 NA
ATOM     24  C   UNL     1      49.355   4.072  17.609  0.00  0.00    +0.000 A 
ATOM     25  N   UNL     1      48.678   3.024  18.161  0.00  0.00    +0.000 N 
ATOM     26  C   UNL     1      47.397   3.062  17.679  0.00  0.00    +0.000 A 
ATOM     27  N   UNL     1      47.210   4.071  16.855  0.00  0.00    +0.000 NA
ATOM     28  C   UNL     1      48.430   4.722  16.813  0.00  0.00    +0.000 A 
ATOM     29  H   UNL     1      49.065   2.353  18.807  0.00  0.00    +0.000 HD
ENDBRANCH  18  20
ENDBRANCH  17  18
ENDBRANCH   4  17
TORSDOF 6
ENDMDL
MODEL 2
REMARK VINA RESULT:    -7.638      1.320      2.042
REMARK INTER + INTRA:         -11.330
REMARK INTER:                 -10.403
REMARK INTRA:                  -0.927
REMARK UNBOUND:                -1.013
REMARK  Name = 
REMARK  7 active torsions:
REMARK  status: ('A' for Active; 'I' for Inactive)
REMARK    1  A    between atoms: C_1  and  C_2
REMARK    2  A    between atoms: C_2  and  N_3
REMARK    3  A    between atoms: C_2  and  C_10
REMARK    4  A    between atoms: N_3  and  C_4
REMARK    5  A    between atoms: C_13  and  C_14
REMARK    6  A    between atoms: C_14  and  N_15
REMARK    7  A    between atoms: N_15  and  C_16
REMARK                            x       y       z     vdW  Elec       q    Type
REMARK                         _______ _______ _______ _____ _____    ______ ____
ROOT
ATOM      1  C   UNL     1      44.832   4.839  12.047  0.00  0.00    +0.000 A 
ATOM      2  C   UNL     1      45.238   6.179  12.155  0.00  0.00    +0.000 A 
ATOM      3  C   UNL     1      46.335   6.534  12.942  0.00  0.00    +0.000 A 
ATOM      4  C   UNL     1      47.059   5.557  13.636  0.00  0.00    +0.000 A 
ATOM      5  C   UNL     1      46.628   4.225  13.573  0.00  0.00    +0.000 A 
ATOM      6  C   UNL     1      45.539   3.868  12.776  0.00  0.00    +0.000 A 
ENDROOT
BRANCH   1   8
ATOM      7  C   UNL     1      42.480   5.279  11.435  0.00  0.00    +0.000 C 
ATOM      8  C   UNL     1      43.724   4.466  11.063  0.00  0.00    +0.000 C 
BRANCH   8   9
ATOM      9  N   UNL     1      44.153   4.733   9.680  0.00  0.00    +0.000 N 
ATOM     10  H   UNL     1      44.534   5.675   9.598  0.00  0.00    +0.000 HD
BRANCH   9  11
ATOM     11  C   UNL     1      45.003   3.826   9.024  0.00  0.00    +0.000 A 
ATOM     12  C   UNL     1      44.965   2.447   9.214  0.00  0.00    +0.000 A 
ATOM     13  C   UNL     1      45.814   1.633   8.477  0.00  0.00    +0.000 A 
ATOM     14  N   UNL     1      46.681   2.088   7.555  0.00  0.00    +0.000 NA
ATOM     15  C   UNL     1      46.675   3.416   7.343  0.00  0.00    +0.000 A 
ATOM     16  C   UNL     1      45.856   4.306   8.023  0.00  0.00    +0.000 A 
ENDBRANCH   9  11
ENDBRANCH   8   9
ENDBRANCH   1   8
BRANCH   4  17
ATOM     17  C   UNL     1      48.293   5.929  14.428  0.00  0.00    +0.000 C 
BRANCH  17  18
ATOM     18  N   UNL     1      47.931   6.220  15.798  0.00  0.00    +0.000 N 
ATOM     19  H   UNL     1      46.985   6.572  15.935  0.00  0.00    +0.000 HD
BRANCH  18  20
ATOM     20  C   UNL     1      48.207   5.199  16.713  0.00  0.00    +0.000 A 
ATOM     21  N   UNL     1      48.696   3.998  16.300  0.00  0.00    +0.000 NA
ATOM     22  C   UNL     1      48.986   3.056  17.227  0.00  0.00    +0.000 A 
ATOM     23  N   UNL     1      48.848   3.125  18.564  0.00  0.00    +0.000 NA
ATOM     24  C   UNL     1      48.354   4.321  18.921  0.00  0.00    +0.000 A 
ATOM     25  N   UNL     1      48.087   4.752  20.187  0.00  0.00    +0.000 N 
ATOM     26  C   UNL     1      47.587   6.023  20.091  0.00  0.00    +0.000 A 
ATOM     27  N   UNL     1      47.521   6.435  18.843  0.00  0.00    +0.000 NA
ATOM     28  C   UNL     1      48.013   5.378  18.097  0.00  0.00    +0.000 A 
ATOM     29  H   UNL     1      48.238   4.220  21.030  0.00  0.00    +0.000 HD
ENDBRANCH  18  20
ENDBRANCH  17  18
ENDBRANCH   4  17
TORSDOF 6
ENDMDL
MODEL 3
REMARK VINA RESULT:    -7.103      3.333      5.067
REMARK INTER + INTRA:         -10.608
REMARK INTER:                  -9.438
REMARK INTRA:                  -1.170
REMARK UNBOUND:                -1.013
REMARK  Name = 
REMARK  7 active torsions:
REMARK  status: ('A' for Active; 'I' for Inactive)
REMARK    1  A    between atoms: C_1  and  C_2
REMARK    2  A    between atoms: C_2  and  N_3
REMARK    3  A    between atoms: C_2  and  C_10
REMARK    4  A    between atoms: N_3  and  C_4
REMARK    5  A    between atoms: C_13  and  C_14
REMARK    6  A    between atoms: C_14  and  N_15
REMARK    7  A    between atoms: N_15  and  C_16
REMARK                            x       y       z     vdW  Elec       q    Type
REMARK                         _______ _______ _______ _____ _____    ______ ____
ROOT
ATOM      1  C   UNL     1      44.986   5.247  11.817  0.00  0.00    +0.000 A 
ATOM      2  C   UNL     1      45.393   6.544  11.467  0.00  0.00    +0.000 A 
ATOM      3  C   UNL     1      46.554   7.101  12.007  0.00  0.00    +0.000 A 
ATOM      4  C   UNL     1      47.341   6.371  12.906  0.00  0.00    +0.000 A 
ATOM      5  C   UNL     1      46.913   5.096  13.299  0.00  0.00    +0.000 A 
ATOM      6  C   UNL     1      45.759   4.534  12.749  0.00  0.00    +0.000 A 
ENDROOT
BRANCH   1   8
ATOM      7  C   UNL     1      42.526   5.309  11.596  0.00  0.00    +0.000 C 
ATOM      8  C   UNL     1      43.796   4.613  11.097  0.00  0.00    +0.000 C 
BRANCH   8   9
ATOM      9  N   UNL     1      43.949   4.743   9.639  0.00  0.00    +0.000 N 
ATOM     10  H   UNL     1      44.172   5.705   9.386  0.00  0.00    +0.000 HD
BRANCH   9  11
ATOM     11  C   UNL     1      44.799   3.867   8.943  0.00  0.00    +0.000 A 
ATOM     12  C   UNL     1      45.774   4.283   8.039  0.00  0.00    +0.000 A 
ATOM     13  C   UNL     1      46.598   3.340   7.442  0.00  0.00    +0.000 A 
ATOM     14  N   UNL     1      46.536   2.020   7.692  0.00  0.00    +0.000 NA
ATOM     15  C   UNL     1      45.626   1.633   8.603  0.00  0.00    +0.000 A 
ATOM     16  C   UNL     1      44.767   2.504   9.258  0.00  0.00    +0.000 A 
ENDBRANCH   9  11
ENDBRANCH   8   9
ENDBRANCH   1   8
BRANCH   4  17
ATOM     17  C   UNL     1      48.639   6.941  13.434  0.00  0.00    +0.000 C 
BRANCH  17  18
ATOM     18  N   UNL     1      49.667   6.845  12.421  0.00  0.00    +0.000 N 
ATOM     19  H   UNL     1      49.448   6.239  11.632  0.00  0.00    +0.000 HD
BRANCH  18  20
ATOM     20  C   UNL     1      50.171   8.069  11.969  0.00  0.00    +0.000 A 
ATOM     21  N   UNL     1      49.690   9.248  12.452  0.00  0.00    +0.000 NA
ATOM     22  C   UNL     1      50.237  10.406  12.014  0.00  0.00    +0.000 A 
ATOM     23  N   UNL     1      51.228  10.579  11.120  0.00  0.00    +0.000 NA
ATOM     24  C   UNL     1      51.660   9.393  10.667  0.00  0.00    +0.000 A 
ATOM     25  N   UNL     1      52.654   9.176   9.759  0.00  0.00    +0.000 N 
ATOM     26  C   UNL     1      52.757   7.823   9.578  0.00  0.00    +0.000 A 
ATOM     27  N   UNL     1      51.895   7.159  10.317  0.00  0.00    +0.000 NA
ATOM     28  C   UNL     1      51.207   8.134  11.017  0.00  0.00    +0.000 A 
ATOM     29  H   UNL     1      53.205   9.893   9.312  0.00  0.00    +0.000 HD
ENDBRANCH  18  20
ENDBRANCH  17  18
ENDBRANCH   4  17
TORSDOF 6
ENDMDL
MODEL 4
REMARK VINA RESULT:    -6.930      1.120      8.249
REMARK INTER + INTRA:         -10.374
REMARK INTER:                  -9.437
REMARK INTRA:                  -0.936
REMARK UNBOUND:                -1.013
REMARK  Name = 
REMARK  7 active torsions:
REMARK  status: ('A' for Active; 'I' for Inactive)
REMARK    1  A    between atoms: C_1  and  C_2
REMARK    2  A    between atoms: C_2  and  N_3
REMARK    3  A    between atoms: C_2  and  C_10
REMARK    4  A    between atoms: N_3  and  C_4
REMARK    5  A    between atoms: C_13  and  C_14
REMARK    6  A    between atoms: C_14  and  N_15
REMARK    7  A    between atoms: N_15  and  C_16
REMARK                            x       y       z     vdW  Elec       q    Type
REMARK                         _______ _______ _______ _____ _____    ______ ____
ROOT
ATOM      1  C   UNL     1      47.152   6.466  13.511  0.00  0.00    +0.000 A 
ATOM      2  C   UNL     1      46.621   5.168  13.586  0.00  0.00    +0.000 A 
ATOM      3  C   UNL     1      45.467   4.824  12.880  0.00  0.00    +0.000 A 
ATOM      4  C   UNL     1      44.817   5.768  12.076  0.00  0.00    +0.000 A 
ATOM      5  C   UNL     1      45.312   7.078  12.037  0.00  0.00    +0.000 A 
ATOM      6  C   UNL     1      46.474   7.420  12.732  0.00  0.00    +0.000 A 
ENDROOT
BRANCH   1   8
ATOM      7  C   UNL     1      49.033   8.067  13.562  0.00  0.00    +0.000 C 
ATOM      8  C   UNL     1      48.495   6.769  14.173  0.00  0.00    +0.000 C 
BRANCH   8   9
ATOM      9  N   UNL     1      48.335   6.882  15.632  0.00  0.00    +0.000 N 
ATOM     10  H   UNL     1      47.358   7.042  15.874  0.00  0.00    +0.000 HD
BRANCH   9  11
ATOM     11  C   UNL     1      48.869   5.892  16.474  0.00  0.00    +0.000 A 
ATOM     12  C   UNL     1      50.070   6.024  17.167  0.00  0.00    +0.000 A 
ATOM     13  C   UNL     1      50.486   5.007  18.014  0.00  0.00    +0.000 A 
ATOM     14  N   UNL     1      49.786   3.880  18.236  0.00  0.00    +0.000 NA
ATOM     15  C   UNL     1      48.604   3.783  17.601  0.00  0.00    +0.000 A 
ATOM     16  C   UNL     1      48.103   4.753  16.744  0.00  0.00    +0.000 A 
ENDBRANCH   9  11
ENDBRANCH   8   9
ENDBRANCH   1   8
BRANCH   4  17
ATOM     17  C   UNL     1      43.611   5.378  11.250  0.00  0.00    +0.000 C 
BRANCH  17  18
ATOM     18  N   UNL     1      43.990   5.236   9.861  0.00  0.00    +0.000 N 
ATOM     19  H   UNL     1      44.623   5.950   9.506  0.00  0.00    +0.000 HD
BRANCH  18  20
ATOM     20  C   UNL     1      44.437   3.963   9.496  0.00  0.00    +0.000 A 
ATOM     21  N   UNL     1      43.888   2.842  10.040  0.00  0.00    +0.000 NA
ATOM     22  C   UNL     1      44.327   1.631   9.625  0.00  0.00    +0.000 A 
ATOM     23  N   UNL     1      45.281   1.351   8.718  0.00  0.00    +0.000 NA
ATOM     24  C   UNL     1      45.798   2.484   8.220  0.00  0.00    +0.000 A 
ATOM     25  N   UNL     1      46.779   2.592   7.278  0.00  0.00    +0.000 N 
ATOM     26  C   UNL     1      47.006   3.927   7.073  0.00  0.00    +0.000 A 
ATOM     27  N   UNL     1      46.230   4.680   7.822  0.00  0.00    +0.000 NA
ATOM     28  C   UNL     1      45.456   3.786   8.539  0.00  0.00    +0.000 A 
ATOM     29  H   UNL     1      47.240   1.819   6.823  0.00  0.00    +0.000 HD
ENDBRANCH  18  20
ENDBRANCH  17  18
ENDBRANCH   4  17
TORSDOF 6
ENDMDL
MODEL 5
REMARK VINA RESULT:    -6.772      1.860      2.864
REMARK INTER + INTRA:         -10.161
REMARK INTER:                  -8.983
REMARK INTRA:                  -1.178
REMARK UNBOUND:                -1.013
REMARK  Name = 
REMARK  7 active torsions:
REMARK  status: ('A' for Active; 'I' for Inactive)
REMARK    1  A    between atoms: C_1  and  C_2
REMARK    2  A    between atoms: C_2  and  N_3
REMARK    3  A    between atoms: C_2  and  C_10
REMARK    4  A    between atoms: N_3  and  C_4
REMARK    5  A    between atoms: C_13  and  C_14
REMARK    6  A    between atoms: C_14  and  N_15
REMARK    7  A    between atoms: N_15  and  C_16
REMARK                            x       y       z     vdW  Elec       q    Type
REMARK                         _______ _______ _______ _____ _____    ______ ____
ROOT
ATOM      1  C   UNL     1      46.348   7.538  12.502  0.00  0.00    +0.000 A 
ATOM      2  C   UNL     1      47.348   6.553  12.474  0.00  0.00    +0.000 A 
ATOM      3  C   UNL     1      48.495   6.675  13.261  0.00  0.00    +0.000 A 
ATOM      4  C   UNL     1      48.668   7.782  14.101  0.00  0.00    +0.000 A 
ATOM      5  C   UNL     1      47.698   8.793  14.094  0.00  0.00    +0.000 A 
ATOM      6  C   UNL     1      46.544   8.665  13.318  0.00  0.00    +0.000 A 
ENDROOT
BRANCH   1   8
ATOM      7  C   UNL     1      44.532   8.666  11.264  0.00  0.00    +0.000 C 
ATOM      8  C   UNL     1      45.041   7.304  11.746  0.00  0.00    +0.000 C 
BRANCH   8   9
ATOM      9  N   UNL     1      45.256   6.376  10.623  0.00  0.00    +0.000 N 
ATOM     10  H   UNL     1      46.250   6.292  10.413  0.00  0.00    +0.000 HD
BRANCH   9  11
ATOM     11  C   UNL     1      44.673   5.098  10.649  0.00  0.00    +0.000 A 
ATOM     12  C   UNL     1      44.964   4.091   9.732  0.00  0.00    +0.000 A 
ATOM     13  C   UNL     1      44.372   2.844   9.876  0.00  0.00    +0.000 A 
ATOM     14  N   UNL     1      43.528   2.523  10.873  0.00  0.00    +0.000 NA
ATOM     15  C   UNL     1      43.292   3.486  11.781  0.00  0.00    +0.000 A 
ATOM     16  C   UNL     1      43.846   4.757  11.725  0.00  0.00    +0.000 A 
ENDBRANCH   9  11
ENDBRANCH   8   9
ENDBRANCH   1   8
BRANCH   4  17
ATOM     17  C   UNL     1      49.872   7.880  15.011  0.00  0.00    +0.000 C 
BRANCH  17  18
ATOM     18  N   UNL     1      50.061   6.630  15.713  0.00  0.00    +0.000 N 
ATOM     19  H   UNL     1      51.018   6.427  15.997  0.00  0.00    +0.000 HD
BRANCH  18  20
ATOM     20  C   UNL     1      49.181   6.410  16.778  0.00  0.00    +0.000 A 
ATOM     21  N   UNL     1      48.922   7.387  17.689  0.00  0.00    +0.000 NA
ATOM     22  C   UNL     1      48.033   7.140  18.678  0.00  0.00    +0.000 A 
ATOM     23  N   UNL     1      47.337   6.013  18.918  0.00  0.00    +0.000 NA
ATOM     24  C   UNL     1      47.634   5.079  18.002  0.00  0.00    +0.000 A 
ATOM     25  N   UNL     1      47.120   3.818  17.923  0.00  0.00    +0.000 N 
ATOM     26  C   UNL     1      47.704   3.203  16.849  0.00  0.00    +0.000 A 
ATOM     27  N   UNL     1      48.557   3.993  16.232  0.00  0.00    +0.000 NA
ATOM     28  C   UNL     1      48.512   5.180  16.939  0.00  0.00    +0.000 A 
ATOM     29  H   UNL     1      46.434   3.426  18.550  0.00  0.00    +0.000 HD
ENDBRANCH  18  20
ENDBRANCH  17  18
ENDBRANCH   4  17
TORSDOF 6
ENDMDL
MODEL 6
REMARK VINA RESULT:    -6.613      2.744      4.693
REMARK INTER + INTRA:          -9.946
REMARK INTER:                  -8.818
REMARK INTRA:                  -1.128
REMARK UNBOUND:                -1.013
REMARK  Name = 
REMARK  7 active torsions:
REMARK  status: ('A' for Active; 'I' for Inactive)
REMARK    1  A    between atoms: C_1  and  C_2
REMARK    2  A    between atoms: C_2  and  N_3
REMARK    3  A    between atoms: C_2  and  C_10
REMARK    4  A    between atoms: N_3  and  C_4
REMARK    5  A    between atoms: C_13  and  C_14
REMARK    6  A    between atoms: C_14  and  N_15
REMARK    7  A    between atoms: N_15  and  C_16
REMARK                            x       y       z     vdW  Elec       q    Type
REMARK                         _______ _______ _______ _____ _____    ______ ____
ROOT
ATOM      1  C   UNL     1      44.893   5.101  11.910  0.00  0.00    +0.000 A 
ATOM      2  C   UNL     1      45.414   6.358  11.564  0.00  0.00    +0.000 A 
ATOM      3  C   UNL     1      46.584   6.837  12.157  0.00  0.00    +0.000 A 
ATOM      4  C   UNL     1      47.267   6.068  13.106  0.00  0.00    +0.000 A 
ATOM      5  C   UNL     1      46.725   4.835  13.493  0.00  0.00    +0.000 A 
ATOM      6  C   UNL     1      45.562   4.349  12.891  0.00  0.00    +0.000 A 
ENDROOT
BRANCH   1   8
ATOM      7  C   UNL     1      42.457   5.328  11.572  0.00  0.00    +0.000 C 
ATOM      8  C   UNL     1      43.699   4.543  11.137  0.00  0.00    +0.000 C 
BRANCH   8   9
ATOM      9  N   UNL     1      43.928   4.651   9.687  0.00  0.00    +0.000 N 
ATOM     10  H   UNL     1      44.156   5.611   9.431  0.00  0.00    +0.000 HD
BRANCH   9  11
ATOM     11  C   UNL     1      44.822   3.773   9.053  0.00  0.00    +0.000 A 
ATOM     12  C   UNL     1      44.835   2.395   9.254  0.00  0.00    +0.000 A 
ATOM     13  C   UNL     1      45.726   1.608   8.538  0.00  0.00    +0.000 A 
ATOM     14  N   UNL     1      46.590   2.089   7.626  0.00  0.00    +0.000 NA
ATOM     15  C   UNL     1      46.536   3.414   7.403  0.00  0.00    +0.000 A 
ATOM     16  C   UNL     1      45.673   4.277   8.061  0.00  0.00    +0.000 A 
ENDBRANCH   9  11
ENDBRANCH   8   9
ENDBRANCH   1   8
BRANCH   4  17
ATOM     17  C   UNL     1      48.575   6.550  13.694  0.00  0.00    +0.000 C 
BRANCH  17  18
ATOM     18  N   UNL     1      48.473   7.951  14.038  0.00  0.00    +0.000 N 
ATOM     19  H   UNL     1      48.289   8.148  15.020  0.00  0.00    +0.000 HD
BRANCH  18  20
ATOM     20  C   UNL     1      49.517   8.754  13.568  0.00  0.00    +0.000 A 
ATOM     21  N   UNL     1      50.765   8.671  14.106  0.00  0.00    +0.000 NA
ATOM     22  C   UNL     1      51.752   9.440  13.590  0.00  0.00    +0.000 A 
ATOM     23  N   UNL     1      51.682  10.328  12.581  0.00  0.00    +0.000 NA
ATOM     24  C   UNL     1      50.434  10.381  12.092  0.00  0.00    +0.000 A 
ATOM     25  N   UNL     1      49.989  11.162  11.066  0.00  0.00    +0.000 N 
ATOM     26  C   UNL     1      48.653  10.909  10.907  0.00  0.00    +0.000 A 
ATOM     27  N   UNL     1      48.215  10.013  11.765  0.00  0.00    +0.000 NA
ATOM     28  C   UNL     1      49.328   9.663  12.508  0.00  0.00    +0.000 A 
ATOM     29  H   UNL     1      50.555  11.801  10.530  0.00  0.00    +0.000 HD
ENDBRANCH  18  20
ENDBRANCH  17  18
ENDBRANCH   4  17
TORSDOF 6
ENDMDL
MODEL 7
REMARK VINA RESULT:    -6.602      2.481      3.988
REMARK INTER + INTRA:          -9.931
REMARK INTER:                  -8.922
REMARK INTRA:                  -1.008
REMARK UNBOUND:                -1.013
REMARK  Name = 
REMARK  7 active torsions:
REMARK  status: ('A' for Active; 'I' for Inactive)
REMARK    1  A    between atoms: C_1  and  C_2
REMARK    2  A    between atoms: C_2  and  N_3
REMARK    3  A    between atoms: C_2  and  C_10
REMARK    4  A    between atoms: N_3  and  C_4
REMARK    5  A    between atoms: C_13  and  C_14
REMARK    6  A    between atoms: C_14  and  N_15
REMARK    7  A    between atoms: N_15  and  C_16
REMARK                            x       y       z     vdW  Elec       q    Type
REMARK                         _______ _______ _______ _____ _____    ______ ____
ROOT
ATOM      1  C   UNL     1      45.110   5.178  11.745  0.00  0.00    +0.000 A 
ATOM      2  C   UNL     1      45.689   6.309  11.148  0.00  0.00    +0.000 A 
ATOM      3  C   UNL     1      46.872   6.857  11.647  0.00  0.00    +0.000 A 
ATOM      4  C   UNL     1      47.511   6.283  12.753  0.00  0.00    +0.000 A 
ATOM      5  C   UNL     1      46.911   5.185  13.385  0.00  0.00    +0.000 A 
ATOM      6  C   UNL     1      45.735   4.628  12.878  0.00  0.00    +0.000 A 
ENDROOT
BRANCH   1   8
ATOM      7  C   UNL     1      42.643   5.206  11.623  0.00  0.00    +0.000 C 
ATOM      8  C   UNL     1      43.901   4.515  11.087  0.00  0.00    +0.000 C 
BRANCH   8   9
ATOM      9  N   UNL     1      43.993   4.618   9.621  0.00  0.00    +0.000 N 
ATOM     10  H   UNL     1      44.178   5.580   9.340  0.00  0.00    +0.000 HD
BRANCH   9  11
ATOM     11  C   UNL     1      44.840   3.752   8.910  0.00  0.00    +0.000 A 
ATOM     12  C   UNL     1      45.790   4.177   7.985  0.00  0.00    +0.000 A 
ATOM     13  C   UNL     1      46.614   3.243   7.373  0.00  0.00    +0.000 A 
ATOM     14  N   UNL     1      46.574   1.923   7.628  0.00  0.00    +0.000 NA
ATOM     15  C   UNL     1      45.687   1.527   8.559  0.00  0.00    +0.000 A 
ATOM     16  C   UNL     1      44.831   2.389   9.229  0.00  0.00    +0.000 A 
ENDBRANCH   9  11
ENDBRANCH   8   9
ENDBRANCH   1   8
BRANCH   4  17
ATOM     17  C   UNL     1      48.832   6.827  13.249  0.00  0.00    +0.000 C 
BRANCH  17  18
ATOM     18  N   UNL     1      48.766   8.269  13.344  0.00  0.00    +0.000 N 
ATOM     19  H   UNL     1      48.016   8.708  12.815  0.00  0.00    +0.000 HD
BRANCH  18  20
ATOM     20  C   UNL     1      48.809   8.780  14.645  0.00  0.00    +0.000 A 
ATOM     21  N   UNL     1      48.737   7.956  15.726  0.00  0.00    +0.000 NA
ATOM     22  C   UNL     1      48.823   8.494  16.965  0.00  0.00    +0.000 A 
ATOM     23  N   UNL     1      48.964   9.787  17.309  0.00  0.00    +0.000 NA
ATOM     24  C   UNL     1      49.019  10.558  16.213  0.00  0.00    +0.000 A 
ATOM     25  N   UNL     1      49.163  11.914  16.171  0.00  0.00    +0.000 N 
ATOM     26  C   UNL     1      49.158  12.288  14.854  0.00  0.00    +0.000 A 
ATOM     27  N   UNL     1      49.024  11.256  14.049  0.00  0.00    +0.000 NA
ATOM     28  C   UNL     1      48.948  10.160  14.890  0.00  0.00    +0.000 A 
ATOM     29  H   UNL     1      49.258  12.517  16.974  0.00  0.00    +0.000 HD
ENDBRANCH  18  20
ENDBRANCH  17  18
ENDBRANCH   4  17
TORSDOF 6
ENDMDL
MODEL 8
REMARK VINA RESULT:    -6.491      1.848      3.276
REMARK INTER + INTRA:          -9.781
REMARK INTER:                  -8.829
REMARK INTRA:                  -0.952
REMARK UNBOUND:                -1.013
REMARK  Name = 
REMARK  7 active torsions:
REMARK  status: ('A' for Active; 'I' for Inactive)
REMARK    1  A    between atoms: C_1  and  C_2
REMARK    2  A    between atoms: C_2  and  N_3
REMARK    3  A    between atoms: C_2  and  C_10
REMARK    4  A    between atoms: N_3  and  C_4
REMARK    5  A    between atoms: C_13  and  C_14
REMARK    6  A    between atoms: C_14  and  N_15
REMARK    7  A    between atoms: N_15  and  C_16
REMARK                            x       y       z     vdW  Elec       q    Type
REMARK                         _______ _______ _______ _____ _____    ______ ____
ROOT
ATOM      1  C   UNL     1      44.898   5.697  11.981  0.00  0.00    +0.000 A 
ATOM      2  C   UNL     1      44.901   7.090  11.805  0.00  0.00    +0.000 A 
ATOM      3  C   UNL     1      45.956   7.870  12.282  0.00  0.00    +0.000 A 
ATOM      4  C   UNL     1      47.038   7.276  12.942  0.00  0.00    +0.000 A 
ATOM      5  C   UNL     1      47.017   5.893  13.166  0.00  0.00    +0.000 A 
ATOM      6  C   UNL     1      45.969   5.111  12.677  0.00  0.00    +0.000 A 
ENDROOT
BRANCH   1   8
ATOM      7  C   UNL     1      42.453   5.422  11.762  0.00  0.00    +0.000 C 
ATOM      8  C   UNL     1      43.807   4.858  11.318  0.00  0.00    +0.000 C 
BRANCH   8   9
ATOM      9  N   UNL     1      43.953   4.888   9.853  0.00  0.00    +0.000 N 
ATOM     10  H   UNL     1      44.210   5.822   9.538  0.00  0.00    +0.000 HD
BRANCH   9  11
ATOM     11  C   UNL     1      44.764   3.937   9.211  0.00  0.00    +0.000 A 
ATOM     12  C   UNL     1      44.737   2.573   9.493  0.00  0.00    +0.000 A 
ATOM     13  C   UNL     1      45.543   1.709   8.765  0.00  0.00    +0.000 A 
ATOM     14  N   UNL     1      46.357   2.100   7.767  0.00  0.00    +0.000 NA
ATOM     15  C   UNL     1      46.338   3.411   7.469  0.00  0.00    +0.000 A 
ATOM     16  C   UNL     1      45.558   4.346   8.134  0.00  0.00    +0.000 A 
ENDBRANCH   9  11
ENDBRANCH   8   9
ENDBRANCH   1   8
BRANCH   4  17
ATOM     17  C   UNL     1      48.218   8.109  13.393  0.00  0.00    +0.000 C 
BRANCH  17  18
ATOM     18  N   UNL     1      49.363   7.256  13.624  0.00  0.00    +0.000 N 
ATOM     19  H   UNL     1      50.142   7.384  12.981  0.00  0.00    +0.000 HD
BRANCH  18  20
ATOM     20  C   UNL     1      49.822   7.225  14.945  0.00  0.00    +0.000 A 
ATOM     21  N   UNL     1      49.499   6.199  15.778  0.00  0.00    +0.000 NA
ATOM     22  C   UNL     1      50.000   6.193  17.035  0.00  0.00    +0.000 A 
ATOM     23  N   UNL     1      50.803   7.101  17.621  0.00  0.00    +0.000 NA
ATOM     24  C   UNL     1      51.084   8.096  16.766  0.00  0.00    +0.000 A 
ATOM     25  N   UNL     1      51.869   9.185  17.006  0.00  0.00    +0.000 N 
ATOM     26  C   UNL     1      51.874   9.947  15.869  0.00  0.00    +0.000 A 
ATOM     27  N   UNL     1      51.145   9.412  14.913  0.00  0.00    +0.000 NA
ATOM     28  C   UNL     1      50.653   8.240  15.460  0.00  0.00    +0.000 A 
ATOM     29  H   UNL     1      52.352   9.378  17.870  0.00  0.00    +0.000 HD
ENDBRANCH  18  20
ENDBRANCH  17  18
ENDBRANCH   4  17
TORSDOF 6
ENDMDL
