MODEL 1
REMARK VINA RESULT:    -8.230      0.000      0.000
REMARK INTER + INTRA:         -11.952
REMARK INTER:                 -11.117
REMARK INTRA:                  -0.834
REMARK UNBOUND:                -0.834
REMARK  Name = 
REMARK  7 active torsions:
REMARK  status: ('A' for Active; 'I' for Inactive)
REMARK    1  A    between atoms: C_1  and  C_2
REMARK    2  A    between atoms: C_2  and  C_3
REMARK    3  A    between atoms: C_2  and  C_14
REMARK    4  A    between atoms: C_3  and  N_4
REMARK    5  A    between atoms: C_8  and  C_9
REMARK    6  A    between atoms: C_18  and  O_19
REMARK    7  A    between atoms: O_19  and  C_20
REMARK                            x       y       z     vdW  Elec       q    Type
REMARK                         _______ _______ _______ _____ _____    ______ ____
ROOT
ATOM      1  C   UNL     1      43.660   4.535  10.684  0.00  0.00    +0.000 C 
ENDROOT
BRANCH   1   2
ATOM      2  N   UNL     1      43.973   3.125  10.452  0.00  0.00    +0.000 N 
ATOM      3  C   UNL     1      44.868   2.947   9.378  0.00  0.00    +0.000 A 
ATOM      4  C   UNL     1      45.225   1.652   9.004  0.00  0.00    +0.000 A 
ATOM      5  C   UNL     1      46.121   1.461   7.944  0.00  0.00    +0.000 A 
ATOM      6  C   UNL     1      46.647   2.567   7.278  0.00  0.00    +0.000 A 
ATOM      7  C   UNL     1      46.250   3.815   7.723  0.00  0.00    +0.000 A 
ATOM      8  N   UNL     1      45.386   4.020   8.747  0.00  0.00    +0.000 NA
ATOM      9  H   UNL     1      43.144   2.574  10.258  0.00  0.00    +0.000 HD
BRANCH   6  10
ATOM     10  C   UNL     1      47.587   2.371   6.147  0.00  0.00    +0.000 C 
ATOM     11  N   UNL     1      47.493   3.182   5.050  0.00  0.00    +0.000 N 
ATOM     12  O   UNL     1      48.450   1.500   6.188  0.00  0.00    +0.000 OA
ATOM     13  H   UNL     1      46.820   3.918   4.907  0.00  0.00    +0.000 HD
ATOM     14  H   UNL     1      48.151   3.005   4.301  0.00  0.00    +0.000 HD
ENDBRANCH   6  10
ENDBRANCH   1   2
BRANCH   1  16
ATOM     15  C   UNL     1      42.898   5.329  13.030  0.00  0.00    +0.000 C 
ATOM     16  C   UNL     1      44.003   4.928  12.096  0.00  0.00    +0.000 C 
BRANCH  16  17
ATOM     17  C   UNL     1      45.359   5.465  12.357  0.00  0.00    +0.000 A 
ATOM     18  C   UNL     1      45.942   6.416  11.512  0.00  0.00    +0.000 A 
ATOM     19  C   UNL     1      47.236   6.891  11.759  0.00  0.00    +0.000 A 
ATOM     20  C   UNL     1      47.967   6.427  12.858  0.00  0.00    +0.000 A 
ATOM     21  C   UNL     1      47.393   5.492  13.710  0.00  0.00    +0.000 A 
ATOM     22  C   UNL     1      46.100   5.026  13.463  0.00  0.00    +0.000 A 
BRANCH  21  23
ATOM     23  O   UNL     1      47.978   4.993  14.845  0.00  0.00    +0.000 OA
BRANCH  23  24
ATOM     24  C   UNL     1      47.262   4.015  15.630  0.00  0.00    +0.000 C 
ATOM     25  C   UNL     1      47.059   4.285  17.127  0.00  0.00    +0.000 C 
ATOM     26  O   UNL     1      47.736   3.060  17.496  0.00  0.00    +0.000 OA
ATOM     27  C   UNL     1      48.119   2.838  16.120  0.00  0.00    +0.000 C 
ENDBRANCH  23  24
ENDBRANCH  21  23
ENDBRANCH  16  17
ENDBRANCH   1  16
TORSDOF 6
ENDMDL
MODEL 2
REMARK VINA RESULT:    -7.321      2.049      3.373
REMARK INTER + INTRA:         -10.723
REMARK INTER:                  -9.910
REMARK INTRA:                  -0.813
REMARK UNBOUND:                -0.834
REMARK  Name = 
REMARK  7 active torsions:
REMARK  status: ('A' for Active; 'I' for Inactive)
REMARK    1  A    between atoms: C_1  and  C_2
REMARK    2  A    between atoms: C_2  and  C_3
REMARK    3  A    between atoms: C_2  and  C_14
REMARK    4  A    between atoms: C_3  and  N_4
REMARK    5  A    between atoms: C_8  and  C_9
REMARK    6  A    between atoms: C_18  and  O_19
REMARK    7  A    between atoms: O_19  and  C_20
REMARK                            x       y       z     vdW  Elec       q    Type
REMARK                         _______ _______ _______ _____ _____    ______ ____
ROOT
ATOM      1  C   UNL     1      43.603   4.653  10.325  0.00  0.00    +0.000 C 
ENDROOT
BRANCH   1   2
ATOM      2  N   UNL     1      43.957   3.240  10.200  0.00  0.00    +0.000 N 
ATOM      3  C   UNL     1      44.893   3.012   9.172  0.00  0.00    +0.000 A 
ATOM      4  C   UNL     1      45.294   1.705   8.900  0.00  0.00    +0.000 A 
ATOM      5  C   UNL     1      46.232   1.466   7.888  0.00  0.00    +0.000 A 
ATOM      6  C   UNL     1      46.755   2.538   7.166  0.00  0.00    +0.000 A 
ATOM      7  C   UNL     1      46.314   3.802   7.511  0.00  0.00    +0.000 A 
ATOM      8  N   UNL     1      45.409   4.053   8.488  0.00  0.00    +0.000 NA
ATOM      9  H   UNL     1      43.148   2.655  10.017  0.00  0.00    +0.000 HD
BRANCH   6  10
ATOM     10  C   UNL     1      47.740   2.290   6.084  0.00  0.00    +0.000 C 
ATOM     11  N   UNL     1      47.764   3.121   4.998  0.00  0.00    +0.000 N 
ATOM     12  O   UNL     1      48.536   1.359   6.156  0.00  0.00    +0.000 OA
ATOM     13  H   UNL     1      47.154   3.905   4.831  0.00  0.00    +0.000 HD
ATOM     14  H   UNL     1      48.448   2.907   4.282  0.00  0.00    +0.000 HD
ENDBRANCH   6  10
ENDBRANCH   1   2
BRANCH   1  16
ATOM     15  C   UNL     1      42.645   5.902  12.384  0.00  0.00    +0.000 C 
ATOM     16  C   UNL     1      43.755   5.114  11.750  0.00  0.00    +0.000 C 
BRANCH  16  17
ATOM     17  C   UNL     1      45.127   5.306  12.274  0.00  0.00    +0.000 A 
ATOM     18  C   UNL     1      45.602   4.569  13.365  0.00  0.00    +0.000 A 
ATOM     19  C   UNL     1      46.893   4.785  13.864  0.00  0.00    +0.000 A 
ATOM     20  C   UNL     1      47.732   5.738  13.278  0.00  0.00    +0.000 A 
ATOM     21  C   UNL     1      47.275   6.468  12.187  0.00  0.00    +0.000 A 
ATOM     22  C   UNL     1      45.990   6.244  11.689  0.00  0.00    +0.000 A 
BRANCH  21  23
ATOM     23  O   UNL     1      48.009   7.393  11.492  0.00  0.00    +0.000 OA
BRANCH  23  24
ATOM     24  C   UNL     1      49.193   7.951  12.103  0.00  0.00    +0.000 C 
ATOM     25  C   UNL     1      49.453   9.456  11.955  0.00  0.00    +0.000 C 
ATOM     26  O   UNL     1      50.734   9.228  11.322  0.00  0.00    +0.000 OA
ATOM     27  C   UNL     1      50.472   7.807  11.265  0.00  0.00    +0.000 C 
ENDBRANCH  23  24
ENDBRANCH  21  23
ENDBRANCH  16  17
ENDBRANCH   1  16
TORSDOF 6
ENDMDL
MODEL 3
REMARK VINA RESULT:    -6.948      3.081      7.571
REMARK INTER + INTRA:         -10.220
REMARK INTER:                  -9.602
REMARK INTRA:                  -0.618
REMARK UNBOUND:                -0.834
REMARK  Name = 
REMARK  7 active torsions:
REMARK  status: ('A' for Active; 'I' for Inactive)
REMARK    1  A    between atoms: C_1  and  C_2
REMARK    2  A    between atoms: C_2  and  C_3
REMARK    3  A    between atoms: C_2  and  C_14
REMARK    4  A    between atoms: C_3  and  N_4
REMARK    5  A    between atoms: C_8  and  C_9
REMARK    6  A    between atoms: C_18  and  O_19
REMARK    7  A    between atoms: O_19  and  C_20
REMARK                            x       y       z     vdW  Elec       q    Type
REMARK                         _______ _______ _______ _____ _____    ______ ____
ROOT
ATOM      1  C   UNL     1      47.641   6.795  12.115  0.00  0.00    +0.000 C 
ENDROOT
BRANCH   1   2
ATOM      2  N   UNL     1      48.244   7.224  13.376  0.00  0.00    +0.000 N 
ATOM      3  C   UNL     1      48.077   6.269  14.400  0.00  0.00    +0.000 A 
ATOM      4  C   UNL     1      48.558   6.557  15.677  0.00  0.00    +0.000 A 
ATOM      5  C   UNL     1      48.407   5.612  16.700  0.00  0.00    +0.000 A 
ATOM      6  C   UNL     1      47.782   4.396  16.430  0.00  0.00    +0.000 A 
ATOM      7  C   UNL     1      47.348   4.188  15.133  0.00  0.00    +0.000 A 
ATOM      8  N   UNL     1      47.486   5.088  14.130  0.00  0.00    +0.000 NA
ATOM      9  H   UNL     1      47.859   8.102  13.708  0.00  0.00    +0.000 HD
BRANCH   6  10
ATOM     10  C   UNL     1      47.609   3.397  17.513  0.00  0.00    +0.000 C 
ATOM     11  N   UNL     1      48.624   3.195  18.406  0.00  0.00    +0.000 N 
ATOM     12  O   UNL     1      46.567   2.759  17.622  0.00  0.00    +0.000 OA
ATOM     13  H   UNL     1      49.521   3.653  18.405  0.00  0.00    +0.000 HD
ATOM     14  H   UNL     1      48.462   2.497  19.123  0.00  0.00    +0.000 HD
ENDBRANCH   6  10
ENDBRANCH   1   2
BRANCH   1  16
ATOM     15  C   UNL     1      45.809   8.495  12.798  0.00  0.00    +0.000 C 
ATOM     16  C   UNL     1      46.221   7.283  12.013  0.00  0.00    +0.000 C 
BRANCH  16  17
ATOM     17  C   UNL     1      45.173   6.298  11.659  0.00  0.00    +0.000 A 
ATOM     18  C   UNL     1      43.813   6.607  11.772  0.00  0.00    +0.000 A 
ATOM     19  C   UNL     1      42.836   5.653  11.458  0.00  0.00    +0.000 A 
ATOM     20  C   UNL     1      43.203   4.375  11.023  0.00  0.00    +0.000 A 
ATOM     21  C   UNL     1      44.551   4.061  10.896  0.00  0.00    +0.000 A 
ATOM     22  C   UNL     1      45.521   5.018  11.204  0.00  0.00    +0.000 A 
BRANCH  21  23
ATOM     23  O   UNL     1      45.045   2.869  10.436  0.00  0.00    +0.000 OA
BRANCH  23  24
ATOM     24  C   UNL     1      44.855   2.521   9.047  0.00  0.00    +0.000 C 
ATOM     25  C   UNL     1      45.970   1.751   8.327  0.00  0.00    +0.000 C 
ATOM     26  O   UNL     1      46.112   2.786   7.326  0.00  0.00    +0.000 OA
ATOM     27  C   UNL     1      45.202   3.641   8.055  0.00  0.00    +0.000 C 
ENDBRANCH  23  24
ENDBRANCH  21  23
ENDBRANCH  16  17
ENDBRANCH   1  16
TORSDOF 6
ENDMDL
MODEL 4
REMARK VINA RESULT:    -6.890      3.341      8.315
REMARK INTER + INTRA:         -10.141
REMARK INTER:                  -9.700
REMARK INTRA:                  -0.441
REMARK UNBOUND:                -0.834
REMARK  Name = 
REMARK  7 active torsions:
REMARK  status: ('A' for Active; 'I' for Inactive)
REMARK    1  A    between atoms: C_1  and  C_2
REMARK    2  A    between atoms: C_2  and  C_3
REMARK    3  A    between atoms: C_2  and  C_14
REMARK    4  A    between atoms: C_3  and  N_4
REMARK    5  A    between atoms: C_8  and  C_9
REMARK    6  A    between atoms: C_18  and  O_19
REMARK    7  A    between atoms: O_19  and  C_20
REMARK                            x       y       z     vdW  Elec       q    Type
REMARK                         _______ _______ _______ _____ _____    ______ ____
ROOT
ATOM      1  C   UNL     1      47.328   5.878  13.294  0.00  0.00    +0.000 C 
ENDROOT
BRANCH   1   2
ATOM      2  N   UNL     1      46.674   4.920  14.184  0.00  0.00    +0.000 N 
ATOM      3  C   UNL     1      47.342   4.797  15.419  0.00  0.00    +0.000 A 
ATOM      4  C   UNL     1      46.863   3.883  16.358  0.00  0.00    +0.000 A 
ATOM      5  C   UNL     1      47.511   3.759  17.593  0.00  0.00    +0.000 A 
ATOM      6  C   UNL     1      48.624   4.550  17.871  0.00  0.00    +0.000 A 
ATOM      7  C   UNL     1      49.023   5.439  16.889  0.00  0.00    +0.000 A 
ATOM      8  N   UNL     1      48.408   5.576  15.690  0.00  0.00    +0.000 NA
ATOM      9  H   UNL     1      46.611   3.994  13.773  0.00  0.00    +0.000 HD
BRANCH   6  10
ATOM     10  C   UNL     1      49.322   4.414  19.173  0.00  0.00    +0.000 C 
ATOM     11  N   UNL     1      48.686   3.792  20.212  0.00  0.00    +0.000 N 
ATOM     12  O   UNL     1      50.462   4.841  19.326  0.00  0.00    +0.000 OA
ATOM     13  H   UNL     1      47.752   3.415  20.201  0.00  0.00    +0.000 HD
ATOM     14  H   UNL     1      49.200   3.730  21.083  0.00  0.00    +0.000 HD
ENDBRANCH   6  10
ENDBRANCH   1   2
BRANCH   1  16
ATOM     15  C   UNL     1      45.743   7.900  12.957  0.00  0.00    +0.000 C 
ATOM     16  C   UNL     1      46.310   6.603  12.455  0.00  0.00    +0.000 C 
BRANCH  16  17
ATOM     17  C   UNL     1      45.487   5.804  11.518  0.00  0.00    +0.000 A 
ATOM     18  C   UNL     1      44.241   5.291  11.896  0.00  0.00    +0.000 A 
ATOM     19  C   UNL     1      43.490   4.514  11.005  0.00  0.00    +0.000 A 
ATOM     20  C   UNL     1      43.970   4.239   9.721  0.00  0.00    +0.000 A 
ATOM     21  C   UNL     1      45.201   4.753   9.331  0.00  0.00    +0.000 A 
ATOM     22  C   UNL     1      45.943   5.533  10.220  0.00  0.00    +0.000 A 
BRANCH  21  23
ATOM     23  O   UNL     1      45.763   4.601   8.091  0.00  0.00    +0.000 OA
BRANCH  23  24
ATOM     24  C   UNL     1      45.640   3.331   7.416  0.00  0.00    +0.000 C 
ATOM     25  C   UNL     1      46.249   2.088   8.079  0.00  0.00    +0.000 C 
ATOM     26  O   UNL     1      47.095   1.824   6.934  0.00  0.00    +0.000 OA
ATOM     27  C   UNL     1      46.699   3.078   6.332  0.00  0.00    +0.000 C 
ENDBRANCH  23  24
ENDBRANCH  21  23
ENDBRANCH  16  17
ENDBRANCH   1  16
TORSDOF 6
ENDMDL
MODEL 5
REMARK VINA RESULT:    -6.393      1.464      2.073
REMARK INTER + INTRA:          -9.470
REMARK INTER:                  -8.789
REMARK INTRA:                  -0.681
REMARK UNBOUND:                -0.834
REMARK  Name = 
REMARK  7 active torsions:
REMARK  status: ('A' for Active; 'I' for Inactive)
REMARK    1  A    between atoms: C_1  and  C_2
REMARK    2  A    between atoms: C_2  and  C_3
REMARK    3  A    between atoms: C_2  and  C_14
REMARK    4  A    between atoms: C_3  and  N_4
REMARK    5  A    between atoms: C_8  and  C_9
REMARK    6  A    between atoms: C_18  and  O_19
REMARK    7  A    between atoms: O_19  and  C_20
REMARK                            x       y       z     vdW  Elec       q    Type
REMARK                         _______ _______ _______ _____ _____    ______ ____
ROOT
ATOM      1  C   UNL     1      44.462   5.701  11.048  0.00  0.00    +0.000 C 
ENDROOT
BRANCH   1   2
ATOM      2  N   UNL     1      45.099   5.861   9.742  0.00  0.00    +0.000 N 
ATOM      3  C   UNL     1      45.499   4.629   9.188  0.00  0.00    +0.000 A 
ATOM      4  C   UNL     1      46.165   4.623   7.963  0.00  0.00    +0.000 A 
ATOM      5  C   UNL     1      46.559   3.403   7.397  0.00  0.00    +0.000 A 
ATOM      6  C   UNL     1      46.280   2.211   8.063  0.00  0.00    +0.000 A 
ATOM      7  C   UNL     1      45.604   2.308   9.266  0.00  0.00    +0.000 A 
ATOM      8  N   UNL     1      45.212   3.477   9.828  0.00  0.00    +0.000 NA
ATOM      9  H   UNL     1      45.916   6.462   9.782  0.00  0.00    +0.000 HD
BRANCH   6  10
ATOM     10  C   UNL     1      46.706   0.918   7.475  0.00  0.00    +0.000 C 
ATOM     11  N   UNL     1      47.372   0.913   6.280  0.00  0.00    +0.000 N 
ATOM     12  O   UNL     1      46.479  -0.142   8.049  0.00  0.00    +0.000 OA
ATOM     13  H   UNL     1      47.602   1.718   5.721  0.00  0.00    +0.000 HD
ATOM     14  H   UNL     1      47.636   0.006   5.915  0.00  0.00    +0.000 HD
ENDBRANCH   6  10
ENDBRANCH   1   2
BRANCH   1  16
ATOM     15  C   UNL     1      44.376   8.243  11.543  0.00  0.00    +0.000 C 
ATOM     16  C   UNL     1      44.799   6.861  11.947  0.00  0.00    +0.000 C 
BRANCH  16  17
ATOM     17  C   UNL     1      45.975   6.729  12.838  0.00  0.00    +0.000 A 
ATOM     18  C   UNL     1      46.866   7.790  13.033  0.00  0.00    +0.000 A 
ATOM     19  C   UNL     1      47.988   7.638  13.857  0.00  0.00    +0.000 A 
ATOM     20  C   UNL     1      48.236   6.423  14.504  0.00  0.00    +0.000 A 
ATOM     21  C   UNL     1      47.351   5.366  14.328  0.00  0.00    +0.000 A 
ATOM     22  C   UNL     1      46.230   5.525  13.510  0.00  0.00    +0.000 A 
BRANCH  21  23
ATOM     23  O   UNL     1      47.449   4.143  14.939  0.00  0.00    +0.000 OA
BRANCH  23  24
ATOM     24  C   UNL     1      48.016   4.066  16.265  0.00  0.00    +0.000 C 
ATOM     25  C   UNL     1      48.566   2.717  16.748  0.00  0.00    +0.000 C 
ATOM     26  O   UNL     1      47.671   2.698  17.886  0.00  0.00    +0.000 OA
ATOM     27  C   UNL     1      46.987   3.871  17.389  0.00  0.00    +0.000 C 
ENDBRANCH  23  24
ENDBRANCH  21  23
ENDBRANCH  16  17
ENDBRANCH   1  16
TORSDOF 6
ENDMDL
MODEL 6
REMARK VINA RESULT:    -6.307      3.365      8.441
REMARK INTER + INTRA:          -9.353
REMARK INTER:                  -8.848
REMARK INTRA:                  -0.505
REMARK UNBOUND:                -0.834
REMARK  Name = 
REMARK  7 active torsions:
REMARK  status: ('A' for Active; 'I' for Inactive)
REMARK    1  A    between atoms: C_1  and  C_2
REMARK    2  A    between atoms: C_2  and  C_3
REMARK    3  A    between atoms: C_2  and  C_14
REMARK    4  A    between atoms: C_3  and  N_4
REMARK    5  A    between atoms: C_8  and  C_9
REMARK    6  A    between atoms: C_18  and  O_19
REMARK    7  A    between atoms: O_19  and  C_20
REMARK                            x       y       z     vdW  Elec       q    Type
REMARK                         _______ _______ _______ _____ _____    ______ ____
ROOT
ATOM      1  C   UNL     1      47.197   6.573  11.704  0.00  0.00    +0.000 C 
ENDROOT
BRANCH   1   2
ATOM      2  N   UNL     1      47.433   7.811  12.446  0.00  0.00    +0.000 N 
ATOM      3  C   UNL     1      47.902   7.568  13.753  0.00  0.00    +0.000 A 
ATOM      4  C   UNL     1      48.128   8.652  14.601  0.00  0.00    +0.000 A 
ATOM      5  C   UNL     1      48.604   8.425  15.899  0.00  0.00    +0.000 A 
ATOM      6  C   UNL     1      48.847   7.121  16.327  0.00  0.00    +0.000 A 
ATOM      7  C   UNL     1      48.608   6.107  15.417  0.00  0.00    +0.000 A 
ATOM      8  N   UNL     1      48.151   6.307  14.157  0.00  0.00    +0.000 NA
ATOM      9  H   UNL     1      46.598   8.382  12.518  0.00  0.00    +0.000 HD
BRANCH   6  10
ATOM     10  C   UNL     1      49.339   6.874  17.705  0.00  0.00    +0.000 C 
ATOM     11  N   UNL     1      49.315   5.602  18.206  0.00  0.00    +0.000 N 
ATOM     12  O   UNL     1      49.773   7.791  18.394  0.00  0.00    +0.000 OA
ATOM     13  H   UNL     1      48.972   4.780  17.735  0.00  0.00    +0.000 HD
ATOM     14  H   UNL     1      49.653   5.484  19.154  0.00  0.00    +0.000 HD
ENDBRANCH   6  10
ENDBRANCH   1   2
BRANCH   1  16
ATOM     15  C   UNL     1      44.715   7.292  11.898  0.00  0.00    +0.000 C 
ATOM     16  C   UNL     1      45.789   6.536  11.172  0.00  0.00    +0.000 C 
BRANCH  16  17
ATOM     17  C   UNL     1      45.384   5.362  10.363  0.00  0.00    +0.000 A 
ATOM     18  C   UNL     1      44.469   4.422  10.848  0.00  0.00    +0.000 A 
ATOM     19  C   UNL     1      44.119   3.304  10.081  0.00  0.00    +0.000 A 
ATOM     20  C   UNL     1      44.678   3.109   8.813  0.00  0.00    +0.000 A 
ATOM     21  C   UNL     1      45.580   4.042   8.317  0.00  0.00    +0.000 A 
ATOM     22  C   UNL     1      45.920   5.159   9.083  0.00  0.00    +0.000 A 
BRANCH  21  23
ATOM     23  O   UNL     1      46.160   3.997   7.076  0.00  0.00    +0.000 OA
BRANCH  23  24
ATOM     24  C   UNL     1      46.442   2.712   6.480  0.00  0.00    +0.000 C 
ATOM     25  C   UNL     1      47.441   1.783   7.182  0.00  0.00    +0.000 C 
ATOM     26  O   UNL     1      48.295   1.731   6.015  0.00  0.00    +0.000 OA
ATOM     27  C   UNL     1      47.496   2.743   5.363  0.00  0.00    +0.000 C 
ENDBRANCH  23  24
ENDBRANCH  21  23
ENDBRANCH  16  17
ENDBRANCH   1  16
TORSDOF 6
ENDMDL
MODEL 7
REMARK VINA RESULT:    -6.254      3.333      5.302
REMARK INTER + INTRA:          -9.283
REMARK INTER:                  -8.382
REMARK INTRA:                  -0.900
REMARK UNBOUND:                -0.834
REMARK  Name = 
REMARK  7 active torsions:
REMARK  status: ('A' for Active; 'I' for Inactive)
REMARK    1  A    between atoms: C_1  and  C_2
REMARK    2  A    between atoms: C_2  and  C_3
REMARK    3  A    between atoms: C_2  and  C_14
REMARK    4  A    between atoms: C_3  and  N_4
REMARK    5  A    between atoms: C_8  and  C_9
REMARK    6  A    between atoms: C_18  and  O_19
REMARK    7  A    between atoms: O_19  and  C_20
REMARK                            x       y       z     vdW  Elec       q    Type
REMARK                         _______ _______ _______ _____ _____    ______ ____
ROOT
ATOM      1  C   UNL     1      47.799   8.210  13.392  0.00  0.00    +0.000 C 
ENDROOT
BRANCH   1   2
ATOM      2  N   UNL     1      47.251   7.928  12.066  0.00  0.00    +0.000 N 
ATOM      3  C   UNL     1      46.495   6.740  12.043  0.00  0.00    +0.000 A 
ATOM      4  C   UNL     1      45.946   6.312  10.834  0.00  0.00    +0.000 A 
ATOM      5  C   UNL     1      45.183   5.137  10.800  0.00  0.00    +0.000 A 
ATOM      6  C   UNL     1      44.979   4.412  11.972  0.00  0.00    +0.000 A 
ATOM      7  C   UNL     1      45.548   4.916  13.128  0.00  0.00    +0.000 A 
ATOM      8  N   UNL     1      46.286   6.050  13.182  0.00  0.00    +0.000 NA
ATOM      9  H   UNL     1      47.976   7.847  11.360  0.00  0.00    +0.000 HD
BRANCH   6  10
ATOM     10  C   UNL     1      44.182   3.161  11.939  0.00  0.00    +0.000 C 
ATOM     11  N   UNL     1      44.124   2.435  10.782  0.00  0.00    +0.000 N 
ATOM     12  O   UNL     1      43.584   2.767  12.935  0.00  0.00    +0.000 OA
ATOM     13  H   UNL     1      44.565   2.668   9.907  0.00  0.00    +0.000 HD
ATOM     14  H   UNL     1      43.562   1.592  10.806  0.00  0.00    +0.000 HD
ENDBRANCH   6  10
ENDBRANCH   1   2
BRANCH   1  16
ATOM     15  C   UNL     1      50.012   7.878  12.085  0.00  0.00    +0.000 C 
ATOM     16  C   UNL     1      49.295   8.044  13.394  0.00  0.00    +0.000 C 
BRANCH  16  17
ATOM     17  C   UNL     1      49.929   7.478  14.607  0.00  0.00    +0.000 A 
ATOM     18  C   UNL     1      51.280   7.698  14.896  0.00  0.00    +0.000 A 
ATOM     19  C   UNL     1      51.868   7.131  16.034  0.00  0.00    +0.000 A 
ATOM     20  C   UNL     1      51.114   6.336  16.903  0.00  0.00    +0.000 A 
ATOM     21  C   UNL     1      49.768   6.120  16.632  0.00  0.00    +0.000 A 
ATOM     22  C   UNL     1      49.185   6.693  15.500  0.00  0.00    +0.000 A 
BRANCH  21  23
ATOM     23  O   UNL     1      48.908   5.406  17.424  0.00  0.00    +0.000 OA
BRANCH  23  24
ATOM     24  C   UNL     1      48.487   4.092  16.995  0.00  0.00    +0.000 C 
ATOM     25  C   UNL     1      47.082   3.933  16.399  0.00  0.00    +0.000 C 
ATOM     26  O   UNL     1      46.707   2.961  17.404  0.00  0.00    +0.000 OA
ATOM     27  C   UNL     1      47.940   3.198  18.118  0.00  0.00    +0.000 C 
ENDBRANCH  23  24
ENDBRANCH  21  23
ENDBRANCH  16  17
ENDBRANCH   1  16
TORSDOF 6
ENDMDL
MODEL 8
REMARK VINA RESULT:    -5.972      4.338      8.381
REMARK INTER + INTRA:          -8.901
REMARK INTER:                  -8.400
REMARK INTRA:                  -0.501
REMARK UNBOUND:                -0.834
REMARK  Name = 
REMARK  7 active torsions:
REMARK  status: ('A' for Active; 'I' for Inactive)
REMARK    1  A    between atoms: C_1  and  C_2
REMARK    2  A    between atoms: C_2  and  C_3
REMARK    3  A    between atoms: C_2  and  C_14
REMARK    4  A    between atoms: C_3  and  N_4
REMARK    5  A    between atoms: C_8  and  C_9
REMARK    6  A    between atoms: C_18  and  O_19
REMARK    7  A    between atoms: O_19  and  C_20
REMARK                            x       y       z     vdW  Elec       q    Type
REMARK                         _______ _______ _______ _____ _____    ______ ____
ROOT
ATOM      1  C   UNL     1      48.273   6.845  14.499  0.00  0.00    +0.000 C 
ENDROOT
BRANCH   1   2
ATOM      2  N   UNL     1      47.697   5.602  15.009  0.00  0.00    +0.000 N 
ATOM      3  C   UNL     1      48.077   5.346  16.342  0.00  0.00    +0.000 A 
ATOM      4  C   UNL     1      47.644   4.169  16.953  0.00  0.00    +0.000 A 
ATOM      5  C   UNL     1      48.005   3.908  18.281  0.00  0.00    +0.000 A 
ATOM      6  C   UNL     1      48.791   4.825  18.976  0.00  0.00    +0.000 A 
ATOM      7  C   UNL     1      49.165   5.972  18.298  0.00  0.00    +0.000 A 
ATOM      8  N   UNL     1      48.823   6.244  17.015  0.00  0.00    +0.000 NA
ATOM      9  H   UNL     1      47.964   4.797  14.451  0.00  0.00    +0.000 HD
BRANCH   6  10
ATOM     10  C   UNL     1      49.188   4.547  20.378  0.00  0.00    +0.000 C 
ATOM     11  N   UNL     1      50.511   4.592  20.721  0.00  0.00    +0.000 N 
ATOM     12  O   UNL     1      48.347   4.288  21.232  0.00  0.00    +0.000 OA
ATOM     13  H   UNL     1      51.283   4.784  20.103  0.00  0.00    +0.000 HD
ATOM     14  H   UNL     1      50.733   4.388  21.688  0.00  0.00    +0.000 HD
ENDBRANCH   6  10
ENDBRANCH   1   2
BRANCH   1  16
ATOM     15  C   UNL     1      49.417   7.239  12.207  0.00  0.00    +0.000 C 
ATOM     16  C   UNL     1      48.188   6.891  12.996  0.00  0.00    +0.000 C 
BRANCH  16  17
ATOM     17  C   UNL     1      46.869   7.175  12.385  0.00  0.00    +0.000 A 
ATOM     18  C   UNL     1      46.340   8.470  12.359  0.00  0.00    +0.000 A 
ATOM     19  C   UNL     1      45.079   8.714  11.801  0.00  0.00    +0.000 A 
ATOM     20  C   UNL     1      44.327   7.668  11.256  0.00  0.00    +0.000 A 
ATOM     21  C   UNL     1      44.848   6.379  11.266  0.00  0.00    +0.000 A 
ATOM     22  C   UNL     1      46.109   6.142  11.817  0.00  0.00    +0.000 A 
BRANCH  21  23
ATOM     23  O   UNL     1      44.240   5.277  10.724  0.00  0.00    +0.000 OA
BRANCH  23  24
ATOM     24  C   UNL     1      43.267   4.556  11.510  0.00  0.00    +0.000 C 
ATOM     25  C   UNL     1      43.114   4.914  12.994  0.00  0.00    +0.000 C 
ATOM     26  O   UNL     1      43.420   3.561  13.408  0.00  0.00    +0.000 OA
ATOM     27  C   UNL     1      43.757   3.204  12.048  0.00  0.00    +0.000 C 
ENDBRANCH  23  24
ENDBRANCH  21  23
ENDBRANCH  16  17
ENDBRANCH   1  16
TORSDOF 6
ENDMDL
MODEL 9
REMARK VINA RESULT:    -5.902      3.376      5.854
REMARK INTER + INTRA:          -8.806
REMARK INTER:                  -8.107
REMARK INTRA:                  -0.699
REMARK UNBOUND:                -0.834
REMARK  Name = 
REMARK  7 active torsions:
REMARK  status: ('A' for Active; 'I' for Inactive)
REMARK    1  A    between atoms: C_1  and  C_2
REMARK    2  A    between atoms: C_2  and  C_3
REMARK    3  A    between atoms: C_2  and  C_14
REMARK    4  A    between atoms: C_3  and  N_4
REMARK    5  A    between atoms: C_8  and  C_9
REMARK    6  A    between atoms: C_18  and  O_19
REMARK    7  A    between atoms: O_19  and  C_20
REMARK                            x       y       z     vdW  Elec       q    Type
REMARK                         _______ _______ _______ _____ _____    ______ ____
ROOT
ATOM      1  C   UNL     1      48.428   6.707  14.325  0.00  0.00    +0.000 C 
ENDROOT
BRANCH   1   2
ATOM      2  N   UNL     1      47.156   7.227  13.828  0.00  0.00    +0.000 N 
ATOM      3  C   UNL     1      46.393   6.237  13.176  0.00  0.00    +0.000 A 
ATOM      4  C   UNL     1      45.171   6.593  12.605  0.00  0.00    +0.000 A 
ATOM      5  C   UNL     1      44.398   5.616  11.964  0.00  0.00    +0.000 A 
ATOM      6  C   UNL     1      44.857   4.301  11.907  0.00  0.00    +0.000 A 
ATOM      7  C   UNL     1      46.072   4.034  12.512  0.00  0.00    +0.000 A 
ATOM      8  N   UNL     1      46.833   4.963  13.138  0.00  0.00    +0.000 NA
ATOM      9  H   UNL     1      47.282   7.997  13.178  0.00  0.00    +0.000 HD
BRANCH   6  10
ATOM     10  C   UNL     1      44.049   3.265  11.219  0.00  0.00    +0.000 C 
ATOM     11  N   UNL     1      44.661   2.406  10.348  0.00  0.00    +0.000 N 
ATOM     12  O   UNL     1      42.844   3.163  11.427  0.00  0.00    +0.000 OA
ATOM     13  H   UNL     1      45.637   2.405  10.097  0.00  0.00    +0.000 HD
ATOM     14  H   UNL     1      44.067   1.721   9.897  0.00  0.00    +0.000 HD
ENDBRANCH   6  10
ENDBRANCH   1   2
BRANCH   1  16
ATOM     15  C   UNL     1      49.053   7.966  16.503  0.00  0.00    +0.000 C 
ATOM     16  C   UNL     1      48.469   6.757  15.830  0.00  0.00    +0.000 C 
BRANCH  16  17
ATOM     17  C   UNL     1      48.499   5.472  16.566  0.00  0.00    +0.000 A 
ATOM     18  C   UNL     1      47.372   4.646  16.639  0.00  0.00    +0.000 A 
ATOM     19  C   UNL     1      47.412   3.448  17.363  0.00  0.00    +0.000 A 
ATOM     20  C   UNL     1      48.580   3.054  18.023  0.00  0.00    +0.000 A 
ATOM     21  C   UNL     1      49.709   3.861  17.948  0.00  0.00    +0.000 A 
ATOM     22  C   UNL     1      49.667   5.051  17.219  0.00  0.00    +0.000 A 
BRANCH  21  23
ATOM     23  O   UNL     1      50.927   3.569  18.504  0.00  0.00    +0.000 OA
BRANCH  23  24
ATOM     24  C   UNL     1      51.883   2.806  17.737  0.00  0.00    +0.000 C 
ATOM     25  C   UNL     1      51.641   1.301  17.554  0.00  0.00    +0.000 C 
ATOM     26  O   UNL     1      52.911   0.967  18.163  0.00  0.00    +0.000 OA
ATOM     27  C   UNL     1      53.119   2.351  18.528  0.00  0.00    +0.000 C 
ENDBRANCH  23  24
ENDBRANCH  21  23
ENDBRANCH  16  17
ENDBRANCH   1  16
TORSDOF 6
ENDMDL
