MODEL 1
REMARK VINA RESULT:    -8.271      0.000      0.000
REMARK INTER + INTRA:         -13.203
REMARK INTER:                 -11.898
REMARK INTRA:                  -1.305
REMARK UNBOUND:                -1.305
REMARK  Name = 
REMARK  8 active torsions:
REMARK  status: ('A' for Active; 'I' for Inactive)
REMARK    1  A    between atoms: C_2  and  C_20
REMARK    2  A    between atoms: N_3  and  C_4
REMARK    3  A    between atoms: C_4  and  C_5
REMARK    4  A    between atoms: C_8  and  C_9
REMARK    5  A    between atoms: C_9  and  O_10
REMARK    6  A    between atoms: O_10  and  C_11
REMARK    7  A    between atoms: C_11  and  C_12
REMARK    8  A    between atoms: C_27  and  O_28
REMARK                            x       y       z     vdW  Elec       q    Type
REMARK                         _______ _______ _______ _____ _____    ______ ____
ROOT
ATOM      1  C   UNL     1      46.907   7.692  13.074  0.00  0.00    +0.000 C 
ENDROOT
BRANCH   1   2
ATOM      2  C   UNL     1      46.035   6.604  12.500  0.00  0.00    +0.000 A 
ATOM      3  C   UNL     1      45.923   6.414  11.114  0.00  0.00    +0.000 A 
ATOM      4  C   UNL     1      45.134   5.379  10.599  0.00  0.00    +0.000 A 
ATOM      5  C   UNL     1      44.424   4.523  11.453  0.00  0.00    +0.000 A 
ATOM      6  C   UNL     1      44.512   4.736  12.834  0.00  0.00    +0.000 A 
ATOM      7  C   UNL     1      45.302   5.767  13.352  0.00  0.00    +0.000 A 
BRANCH   5   8
ATOM      8  C   UNL     1      43.572   3.406  10.900  0.00  0.00    +0.000 C 
BRANCH   8   9
ATOM      9  O   UNL     1      43.934   3.173   9.544  0.00  0.00    +0.000 OA
BRANCH   9  10
ATOM     10  C   UNL     1      44.718   1.991   9.391  0.00  0.00    +0.000 C 
BRANCH  10  11
ATOM     11  C   UNL     1      45.726   2.178   8.281  0.00  0.00    +0.000 A 
ATOM     12  C   UNL     1      46.575   1.133   7.892  0.00  0.00    +0.000 A 
ATOM     13  C   UNL     1      47.478   1.298   6.840  0.00  0.00    +0.000 A 
ATOM     14  C   UNL     1      47.532   2.509   6.154  0.00  0.00    +0.000 A 
ATOM     15  C   UNL     1      46.689   3.556   6.523  0.00  0.00    +0.000 A 
ATOM     16  C   UNL     1      45.787   3.391   7.578  0.00  0.00    +0.000 A 
ENDBRANCH  10  11
ENDBRANCH   9  10
ENDBRANCH   8   9
ENDBRANCH   5   8
ENDBRANCH   1   2
BRANCH   1  19
ATOM     17  O   UNL     1      49.533   6.813  13.550  0.00  0.00    +0.000 OA
ATOM     18  C   UNL     1      48.767   6.946  14.500  0.00  0.00    +0.000 C 
ATOM     19  N   UNL     1      47.453   7.307  14.346  0.00  0.00    +0.000 N 
ATOM     20  H   UNL     1      46.954   7.611  15.174  0.00  0.00    +0.000 HD
BRANCH  18  21
ATOM     21  C   UNL     1      49.188   6.684  15.881  0.00  0.00    +0.000 A 
ATOM     22  C   UNL     1      49.986   7.600  16.554  0.00  0.00    +0.000 A 
ATOM     23  S   UNL     1      50.358   7.128  18.149  0.00  0.00    +0.000 S 
ATOM     24  C   UNL     1      49.438   5.702  17.996  0.00  0.00    +0.000 A 
ATOM     25  N   UNL     1      49.320   4.862  19.047  0.00  0.00    +0.000 NA
ATOM     26  C   UNL     1      48.574   3.772  18.804  0.00  0.00    +0.000 A 
ATOM     27  C   UNL     1      47.959   3.468  17.603  0.00  0.00    +0.000 A 
ATOM     28  C   UNL     1      48.115   4.368  16.557  0.00  0.00    +0.000 A 
ATOM     29  C   UNL     1      48.876   5.550  16.732  0.00  0.00    +0.000 A 
BRANCH  28  30
ATOM     30  O   UNL     1      47.529   4.084  15.347  0.00  0.00    +0.000 OA
ATOM     31  H   UNL     1      48.180   3.689  14.742  0.00  0.00    +0.000 HD
ENDBRANCH  28  30
ENDBRANCH  18  21
ENDBRANCH   1  19
TORSDOF 8
ENDMDL
MODEL 2
REMARK VINA RESULT:    -8.147      1.915      2.667
REMARK INTER + INTRA:         -13.024
REMARK INTER:                 -11.897
REMARK INTRA:                  -1.127
REMARK UNBOUND:                -1.305
REMARK  Name = 
REMARK  8 active torsions:
REMARK  status: ('A' for Active; 'I' for Inactive)
REMARK    1  A    between atoms: C_2  and  C_20
REMARK    2  A    between atoms: N_3  and  C_4
REMARK    3  A    between atoms: C_4  and  C_5
REMARK    4  A    between atoms: C_8  and  C_9
REMARK    5  A    between atoms: C_9  and  O_10
REMARK    6  A    between atoms: O_10  and  C_11
REMARK    7  A    between atoms: C_11  and  C_12
REMARK    8  A    between atoms: C_27  and  O_28
REMARK                            x       y       z     vdW  Elec       q    Type
REMARK                         _______ _______ _______ _____ _____    ______ ____
ROOT
ATOM      1  C   UNL     1      48.085   6.715  13.793  0.00  0.00    +0.000 C 
ENDROOT
BRANCH   1   2
ATOM      2  C   UNL     1      46.930   6.132  13.018  0.00  0.00    +0.000 A 
ATOM      3  C   UNL     1      46.107   5.140  13.573  0.00  0.00    +0.000 A 
ATOM      4  C   UNL     1      45.019   4.633  12.851  0.00  0.00    +0.000 A 
ATOM      5  C   UNL     1      44.741   5.089  11.555  0.00  0.00    +0.000 A 
ATOM      6  C   UNL     1      45.584   6.055  10.992  0.00  0.00    +0.000 A 
ATOM      7  C   UNL     1      46.668   6.566  11.712  0.00  0.00    +0.000 A 
BRANCH   5   8
ATOM      8  C   UNL     1      43.569   4.544  10.775  0.00  0.00    +0.000 C 
BRANCH   8   9
ATOM      9  O   UNL     1      44.024   4.101   9.502  0.00  0.00    +0.000 OA
BRANCH   9  10
ATOM     10  C   UNL     1      44.567   2.782   9.552  0.00  0.00    +0.000 C 
BRANCH  10  11
ATOM     11  C   UNL     1      45.536   2.579   8.412  0.00  0.00    +0.000 A 
ATOM     12  C   UNL     1      45.859   3.629   7.541  0.00  0.00    +0.000 A 
ATOM     13  C   UNL     1      46.785   3.447   6.512  0.00  0.00    +0.000 A 
ATOM     14  C   UNL     1      47.411   2.214   6.351  0.00  0.00    +0.000 A 
ATOM     15  C   UNL     1      47.108   1.162   7.213  0.00  0.00    +0.000 A 
ATOM     16  C   UNL     1      46.179   1.343   8.241  0.00  0.00    +0.000 A 
ENDBRANCH  10  11
ENDBRANCH   9  10
ENDBRANCH   8   9
ENDBRANCH   5   8
ENDBRANCH   1   2
BRANCH   1  19
ATOM     17  O   UNL     1      50.279   6.512  15.538  0.00  0.00    +0.000 OA
ATOM     18  C   UNL     1      49.149   6.314  15.974  0.00  0.00    +0.000 C 
ATOM     19  N   UNL     1      48.034   6.328  15.176  0.00  0.00    +0.000 N 
ATOM     20  H   UNL     1      47.133   6.380  15.637  0.00  0.00    +0.000 HD
BRANCH  18  21
ATOM     21  C   UNL     1      48.906   5.998  17.387  0.00  0.00    +0.000 A 
ATOM     22  C   UNL     1      49.254   4.754  17.895  0.00  0.00    +0.000 A 
ATOM     23  S   UNL     1      48.909   4.582  19.555  0.00  0.00    +0.000 S 
ATOM     24  C   UNL     1      48.313   6.175  19.649  0.00  0.00    +0.000 A 
ATOM     25  N   UNL     1      47.885   6.664  20.833  0.00  0.00    +0.000 NA
ATOM     26  C   UNL     1      47.435   7.929  20.780  0.00  0.00    +0.000 A 
ATOM     27  C   UNL     1      47.377   8.717  19.644  0.00  0.00    +0.000 A 
ATOM     28  C   UNL     1      47.830   8.160  18.454  0.00  0.00    +0.000 A 
ATOM     29  C   UNL     1      48.331   6.836  18.425  0.00  0.00    +0.000 A 
BRANCH  28  30
ATOM     30  O   UNL     1      47.768   8.913  17.308  0.00  0.00    +0.000 OA
ATOM     31  H   UNL     1      46.963   9.458  17.305  0.00  0.00    +0.000 HD
ENDBRANCH  28  30
ENDBRANCH  18  21
ENDBRANCH   1  19
TORSDOF 8
ENDMDL
MODEL 3
REMARK VINA RESULT:    -7.693      2.141      2.766
REMARK INTER + INTRA:         -12.371
REMARK INTER:                 -11.270
REMARK INTRA:                  -1.101
REMARK UNBOUND:                -1.305
REMARK  Name = 
REMARK  8 active torsions:
REMARK  status: ('A' for Active; 'I' for Inactive)
REMARK    1  A    between atoms: C_2  and  C_20
REMARK    2  A    between atoms: N_3  and  C_4
REMARK    3  A    between atoms: C_4  and  C_5
REMARK    4  A    between atoms: C_8  and  C_9
REMARK    5  A    between atoms: C_9  and  O_10
REMARK    6  A    between atoms: O_10  and  C_11
REMARK    7  A    between atoms: C_11  and  C_12
REMARK    8  A    between atoms: C_27  and  O_28
REMARK                            x       y       z     vdW  Elec       q    Type
REMARK                         _______ _______ _______ _____ _____    ______ ____
ROOT
ATOM      1  C   UNL     1      47.359   3.983  14.792  0.00  0.00    +0.000 C 
ENDROOT
BRANCH   1   2
ATOM      2  C   UNL     1      46.408   4.199  13.642  0.00  0.00    +0.000 A 
ATOM      3  C   UNL     1      45.885   3.119  12.915  0.00  0.00    +0.000 A 
ATOM      4  C   UNL     1      44.979   3.336  11.869  0.00  0.00    +0.000 A 
ATOM      5  C   UNL     1      44.590   4.635  11.514  0.00  0.00    +0.000 A 
ATOM      6  C   UNL     1      45.139   5.713  12.220  0.00  0.00    +0.000 A 
ATOM      7  C   UNL     1      46.041   5.499  13.266  0.00  0.00    +0.000 A 
BRANCH   5   8
ATOM      8  C   UNL     1      43.613   4.872  10.387  0.00  0.00    +0.000 C 
BRANCH   8   9
ATOM      9  O   UNL     1      43.972   4.052   9.281  0.00  0.00    +0.000 OA
BRANCH   9  10
ATOM     10  C   UNL     1      45.157   4.512   8.632  0.00  0.00    +0.000 C 
BRANCH  10  11
ATOM     11  C   UNL     1      45.891   3.347   8.011  0.00  0.00    +0.000 A 
ATOM     12  C   UNL     1      45.796   2.058   8.556  0.00  0.00    +0.000 A 
ATOM     13  C   UNL     1      46.444   0.978   7.956  0.00  0.00    +0.000 A 
ATOM     14  C   UNL     1      47.186   1.171   6.793  0.00  0.00    +0.000 A 
ATOM     15  C   UNL     1      47.285   2.443   6.234  0.00  0.00    +0.000 A 
ATOM     16  C   UNL     1      46.637   3.526   6.836  0.00  0.00    +0.000 A 
ENDBRANCH  10  11
ENDBRANCH   9  10
ENDBRANCH   8   9
ENDBRANCH   5   8
ENDBRANCH   1   2
BRANCH   1  19
ATOM     17  O   UNL     1      49.254   4.439  16.816  0.00  0.00    +0.000 OA
ATOM     18  C   UNL     1      48.439   5.318  16.553  0.00  0.00    +0.000 C 
ATOM     19  N   UNL     1      47.442   5.150  15.627  0.00  0.00    +0.000 N 
ATOM     20  H   UNL     1      46.958   5.981  15.308  0.00  0.00    +0.000 HD
BRANCH  18  21
ATOM     21  C   UNL     1      48.439   6.611  17.246  0.00  0.00    +0.000 A 
ATOM     22  C   UNL     1      48.733   7.777  16.551  0.00  0.00    +0.000 A 
ATOM     23  S   UNL     1      48.669   9.176  17.522  0.00  0.00    +0.000 S 
ATOM     24  C   UNL     1      48.218   8.269  18.891  0.00  0.00    +0.000 A 
ATOM     25  N   UNL     1      47.971   8.895  20.061  0.00  0.00    +0.000 NA
ATOM     26  C   UNL     1      47.627   8.074  21.068  0.00  0.00    +0.000 A 
ATOM     27  C   UNL     1      47.525   6.697  20.985  0.00  0.00    +0.000 A 
ATOM     28  C   UNL     1      47.792   6.107  19.756  0.00  0.00    +0.000 A 
ATOM     29  C   UNL     1      48.150   6.902  18.639  0.00  0.00    +0.000 A 
BRANCH  28  30
ATOM     30  O   UNL     1      47.716   4.740  19.649  0.00  0.00    +0.000 OA
ATOM     31  H   UNL     1      47.835   4.327  20.521  0.00  0.00    +0.000 HD
ENDBRANCH  28  30
ENDBRANCH  18  21
ENDBRANCH   1  19
TORSDOF 8
ENDMDL
MODEL 4
REMARK VINA RESULT:    -7.658      1.588      2.170
REMARK INTER + INTRA:         -12.321
REMARK INTER:                 -11.263
REMARK INTRA:                  -1.058
REMARK UNBOUND:                -1.305
REMARK  Name = 
REMARK  8 active torsions:
REMARK  status: ('A' for Active; 'I' for Inactive)
REMARK    1  A    between atoms: C_2  and  C_20
REMARK    2  A    between atoms: N_3  and  C_4
REMARK    3  A    between atoms: C_4  and  C_5
REMARK    4  A    between atoms: C_8  and  C_9
REMARK    5  A    between atoms: C_9  and  O_10
REMARK    6  A    between atoms: O_10  and  C_11
REMARK    7  A    between atoms: C_11  and  C_12
REMARK    8  A    between atoms: C_27  and  O_28
REMARK                            x       y       z     vdW  Elec       q    Type
REMARK                         _______ _______ _______ _____ _____    ______ ____
ROOT
ATOM      1  C   UNL     1      48.384   7.436  13.685  0.00  0.00    +0.000 C 
ENDROOT
BRANCH   1   2
ATOM      2  C   UNL     1      47.369   6.526  13.038  0.00  0.00    +0.000 A 
ATOM      3  C   UNL     1      46.931   5.355  13.673  0.00  0.00    +0.000 A 
ATOM      4  C   UNL     1      45.966   4.537  13.071  0.00  0.00    +0.000 A 
ATOM      5  C   UNL     1      45.431   4.861  11.817  0.00  0.00    +0.000 A 
ATOM      6  C   UNL     1      45.895   6.015  11.171  0.00  0.00    +0.000 A 
ATOM      7  C   UNL     1      46.856   6.834  11.771  0.00  0.00    +0.000 A 
BRANCH   5   8
ATOM      8  C   UNL     1      44.390   3.982  11.166  0.00  0.00    +0.000 C 
BRANCH   8   9
ATOM      9  O   UNL     1      45.016   2.800  10.684  0.00  0.00    +0.000 OA
BRANCH   9  10
ATOM     10  C   UNL     1      44.455   2.358   9.449  0.00  0.00    +0.000 C 
BRANCH  10  11
ATOM     11  C   UNL     1      45.503   2.396   8.361  0.00  0.00    +0.000 A 
ATOM     12  C   UNL     1      45.735   3.565   7.622  0.00  0.00    +0.000 A 
ATOM     13  C   UNL     1      46.731   3.608   6.645  0.00  0.00    +0.000 A 
ATOM     14  C   UNL     1      47.517   2.483   6.404  0.00  0.00    +0.000 A 
ATOM     15  C   UNL     1      47.305   1.316   7.135  0.00  0.00    +0.000 A 
ATOM     16  C   UNL     1      46.306   1.273   8.112  0.00  0.00    +0.000 A 
ENDBRANCH  10  11
ENDBRANCH   9  10
ENDBRANCH   8   9
ENDBRANCH   5   8
ENDBRANCH   1   2
BRANCH   1  19
ATOM     17  O   UNL     1      49.845   6.145  15.709  0.00  0.00    +0.000 OA
ATOM     18  C   UNL     1      48.956   6.930  16.023  0.00  0.00    +0.000 C 
ATOM     19  N   UNL     1      48.154   7.550  15.099  0.00  0.00    +0.000 N 
ATOM     20  H   UNL     1      47.605   8.340  15.416  0.00  0.00    +0.000 HD
BRANCH  18  21
ATOM     21  C   UNL     1      48.649   7.236  17.426  0.00  0.00    +0.000 A 
ATOM     22  C   UNL     1      48.267   8.519  17.794  0.00  0.00    +0.000 A 
ATOM     23  S   UNL     1      47.939   8.674  19.459  0.00  0.00    +0.000 S 
ATOM     24  C   UNL     1      48.268   7.024  19.730  0.00  0.00    +0.000 A 
ATOM     25  N   UNL     1      48.131   6.505  20.969  0.00  0.00    +0.000 NA
ATOM     26  C   UNL     1      48.422   5.197  21.058  0.00  0.00    +0.000 A 
ATOM     27  C   UNL     1      48.840   4.392  20.013  0.00  0.00    +0.000 A 
ATOM     28  C   UNL     1      48.964   4.980  18.761  0.00  0.00    +0.000 A 
ATOM     29  C   UNL     1      48.665   6.352  18.578  0.00  0.00    +0.000 A 
BRANCH  28  30
ATOM     30  O   UNL     1      49.393   4.208  17.709  0.00  0.00    +0.000 OA
ATOM     31  H   UNL     1      50.042   4.698  17.175  0.00  0.00    +0.000 HD
ENDBRANCH  28  30
ENDBRANCH  18  21
ENDBRANCH   1  19
TORSDOF 8
ENDMDL
MODEL 5
REMARK VINA RESULT:    -7.485      2.294      4.202
REMARK INTER + INTRA:         -12.072
REMARK INTER:                 -10.743
REMARK INTRA:                  -1.330
REMARK UNBOUND:                -1.305
REMARK  Name = 
REMARK  8 active torsions:
REMARK  status: ('A' for Active; 'I' for Inactive)
REMARK    1  A    between atoms: C_2  and  C_20
REMARK    2  A    between atoms: N_3  and  C_4
REMARK    3  A    between atoms: C_4  and  C_5
REMARK    4  A    between atoms: C_8  and  C_9
REMARK    5  A    between atoms: C_9  and  O_10
REMARK    6  A    between atoms: O_10  and  C_11
REMARK    7  A    between atoms: C_11  and  C_12
REMARK    8  A    between atoms: C_27  and  O_28
REMARK                            x       y       z     vdW  Elec       q    Type
REMARK                         _______ _______ _______ _____ _____    ______ ____
ROOT
ATOM      1  C   UNL     1      47.622   5.327  14.630  0.00  0.00    +0.000 C 
ENDROOT
BRANCH   1   2
ATOM      2  C   UNL     1      46.547   4.956  13.639  0.00  0.00    +0.000 A 
ATOM      3  C   UNL     1      46.314   3.619  13.285  0.00  0.00    +0.000 A 
ATOM      4  C   UNL     1      45.291   3.289  12.386  0.00  0.00    +0.000 A 
ATOM      5  C   UNL     1      44.493   4.286  11.809  0.00  0.00    +0.000 A 
ATOM      6  C   UNL     1      44.750   5.622  12.140  0.00  0.00    +0.000 A 
ATOM      7  C   UNL     1      45.768   5.954  13.039  0.00  0.00    +0.000 A 
BRANCH   5   8
ATOM      8  C   UNL     1      43.390   3.933  10.840  0.00  0.00    +0.000 C 
BRANCH   8   9
ATOM      9  O   UNL     1      43.925   3.120   9.803  0.00  0.00    +0.000 OA
BRANCH   9  10
ATOM     10  C   UNL     1      44.562   3.893   8.787  0.00  0.00    +0.000 C 
BRANCH  10  11
ATOM     11  C   UNL     1      45.588   3.052   8.064  0.00  0.00    +0.000 A 
ATOM     12  C   UNL     1      45.845   1.730   8.456  0.00  0.00    +0.000 A 
ATOM     13  C   UNL     1      46.765   0.944   7.760  0.00  0.00    +0.000 A 
ATOM     14  C   UNL     1      47.430   1.466   6.653  0.00  0.00    +0.000 A 
ATOM     15  C   UNL     1      47.180   2.775   6.246  0.00  0.00    +0.000 A 
ATOM     16  C   UNL     1      46.260   3.563   6.943  0.00  0.00    +0.000 A 
ENDBRANCH  10  11
ENDBRANCH   9  10
ENDBRANCH   8   9
ENDBRANCH   5   8
ENDBRANCH   1   2
BRANCH   1  19
ATOM     17  O   UNL     1      50.047   6.647  15.152  0.00  0.00    +0.000 OA
ATOM     18  C   UNL     1      49.052   7.313  14.881  0.00  0.00    +0.000 C 
ATOM     19  N   UNL     1      47.818   6.750  14.678  0.00  0.00    +0.000 N 
ATOM     20  H   UNL     1      47.109   7.329  14.244  0.00  0.00    +0.000 HD
BRANCH  18  21
ATOM     21  C   UNL     1      49.096   8.777  14.796  0.00  0.00    +0.000 A 
ATOM     22  C   UNL     1      49.395   9.533  15.921  0.00  0.00    +0.000 A 
ATOM     23  S   UNL     1      49.413  11.211  15.621  0.00  0.00    +0.000 S 
ATOM     24  C   UNL     1      49.054  10.973  13.973  0.00  0.00    +0.000 A 
ATOM     25  N   UNL     1      48.967  12.034  13.143  0.00  0.00    +0.000 NA
ATOM     26  C   UNL     1      48.675  11.720  11.870  0.00  0.00    +0.000 A 
ATOM     27  C   UNL     1      48.461  10.443  11.384  0.00  0.00    +0.000 A 
ATOM     28  C   UNL     1      48.562   9.390  12.284  0.00  0.00    +0.000 A 
ATOM     29  C   UNL     1      48.878   9.632  13.643  0.00  0.00    +0.000 A 
BRANCH  28  30
ATOM     30  O   UNL     1      48.337   8.112  11.833  0.00  0.00    +0.000 OA
ATOM     31  H   UNL     1      49.180   7.640  11.723  0.00  0.00    +0.000 HD
ENDBRANCH  28  30
ENDBRANCH  18  21
ENDBRANCH   1  19
TORSDOF 8
ENDMDL
MODEL 6
REMARK VINA RESULT:    -7.401      1.713      3.345
REMARK INTER + INTRA:         -11.951
REMARK INTER:                 -10.687
REMARK INTRA:                  -1.265
REMARK UNBOUND:                -1.305
REMARK  Name = 
REMARK  8 active torsions:
REMARK  status: ('A' for Active; 'I' for Inactive)
REMARK    1  A    between atoms: C_2  and  C_20
REMARK    2  A    between atoms: N_3  and  C_4
REMARK    3  A    between atoms: C_4  and  C_5
REMARK    4  A    between atoms: C_8  and  C_9
REMARK    5  A    between atoms: C_9  and  O_10
REMARK    6  A    between atoms: O_10  and  C_11
REMARK    7  A    between atoms: C_11  and  C_12
REMARK    8  A    between atoms: C_27  and  O_28
REMARK                            x       y       z     vdW  Elec       q    Type
REMARK                         _______ _______ _______ _____ _____    ______ ____
ROOT
ATOM      1  C   UNL     1      47.310   4.101  15.130  0.00  0.00    +0.000 C 
ENDROOT
BRANCH   1   2
ATOM      2  C   UNL     1      46.411   4.259  13.930  0.00  0.00    +0.000 A 
ATOM      3  C   UNL     1      46.099   3.168  13.105  0.00  0.00    +0.000 A 
ATOM      4  C   UNL     1      45.237   3.326  12.012  0.00  0.00    +0.000 A 
ATOM      5  C   UNL     1      44.683   4.577  11.708  0.00  0.00    +0.000 A 
ATOM      6  C   UNL     1      45.023   5.671  12.515  0.00  0.00    +0.000 A 
ATOM      7  C   UNL     1      45.880   5.515  13.608  0.00  0.00    +0.000 A 
BRANCH   5   8
ATOM      8  C   UNL     1      43.754   4.750  10.531  0.00  0.00    +0.000 C 
BRANCH   8   9
ATOM      9  O   UNL     1      44.008   3.720   9.584  0.00  0.00    +0.000 OA
BRANCH   9  10
ATOM     10  C   UNL     1      44.653   4.214   8.410  0.00  0.00    +0.000 C 
BRANCH  10  11
ATOM     11  C   UNL     1      45.625   3.185   7.883  0.00  0.00    +0.000 A 
ATOM     12  C   UNL     1      46.554   3.513   6.885  0.00  0.00    +0.000 A 
ATOM     13  C   UNL     1      47.476   2.570   6.428  0.00  0.00    +0.000 A 
ATOM     14  C   UNL     1      47.490   1.290   6.975  0.00  0.00    +0.000 A 
ATOM     15  C   UNL     1      46.579   0.950   7.973  0.00  0.00    +0.000 A 
ATOM     16  C   UNL     1      45.654   1.893   8.429  0.00  0.00    +0.000 A 
ENDBRANCH  10  11
ENDBRANCH   9  10
ENDBRANCH   8   9
ENDBRANCH   5   8
ENDBRANCH   1   2
BRANCH   1  19
ATOM     17  O   UNL     1      49.359   4.538  17.004  0.00  0.00    +0.000 OA
ATOM     18  C   UNL     1      48.793   5.505  16.501  0.00  0.00    +0.000 C 
ATOM     19  N   UNL     1      47.741   5.377  15.631  0.00  0.00    +0.000 N 
ATOM     20  H   UNL     1      47.480   6.196  15.094  0.00  0.00    +0.000 HD
BRANCH  18  21
ATOM     21  C   UNL     1      49.171   6.884  16.831  0.00  0.00    +0.000 A 
ATOM     22  C   UNL     1      49.058   7.347  18.135  0.00  0.00    +0.000 A 
ATOM     23  S   UNL     1      49.558   8.965  18.323  0.00  0.00    +0.000 S 
ATOM     24  C   UNL     1      49.969   9.084  16.673  0.00  0.00    +0.000 A 
ATOM     25  N   UNL     1      50.499  10.229  16.193  0.00  0.00    +0.000 NA
ATOM     26  C   UNL     1      50.777  10.202  14.879  0.00  0.00    +0.000 A 
ATOM     27  C   UNL     1      50.557   9.133  14.030  0.00  0.00    +0.000 A 
ATOM     28  C   UNL     1      50.008   7.981  14.580  0.00  0.00    +0.000 A 
ATOM     29  C   UNL     1      49.696   7.921  15.960  0.00  0.00    +0.000 A 
BRANCH  28  30
ATOM     30  O   UNL     1      49.763   6.909  13.757  0.00  0.00    +0.000 OA
ATOM     31  H   UNL     1      48.853   6.947  13.416  0.00  0.00    +0.000 HD
ENDBRANCH  28  30
ENDBRANCH  18  21
ENDBRANCH   1  19
TORSDOF 8
ENDMDL
MODEL 7
REMARK VINA RESULT:    -7.146      1.987      3.089
REMARK INTER + INTRA:         -11.584
REMARK INTER:                 -10.576
REMARK INTRA:                  -1.008
REMARK UNBOUND:                -1.305
REMARK  Name = 
REMARK  8 active torsions:
REMARK  status: ('A' for Active; 'I' for Inactive)
REMARK    1  A    between atoms: C_2  and  C_20
REMARK    2  A    between atoms: N_3  and  C_4
REMARK    3  A    between atoms: C_4  and  C_5
REMARK    4  A    between atoms: C_8  and  C_9
REMARK    5  A    between atoms: C_9  and  O_10
REMARK    6  A    between atoms: O_10  and  C_11
REMARK    7  A    between atoms: C_11  and  C_12
REMARK    8  A    between atoms: C_27  and  O_28
REMARK                            x       y       z     vdW  Elec       q    Type
REMARK                         _______ _______ _______ _____ _____    ______ ____
ROOT
ATOM      1  C   UNL     1      47.318   3.911  15.342  0.00  0.00    +0.000 C 
ENDROOT
BRANCH   1   2
ATOM      2  C   UNL     1      46.731   4.423  14.050  0.00  0.00    +0.000 A 
ATOM      3  C   UNL     1      46.940   5.744  13.628  0.00  0.00    +0.000 A 
ATOM      4  C   UNL     1      46.413   6.194  12.410  0.00  0.00    +0.000 A 
ATOM      5  C   UNL     1      45.653   5.342  11.598  0.00  0.00    +0.000 A 
ATOM      6  C   UNL     1      45.419   4.033  12.038  0.00  0.00    +0.000 A 
ATOM      7  C   UNL     1      45.946   3.580  13.251  0.00  0.00    +0.000 A 
BRANCH   5   8
ATOM      8  C   UNL     1      45.084   5.824  10.285  0.00  0.00    +0.000 C 
BRANCH   8   9
ATOM      9  O   UNL     1      45.767   5.177   9.217  0.00  0.00    +0.000 OA
BRANCH   9  10
ATOM     10  C   UNL     1      44.951   4.204   8.567  0.00  0.00    +0.000 C 
BRANCH  10  11
ATOM     11  C   UNL     1      45.819   3.157   7.909  0.00  0.00    +0.000 A 
ATOM     12  C   UNL     1      45.881   1.849   8.412  0.00  0.00    +0.000 A 
ATOM     13  C   UNL     1      46.654   0.875   7.778  0.00  0.00    +0.000 A 
ATOM     14  C   UNL     1      47.365   1.194   6.624  0.00  0.00    +0.000 A 
ATOM     15  C   UNL     1      47.309   2.486   6.107  0.00  0.00    +0.000 A 
ATOM     16  C   UNL     1      46.537   3.463   6.743  0.00  0.00    +0.000 A 
ENDBRANCH  10  11
ENDBRANCH   9  10
ENDBRANCH   8   9
ENDBRANCH   5   8
ENDBRANCH   1   2
BRANCH   1  19
ATOM     17  O   UNL     1      47.069   3.933  18.141  0.00  0.00    +0.000 OA
ATOM     18  C   UNL     1      47.581   4.897  17.579  0.00  0.00    +0.000 C 
ATOM     19  N   UNL     1      47.680   4.994  16.215  0.00  0.00    +0.000 N 
ATOM     20  H   UNL     1      48.305   5.698  15.843  0.00  0.00    +0.000 HD
BRANCH  18  21
ATOM     21  C   UNL     1      48.091   6.052  18.328  0.00  0.00    +0.000 A 
ATOM     22  C   UNL     1      47.254   6.753  19.187  0.00  0.00    +0.000 A 
ATOM     23  S   UNL     1      48.029   8.049  19.976  0.00  0.00    +0.000 S 
ATOM     24  C   UNL     1      49.512   7.691  19.218  0.00  0.00    +0.000 A 
ATOM     25  N   UNL     1      50.608   8.426  19.505  0.00  0.00    +0.000 NA
ATOM     26  C   UNL     1      51.715   8.052  18.843  0.00  0.00    +0.000 A 
ATOM     27  C   UNL     1      51.795   7.018  17.926  0.00  0.00    +0.000 A 
ATOM     28  C   UNL     1      50.636   6.297  17.671  0.00  0.00    +0.000 A 
ATOM     29  C   UNL     1      49.427   6.619  18.335  0.00  0.00    +0.000 A 
BRANCH  28  30
ATOM     30  O   UNL     1      50.682   5.277  16.753  0.00  0.00    +0.000 OA
ATOM     31  H   UNL     1      50.994   4.458  17.175  0.00  0.00    +0.000 HD
ENDBRANCH  28  30
ENDBRANCH  18  21
ENDBRANCH   1  19
TORSDOF 8
ENDMDL
MODEL 8
REMARK VINA RESULT:    -7.122      2.467      3.291
REMARK INTER + INTRA:         -11.550
REMARK INTER:                 -10.504
REMARK INTRA:                  -1.046
REMARK UNBOUND:                -1.305
REMARK  Name = 
REMARK  8 active torsions:
REMARK  status: ('A' for Active; 'I' for Inactive)
REMARK    1  A    between atoms: C_2  and  C_20
REMARK    2  A    between atoms: N_3  and  C_4
REMARK    3  A    between atoms: C_4  and  C_5
REMARK    4  A    between atoms: C_8  and  C_9
REMARK    5  A    between atoms: C_9  and  O_10
REMARK    6  A    between atoms: O_10  and  C_11
REMARK    7  A    between atoms: C_11  and  C_12
REMARK    8  A    between atoms: C_27  and  O_28
REMARK                            x       y       z     vdW  Elec       q    Type
REMARK                         _______ _______ _______ _____ _____    ______ ____
ROOT
ATOM      1  C   UNL     1      47.753   5.098  14.830  0.00  0.00    +0.000 C 
ENDROOT
BRANCH   1   2
ATOM      2  C   UNL     1      46.756   4.992  13.703  0.00  0.00    +0.000 A 
ATOM      3  C   UNL     1      46.209   3.756  13.328  0.00  0.00    +0.000 A 
ATOM      4  C   UNL     1      45.262   3.679  12.299  0.00  0.00    +0.000 A 
ATOM      5  C   UNL     1      44.855   4.830  11.611  0.00  0.00    +0.000 A 
ATOM      6  C   UNL     1      45.427   6.058  11.966  0.00  0.00    +0.000 A 
ATOM      7  C   UNL     1      46.370   6.138  12.994  0.00  0.00    +0.000 A 
BRANCH   5   8
ATOM      8  C   UNL     1      43.833   4.751  10.501  0.00  0.00    +0.000 C 
BRANCH   8   9
ATOM      9  O   UNL     1      44.094   3.596   9.712  0.00  0.00    +0.000 OA
BRANCH   9  10
ATOM     10  C   UNL     1      44.354   3.924   8.348  0.00  0.00    +0.000 C 
BRANCH  10  11
ATOM     11  C   UNL     1      45.501   3.091   7.826  0.00  0.00    +0.000 A 
ATOM     12  C   UNL     1      46.512   3.664   7.041  0.00  0.00    +0.000 A 
ATOM     13  C   UNL     1      47.590   2.899   6.593  0.00  0.00    +0.000 A 
ATOM     14  C   UNL     1      47.678   1.552   6.937  0.00  0.00    +0.000 A 
ATOM     15  C   UNL     1      46.686   0.969   7.723  0.00  0.00    +0.000 A 
ATOM     16  C   UNL     1      45.605   1.734   8.170  0.00  0.00    +0.000 A 
ENDBRANCH  10  11
ENDBRANCH   9  10
ENDBRANCH   8   9
ENDBRANCH   5   8
ENDBRANCH   1   2
BRANCH   1  19
ATOM     17  O   UNL     1      50.046   6.386  15.819  0.00  0.00    +0.000 OA
ATOM     18  C   UNL     1      48.992   7.011  15.755  0.00  0.00    +0.000 C 
ATOM     19  N   UNL     1      47.815   6.438  15.347  0.00  0.00    +0.000 N 
ATOM     20  H   UNL     1      47.052   7.061  15.108  0.00  0.00    +0.000 HD
BRANCH  18  21
ATOM     21  C   UNL     1      48.898   8.420  16.155  0.00  0.00    +0.000 A 
ATOM     22  C   UNL     1      49.405   9.416  15.332  0.00  0.00    +0.000 A 
ATOM     23  S   UNL     1      49.190  10.986  15.959  0.00  0.00    +0.000 S 
ATOM     24  C   UNL     1      48.384  10.382  17.334  0.00  0.00    +0.000 A 
ATOM     25  N   UNL     1      47.904  11.237  18.261  0.00  0.00    +0.000 NA
ATOM     26  C   UNL     1      47.293  10.642  19.300  0.00  0.00    +0.000 A 
ATOM     27  C   UNL     1      47.142   9.278  19.472  0.00  0.00    +0.000 A 
ATOM     28  C   UNL     1      47.657   8.447  18.486  0.00  0.00    +0.000 A 
ATOM     29  C   UNL     1      48.306   8.993  17.352  0.00  0.00    +0.000 A 
BRANCH  28  30
ATOM     30  O   UNL     1      47.537   7.087  18.639  0.00  0.00    +0.000 OA
ATOM     31  H   UNL     1      47.106   6.881  19.486  0.00  0.00    +0.000 HD
ENDBRANCH  28  30
ENDBRANCH  18  21
ENDBRANCH   1  19
TORSDOF 8
ENDMDL
MODEL 9
REMARK VINA RESULT:    -6.884      1.628      2.297
REMARK INTER + INTRA:         -11.208
REMARK INTER:                  -9.974
REMARK INTRA:                  -1.233
REMARK UNBOUND:                -1.305
REMARK  Name = 
REMARK  8 active torsions:
REMARK  status: ('A' for Active; 'I' for Inactive)
REMARK    1  A    between atoms: C_2  and  C_20
REMARK    2  A    between atoms: N_3  and  C_4
REMARK    3  A    between atoms: C_4  and  C_5
REMARK    4  A    between atoms: C_8  and  C_9
REMARK    5  A    between atoms: C_9  and  O_10
REMARK    6  A    between atoms: O_10  and  C_11
REMARK    7  A    between atoms: C_11  and  C_12
REMARK    8  A    between atoms: C_27  and  O_28
REMARK                            x       y       z     vdW  Elec       q    Type
REMARK                         _______ _______ _______ _____ _____    ______ ____
ROOT
ATOM      1  C   UNL     1      49.311   8.611  13.306  0.00  0.00    +0.000 C 
ENDROOT
BRANCH   1   2
ATOM      2  C   UNL     1      48.018   8.037  12.784  0.00  0.00    +0.000 A 
ATOM      3  C   UNL     1      47.897   6.674  12.475  0.00  0.00    +0.000 A 
ATOM      4  C   UNL     1      46.680   6.152  12.020  0.00  0.00    +0.000 A 
ATOM      5  C   UNL     1      45.563   6.981  11.846  0.00  0.00    +0.000 A 
ATOM      6  C   UNL     1      45.696   8.347  12.124  0.00  0.00    +0.000 A 
ATOM      7  C   UNL     1      46.909   8.870  12.581  0.00  0.00    +0.000 A 
BRANCH   5   8
ATOM      8  C   UNL     1      44.249   6.420  11.356  0.00  0.00    +0.000 C 
BRANCH   8   9
ATOM      9  O   UNL     1      44.342   5.002  11.300  0.00  0.00    +0.000 OA
BRANCH   9  10
ATOM     10  C   UNL     1      43.714   4.467  10.135  0.00  0.00    +0.000 C 
BRANCH  10  11
ATOM     11  C   UNL     1      44.730   3.739   9.288  0.00  0.00    +0.000 A 
ATOM     12  C   UNL     1      44.821   2.340   9.310  0.00  0.00    +0.000 A 
ATOM     13  C   UNL     1      45.736   1.669   8.496  0.00  0.00    +0.000 A 
ATOM     14  C   UNL     1      46.562   2.391   7.638  0.00  0.00    +0.000 A 
ATOM     15  C   UNL     1      46.479   3.781   7.597  0.00  0.00    +0.000 A 
ATOM     16  C   UNL     1      45.565   4.453   8.414  0.00  0.00    +0.000 A 
ENDBRANCH  10  11
ENDBRANCH   9  10
ENDBRANCH   8   9
ENDBRANCH   5   8
ENDBRANCH   1   2
BRANCH   1  19
ATOM     17  O   UNL     1      49.220   8.647  16.115  0.00  0.00    +0.000 OA
ATOM     18  C   UNL     1      49.826   7.742  15.549  0.00  0.00    +0.000 C 
ATOM     19  N   UNL     1      49.973   7.688  14.187  0.00  0.00    +0.000 N 
ATOM     20  H   UNL     1      50.284   6.811  13.787  0.00  0.00    +0.000 HD
BRANCH  18  21
ATOM     21  C   UNL     1      50.484   6.663  16.294  0.00  0.00    +0.000 A 
ATOM     22  C   UNL     1      51.832   6.757  16.616  0.00  0.00    +0.000 A 
ATOM     23  S   UNL     1      52.411   5.417  17.494  0.00  0.00    +0.000 S 
ATOM     24  C   UNL     1      50.872   4.687  17.497  0.00  0.00    +0.000 A 
ATOM     25  N   UNL     1      50.686   3.510  18.131  0.00  0.00    +0.000 NA
ATOM     26  C   UNL     1      49.432   3.033  18.060  0.00  0.00    +0.000 A 
ATOM     27  C   UNL     1      48.376   3.638  17.403  0.00  0.00    +0.000 A 
ATOM     28  C   UNL     1      48.626   4.848  16.766  0.00  0.00    +0.000 A 
ATOM     29  C   UNL     1      49.918   5.426  16.803  0.00  0.00    +0.000 A 
BRANCH  28  30
ATOM     30  O   UNL     1      47.600   5.463  16.091  0.00  0.00    +0.000 OA
ATOM     31  H   UNL     1      46.743   5.116  16.392  0.00  0.00    +0.000 HD
ENDBRANCH  28  30
ENDBRANCH  18  21
ENDBRANCH   1  19
TORSDOF 8
ENDMDL
