MODEL 1
REMARK VINA RESULT:    -8.267      0.000      0.000
REMARK INTER + INTRA:         -12.803
REMARK INTER:                 -11.650
REMARK INTRA:                  -1.153
REMARK UNBOUND:                -1.153
REMARK  Name = 
REMARK  9 active torsions:
REMARK  status: ('A' for Active; 'I' for Inactive)
REMARK    1  A    between atoms: C_1  and  C_2
REMARK    2  A    between atoms: C_6  and  C_7
REMARK    3  A    between atoms: C_7  and  C_8
REMARK    4  A    between atoms: C_7  and  N_9
REMARK    5  A    between atoms: N_9  and  C_10
REMARK    6  A    between atoms: C_10  and  C_11
REMARK    7  A    between atoms: C_14  and  C_15
REMARK    8  A    between atoms: C_15  and  N_16
REMARK    9  A    between atoms: C_17  and  C_19
REMARK                            x       y       z     vdW  Elec       q    Type
REMARK                         _______ _______ _______ _____ _____    ______ ____
ROOT
ATOM      1  C   UNL     1      44.628   6.123  11.322  0.00  0.00    +0.000 A 
ATOM      2  C   UNL     1      44.423   7.481  11.613  0.00  0.00    +0.000 A 
ATOM      3  C   UNL     1      45.336   8.192  12.399  0.00  0.00    +0.000 A 
ATOM      4  C   UNL     1      46.476   7.563  12.913  0.00  0.00    +0.000 A 
ATOM      5  C   UNL     1      46.665   6.199  12.653  0.00  0.00    +0.000 A 
ATOM      6  C   UNL     1      45.757   5.489  11.860  0.00  0.00    +0.000 A 
ENDROOT
BRANCH   1   7
ATOM      7  C   UNL     1      43.658   5.353  10.444  0.00  0.00    +0.000 C 
BRANCH   7   8
ATOM      8  N   UNL     1      44.346   4.807   9.279  0.00  0.00    +0.000 NA
ATOM      9  H   UNL     1      43.923   5.207   8.442  0.00  0.00    +0.000 HD
BRANCH   8  10
ATOM     10  C   UNL     1      44.264   3.339   9.141  0.00  0.00    +0.000 C 
ATOM     11  C   UNL     1      44.202   2.600  10.483  0.00  0.00    +0.000 C 
BRANCH  10  17
ATOM     12  C   UNL     1      46.878  -0.549   7.724  0.00  0.00    +0.000 C 
ATOM     13  C   UNL     1      46.688   0.937   7.659  0.00  0.00    +0.000 A 
ATOM     14  C   UNL     1      47.571   1.734   6.939  0.00  0.00    +0.000 A 
ATOM     15  C   UNL     1      47.380   3.110   6.940  0.00  0.00    +0.000 A 
ATOM     16  C   UNL     1      46.318   3.648   7.658  0.00  0.00    +0.000 A 
ATOM     17  C   UNL     1      45.452   2.792   8.340  0.00  0.00    +0.000 A 
ATOM     18  N   UNL     1      45.635   1.444   8.347  0.00  0.00    +0.000 NA
ENDBRANCH  10  17
ENDBRANCH   8  10
ENDBRANCH   7   8
ENDBRANCH   1   7
BRANCH   4  19
ATOM     19  C   UNL     1      47.467   8.318  13.760  0.00  0.00    +0.000 C 
BRANCH  19  20
ATOM     20  N   UNL     1      47.806   7.579  14.951  0.00  0.00    +0.000 N 
ATOM     21  C   UNL     1      48.998   6.913  15.064  0.00  0.00    +0.000 C 
ATOM     22  O   UNL     1      49.847   6.940  14.177  0.00  0.00    +0.000 OA
ATOM     23  H   UNL     1      47.039   7.341  15.573  0.00  0.00    +0.000 HD
BRANCH  21  24
ATOM     24  C   UNL     1      49.237   6.213  16.332  0.00  0.00    +0.000 A 
ATOM     25  C   UNL     1      50.234   6.657  17.187  0.00  0.00    +0.000 A 
ATOM     26  S   UNL     1      50.344   5.762  18.635  0.00  0.00    +0.000 S 
ATOM     27  C   UNL     1      49.095   4.714  18.146  0.00  0.00    +0.000 A 
ATOM     28  N   UNL     1      48.705   3.675  18.933  0.00  0.00    +0.000 NA
ATOM     29  C   UNL     1      47.768   2.943  18.423  0.00  0.00    +0.000 A 
ATOM     30  N   UNL     1      47.185   3.162  17.201  0.00  0.00    +0.000 N 
ATOM     31  C   UNL     1      47.524   4.214  16.389  0.00  0.00    +0.000 A 
ATOM     32  O   UNL     1      46.945   4.412  15.329  0.00  0.00    +0.000 OA
ATOM     33  C   UNL     1      48.586   5.060  16.905  0.00  0.00    +0.000 A 
ATOM     34  H   UNL     1      46.448   2.559  16.865  0.00  0.00    +0.000 HD
ENDBRANCH  21  24
ENDBRANCH  19  20
ENDBRANCH   4  19
TORSDOF 7
ENDMDL
MODEL 2
REMARK VINA RESULT:    -8.157      1.720      2.042
REMARK INTER + INTRA:         -12.648
REMARK INTER:                 -11.656
REMARK INTRA:                  -0.992
REMARK UNBOUND:                -1.153
REMARK  Name = 
REMARK  9 active torsions:
REMARK  status: ('A' for Active; 'I' for Inactive)
REMARK    1  A    between atoms: C_1  and  C_2
REMARK    2  A    between atoms: C_6  and  C_7
REMARK    3  A    between atoms: C_7  and  C_8
REMARK    4  A    between atoms: C_7  and  N_9
REMARK    5  A    between atoms: N_9  and  C_10
REMARK    6  A    between atoms: C_10  and  C_11
REMARK    7  A    between atoms: C_14  and  C_15
REMARK    8  A    between atoms: C_15  and  N_16
REMARK    9  A    between atoms: C_17  and  C_19
REMARK                            x       y       z     vdW  Elec       q    Type
REMARK                         _______ _______ _______ _____ _____    ______ ____
ROOT
ATOM      1  C   UNL     1      45.297   5.724  11.804  0.00  0.00    +0.000 A 
ATOM      2  C   UNL     1      46.157   6.753  11.392  0.00  0.00    +0.000 A 
ATOM      3  C   UNL     1      47.292   7.081  12.141  0.00  0.00    +0.000 A 
ATOM      4  C   UNL     1      47.594   6.389  13.320  0.00  0.00    +0.000 A 
ATOM      5  C   UNL     1      46.717   5.384  13.751  0.00  0.00    +0.000 A 
ATOM      6  C   UNL     1      45.588   5.049  12.998  0.00  0.00    +0.000 A 
ENDROOT
BRANCH   1   7
ATOM      7  C   UNL     1      44.081   5.340  10.980  0.00  0.00    +0.000 C 
BRANCH   7   8
ATOM      8  N   UNL     1      44.479   4.951   9.631  0.00  0.00    +0.000 NA
ATOM      9  H   UNL     1      43.926   5.492   8.966  0.00  0.00    +0.000 HD
BRANCH   8  10
ATOM     10  C   UNL     1      44.266   3.527   9.306  0.00  0.00    +0.000 C 
ATOM     11  C   UNL     1      44.124   2.632  10.543  0.00  0.00    +0.000 C 
BRANCH  10  17
ATOM     12  C   UNL     1      46.786  -0.361   7.729  0.00  0.00    +0.000 C 
ATOM     13  C   UNL     1      46.598   1.126   7.682  0.00  0.00    +0.000 A 
ATOM     14  C   UNL     1      47.442   1.924   6.919  0.00  0.00    +0.000 A 
ATOM     15  C   UNL     1      47.257   3.300   6.938  0.00  0.00    +0.000 A 
ATOM     16  C   UNL     1      46.237   3.837   7.715  0.00  0.00    +0.000 A 
ATOM     17  C   UNL     1      45.407   2.980   8.439  0.00  0.00    +0.000 A 
ATOM     18  N   UNL     1      45.585   1.632   8.430  0.00  0.00    +0.000 NA
ENDBRANCH  10  17
ENDBRANCH   8  10
ENDBRANCH   7   8
ENDBRANCH   1   7
BRANCH   4  19
ATOM     19  C   UNL     1      48.813   6.733  14.135  0.00  0.00    +0.000 C 
BRANCH  19  20
ATOM     20  N   UNL     1      48.474   6.936  15.522  0.00  0.00    +0.000 N 
ATOM     21  C   UNL     1      49.329   6.568  16.528  0.00  0.00    +0.000 C 
ATOM     22  O   UNL     1      50.434   6.082  16.300  0.00  0.00    +0.000 OA
ATOM     23  H   UNL     1      47.494   7.097  15.732  0.00  0.00    +0.000 HD
BRANCH  21  24
ATOM     24  C   UNL     1      48.881   6.844  17.898  0.00  0.00    +0.000 A 
ATOM     25  C   UNL     1      48.553   8.139  18.269  0.00  0.00    +0.000 A 
ATOM     26  S   UNL     1      48.006   8.273  19.879  0.00  0.00    +0.000 S 
ATOM     27  C   UNL     1      48.239   6.610  20.155  0.00  0.00    +0.000 A 
ATOM     28  N   UNL     1      47.985   6.059  21.373  0.00  0.00    +0.000 NA
ATOM     29  C   UNL     1      48.236   4.792  21.447  0.00  0.00    +0.000 A 
ATOM     30  N   UNL     1      48.712   4.029  20.412  0.00  0.00    +0.000 N 
ATOM     31  C   UNL     1      48.952   4.534  19.160  0.00  0.00    +0.000 A 
ATOM     32  O   UNL     1      49.325   3.813  18.245  0.00  0.00    +0.000 OA
ATOM     33  C   UNL     1      48.704   5.959  19.024  0.00  0.00    +0.000 A 
ATOM     34  H   UNL     1      48.876   3.040  20.533  0.00  0.00    +0.000 HD
ENDBRANCH  21  24
ENDBRANCH  19  20
ENDBRANCH   4  19
TORSDOF 7
ENDMDL
MODEL 3
REMARK VINA RESULT:    -7.668      2.147      2.460
REMARK INTER + INTRA:         -11.959
REMARK INTER:                 -10.990
REMARK INTRA:                  -0.969
REMARK UNBOUND:                -1.153
REMARK  Name = 
REMARK  9 active torsions:
REMARK  status: ('A' for Active; 'I' for Inactive)
REMARK    1  A    between atoms: C_1  and  C_2
REMARK    2  A    between atoms: C_6  and  C_7
REMARK    3  A    between atoms: C_7  and  C_8
REMARK    4  A    between atoms: C_7  and  N_9
REMARK    5  A    between atoms: N_9  and  C_10
REMARK    6  A    between atoms: C_10  and  C_11
REMARK    7  A    between atoms: C_14  and  C_15
REMARK    8  A    between atoms: C_15  and  N_16
REMARK    9  A    between atoms: C_17  and  C_19
REMARK                            x       y       z     vdW  Elec       q    Type
REMARK                         _______ _______ _______ _____ _____    ______ ____
ROOT
ATOM      1  C   UNL     1      45.505   6.189  12.069  0.00  0.00    +0.000 A 
ATOM      2  C   UNL     1      46.817   5.868  12.450  0.00  0.00    +0.000 A 
ATOM      3  C   UNL     1      47.630   6.811  13.086  0.00  0.00    +0.000 A 
ATOM      4  C   UNL     1      47.152   8.099  13.356  0.00  0.00    +0.000 A 
ATOM      5  C   UNL     1      45.854   8.433  12.945  0.00  0.00    +0.000 A 
ATOM      6  C   UNL     1      45.037   7.487  12.318  0.00  0.00    +0.000 A 
ENDROOT
BRANCH   1   7
ATOM      7  C   UNL     1      44.606   5.161  11.407  0.00  0.00    +0.000 C 
BRANCH   7   8
ATOM      8  N   UNL     1      44.927   5.036   9.989  0.00  0.00    +0.000 NA
ATOM      9  H   UNL     1      44.484   5.809   9.492  0.00  0.00    +0.000 HD
BRANCH   8  10
ATOM     10  C   UNL     1      44.456   3.790   9.352  0.00  0.00    +0.000 C 
ATOM     11  C   UNL     1      44.027   2.714  10.356  0.00  0.00    +0.000 C 
BRANCH  10  17
ATOM     12  C   UNL     1      46.769  -0.195   7.702  0.00  0.00    +0.000 C 
ATOM     13  C   UNL     1      46.624   1.297   7.642  0.00  0.00    +0.000 A 
ATOM     14  C   UNL     1      47.451   2.058   6.824  0.00  0.00    +0.000 A 
ATOM     15  C   UNL     1      47.308   3.439   6.832  0.00  0.00    +0.000 A 
ATOM     16  C   UNL     1      46.348   4.019   7.654  0.00  0.00    +0.000 A 
ATOM     17  C   UNL     1      45.532   3.197   8.434  0.00  0.00    +0.000 A 
ATOM     18  N   UNL     1      45.668   1.844   8.435  0.00  0.00    +0.000 NA
ENDBRANCH  10  17
ENDBRANCH   8  10
ENDBRANCH   7   8
ENDBRANCH   1   7
BRANCH   4  19
ATOM     19  C   UNL     1      48.017   9.124  14.041  0.00  0.00    +0.000 C 
BRANCH  19  20
ATOM     20  N   UNL     1      47.774   9.147  15.462  0.00  0.00    +0.000 N 
ATOM     21  C   UNL     1      48.587   8.477  16.338  0.00  0.00    +0.000 C 
ATOM     22  O   UNL     1      49.578   7.856  15.963  0.00  0.00    +0.000 OA
ATOM     23  H   UNL     1      46.847   9.435  15.761  0.00  0.00    +0.000 HD
BRANCH  21  24
ATOM     24  C   UNL     1      48.248   8.592  17.762  0.00  0.00    +0.000 A 
ATOM     25  C   UNL     1      48.209   9.841  18.362  0.00  0.00    +0.000 A 
ATOM     26  S   UNL     1      47.751   9.797  20.005  0.00  0.00    +0.000 S 
ATOM     27  C   UNL     1      47.641   8.099  19.986  0.00  0.00    +0.000 A 
ATOM     28  N   UNL     1      47.316   7.405  21.111  0.00  0.00    +0.000 NA
ATOM     29  C   UNL     1      47.300   6.121  20.958  0.00  0.00    +0.000 A 
ATOM     30  N   UNL     1      47.575   5.471  19.782  0.00  0.00    +0.000 N 
ATOM     31  C   UNL     1      47.877   6.129  18.617  0.00  0.00    +0.000 A 
ATOM     32  O   UNL     1      48.063   5.521  17.573  0.00  0.00    +0.000 OA
ATOM     33  C   UNL     1      47.926   7.577  18.735  0.00  0.00    +0.000 A 
ATOM     34  H   UNL     1      47.534   4.464  19.727  0.00  0.00    +0.000 HD
ENDBRANCH  21  24
ENDBRANCH  19  20
ENDBRANCH   4  19
TORSDOF 7
ENDMDL
MODEL 4
REMARK VINA RESULT:    -7.577      2.862      8.400
REMARK INTER + INTRA:         -11.831
REMARK INTER:                 -10.028
REMARK INTRA:                  -1.804
REMARK UNBOUND:                -1.153
REMARK  Name = 
REMARK  9 active torsions:
REMARK  status: ('A' for Active; 'I' for Inactive)
REMARK    1  A    between atoms: C_1  and  C_2
REMARK    2  A    between atoms: C_6  and  C_7
REMARK    3  A    between atoms: C_7  and  C_8
REMARK    4  A    between atoms: C_7  and  N_9
REMARK    5  A    between atoms: N_9  and  C_10
REMARK    6  A    between atoms: C_10  and  C_11
REMARK    7  A    between atoms: C_14  and  C_15
REMARK    8  A    between atoms: C_15  and  N_16
REMARK    9  A    between atoms: C_17  and  C_19
REMARK                            x       y       z     vdW  Elec       q    Type
REMARK                         _______ _______ _______ _____ _____    ______ ____
ROOT
ATOM      1  C   UNL     1      49.108   7.975  16.186  0.00  0.00    +0.000 A 
ATOM      2  C   UNL     1      48.431   9.078  15.643  0.00  0.00    +0.000 A 
ATOM      3  C   UNL     1      47.941   9.045  14.333  0.00  0.00    +0.000 A 
ATOM      4  C   UNL     1      48.118   7.909  13.534  0.00  0.00    +0.000 A 
ATOM      5  C   UNL     1      48.824   6.820  14.062  0.00  0.00    +0.000 A 
ATOM      6  C   UNL     1      49.305   6.848  15.375  0.00  0.00    +0.000 A 
ENDROOT
BRANCH   1   7
ATOM      7  C   UNL     1      49.613   7.991  17.616  0.00  0.00    +0.000 C 
BRANCH   7   8
ATOM      8  N   UNL     1      48.564   7.562  18.535  0.00  0.00    +0.000 NA
ATOM      9  H   UNL     1      48.413   8.306  19.217  0.00  0.00    +0.000 HD
BRANCH   8  10
ATOM     10  C   UNL     1      48.870   6.336  19.299  0.00  0.00    +0.000 C 
ATOM     11  C   UNL     1      50.312   6.281  19.817  0.00  0.00    +0.000 C 
BRANCH  10  17
ATOM     12  C   UNL     1      50.658   2.278  17.229  0.00  0.00    +0.000 C 
ATOM     13  C   UNL     1      49.460   3.143  17.484  0.00  0.00    +0.000 A 
ATOM     14  C   UNL     1      48.220   2.814  16.948  0.00  0.00    +0.000 A 
ATOM     15  C   UNL     1      47.148   3.666  17.175  0.00  0.00    +0.000 A 
ATOM     16  C   UNL     1      47.344   4.819  17.928  0.00  0.00    +0.000 A 
ATOM     17  C   UNL     1      48.608   5.080  18.459  0.00  0.00    +0.000 A 
ATOM     18  N   UNL     1      49.664   4.253  18.237  0.00  0.00    +0.000 NA
ENDBRANCH  10  17
ENDBRANCH   8  10
ENDBRANCH   7   8
ENDBRANCH   1   7
BRANCH   4  19
ATOM     19  C   UNL     1      47.595   7.861  12.122  0.00  0.00    +0.000 C 
BRANCH  19  20
ATOM     20  N   UNL     1      46.905   6.622  11.862  0.00  0.00    +0.000 N 
ATOM     21  C   UNL     1      45.540   6.532  11.950  0.00  0.00    +0.000 C 
ATOM     22  O   UNL     1      44.839   7.504  12.218  0.00  0.00    +0.000 OA
ATOM     23  H   UNL     1      47.464   5.775  11.887  0.00  0.00    +0.000 HD
BRANCH  21  24
ATOM     24  C   UNL     1      44.951   5.223  11.644  0.00  0.00    +0.000 A 
ATOM     25  C   UNL     1      44.237   4.544  12.620  0.00  0.00    +0.000 A 
ATOM     26  S   UNL     1      43.580   3.064  12.082  0.00  0.00    +0.000 S 
ATOM     27  C   UNL     1      44.273   3.254  10.539  0.00  0.00    +0.000 A 
ATOM     28  N   UNL     1      44.119   2.300   9.581  0.00  0.00    +0.000 NA
ATOM     29  C   UNL     1      44.725   2.562   8.468  0.00  0.00    +0.000 A 
ATOM     30  N   UNL     1      45.465   3.692   8.229  0.00  0.00    +0.000 N 
ATOM     31  C   UNL     1      45.621   4.693   9.153  0.00  0.00    +0.000 A 
ATOM     32  O   UNL     1      46.242   5.712   8.888  0.00  0.00    +0.000 OA
ATOM     33  C   UNL     1      44.974   4.443  10.430  0.00  0.00    +0.000 A 
ATOM     34  H   UNL     1      45.904   3.841   7.332  0.00  0.00    +0.000 HD
ENDBRANCH  21  24
ENDBRANCH  19  20
ENDBRANCH   4  19
TORSDOF 7
ENDMDL
MODEL 5
REMARK VINA RESULT:    -7.525      3.285      8.009
REMARK INTER + INTRA:         -11.758
REMARK INTER:                 -10.061
REMARK INTRA:                  -1.697
REMARK UNBOUND:                -1.153
REMARK  Name = 
REMARK  9 active torsions:
REMARK  status: ('A' for Active; 'I' for Inactive)
REMARK    1  A    between atoms: C_1  and  C_2
REMARK    2  A    between atoms: C_6  and  C_7
REMARK    3  A    between atoms: C_7  and  C_8
REMARK    4  A    between atoms: C_7  and  N_9
REMARK    5  A    between atoms: N_9  and  C_10
REMARK    6  A    between atoms: C_10  and  C_11
REMARK    7  A    between atoms: C_14  and  C_15
REMARK    8  A    between atoms: C_15  and  N_16
REMARK    9  A    between atoms: C_17  and  C_19
REMARK                            x       y       z     vdW  Elec       q    Type
REMARK                         _______ _______ _______ _____ _____    ______ ____
ROOT
ATOM      1  C   UNL     1      48.579   7.709  16.490  0.00  0.00    +0.000 A 
ATOM      2  C   UNL     1      48.206   8.929  15.906  0.00  0.00    +0.000 A 
ATOM      3  C   UNL     1      48.107   9.059  14.516  0.00  0.00    +0.000 A 
ATOM      4  C   UNL     1      48.380   7.971  13.678  0.00  0.00    +0.000 A 
ATOM      5  C   UNL     1      48.786   6.762  14.257  0.00  0.00    +0.000 A 
ATOM      6  C   UNL     1      48.875   6.629  15.647  0.00  0.00    +0.000 A 
ENDROOT
BRANCH   1   7
ATOM      7  C   UNL     1      48.657   7.552  17.998  0.00  0.00    +0.000 C 
BRANCH   7   8
ATOM      8  N   UNL     1      47.502   6.812  18.496  0.00  0.00    +0.000 NA
ATOM      9  H   UNL     1      46.971   7.427  19.112  0.00  0.00    +0.000 HD
BRANCH   8  10
ATOM     10  C   UNL     1      47.830   5.601  19.276  0.00  0.00    +0.000 C 
ATOM     11  C   UNL     1      48.933   5.824  20.316  0.00  0.00    +0.000 C 
BRANCH  10  17
ATOM     12  C   UNL     1      51.410   2.682  17.660  0.00  0.00    +0.000 C 
ATOM     13  C   UNL     1      49.959   3.053  17.598  0.00  0.00    +0.000 A 
ATOM     14  C   UNL     1      49.095   2.397  16.729  0.00  0.00    +0.000 A 
ATOM     15  C   UNL     1      47.768   2.802  16.675  0.00  0.00    +0.000 A 
ATOM     16  C   UNL     1      47.342   3.847  17.488  0.00  0.00    +0.000 A 
ATOM     17  C   UNL     1      48.254   4.449  18.357  0.00  0.00    +0.000 A 
ATOM     18  N   UNL     1      49.556   4.061  18.413  0.00  0.00    +0.000 NA
ENDBRANCH  10  17
ENDBRANCH   8  10
ENDBRANCH   7   8
ENDBRANCH   1   7
BRANCH   4  19
ATOM     19  C   UNL     1      48.276   8.098  12.180  0.00  0.00    +0.000 C 
BRANCH  19  20
ATOM     20  N   UNL     1      47.587   6.969  11.607  0.00  0.00    +0.000 N 
ATOM     21  C   UNL     1      46.228   6.977  11.427  0.00  0.00    +0.000 C 
ATOM     22  O   UNL     1      45.539   7.954  11.711  0.00  0.00    +0.000 OA
ATOM     23  H   UNL     1      48.086   6.085  11.601  0.00  0.00    +0.000 HD
BRANCH  21  24
ATOM     24  C   UNL     1      45.643   5.777  10.817  0.00  0.00    +0.000 A 
ATOM     25  C   UNL     1      45.821   5.536   9.463  0.00  0.00    +0.000 A 
ATOM     26  S   UNL     1      45.118   4.076   8.929  0.00  0.00    +0.000 S 
ATOM     27  C   UNL     1      44.506   3.739  10.481  0.00  0.00    +0.000 A 
ATOM     28  N   UNL     1      43.760   2.625  10.713  0.00  0.00    +0.000 NA
ATOM     29  C   UNL     1      43.334   2.513  11.929  0.00  0.00    +0.000 A 
ATOM     30  N   UNL     1      43.592   3.412  12.932  0.00  0.00    +0.000 N 
ATOM     31  C   UNL     1      44.364   4.532  12.752  0.00  0.00    +0.000 A 
ATOM     32  O   UNL     1      44.619   5.284  13.682  0.00  0.00    +0.000 OA
ATOM     33  C   UNL     1      44.855   4.717  11.398  0.00  0.00    +0.000 A 
ATOM     34  H   UNL     1      43.239   3.260  13.866  0.00  0.00    +0.000 HD
ENDBRANCH  21  24
ENDBRANCH  19  20
ENDBRANCH   4  19
TORSDOF 7
ENDMDL
MODEL 6
REMARK VINA RESULT:    -7.277      3.227      5.296
REMARK INTER + INTRA:         -11.408
REMARK INTER:                 -10.451
REMARK INTRA:                  -0.957
REMARK UNBOUND:                -1.153
REMARK  Name = 
REMARK  9 active torsions:
REMARK  status: ('A' for Active; 'I' for Inactive)
REMARK    1  A    between atoms: C_1  and  C_2
REMARK    2  A    between atoms: C_6  and  C_7
REMARK    3  A    between atoms: C_7  and  C_8
REMARK    4  A    between atoms: C_7  and  N_9
REMARK    5  A    between atoms: N_9  and  C_10
REMARK    6  A    between atoms: C_10  and  C_11
REMARK    7  A    between atoms: C_14  and  C_15
REMARK    8  A    between atoms: C_15  and  N_16
REMARK    9  A    between atoms: C_17  and  C_19
REMARK                            x       y       z     vdW  Elec       q    Type
REMARK                         _______ _______ _______ _____ _____    ______ ____
ROOT
ATOM      1  C   UNL     1      44.714   3.672  12.420  0.00  0.00    +0.000 A 
ATOM      2  C   UNL     1      44.429   5.037  12.576  0.00  0.00    +0.000 A 
ATOM      3  C   UNL     1      45.368   5.905  13.144  0.00  0.00    +0.000 A 
ATOM      4  C   UNL     1      46.613   5.428  13.570  0.00  0.00    +0.000 A 
ATOM      5  C   UNL     1      46.886   4.059  13.447  0.00  0.00    +0.000 A 
ATOM      6  C   UNL     1      45.952   3.193  12.870  0.00  0.00    +0.000 A 
ENDROOT
BRANCH   1   7
ATOM      7  C   UNL     1      43.713   2.731  11.775  0.00  0.00    +0.000 C 
BRANCH   7   8
ATOM      8  N   UNL     1      44.173   2.321  10.452  0.00  0.00    +0.000 NA
ATOM      9  H   UNL     1      44.811   1.534  10.566  0.00  0.00    +0.000 HD
BRANCH   8  10
ATOM     10  C   UNL     1      44.905   3.360   9.699  0.00  0.00    +0.000 C 
ATOM     11  C   UNL     1      43.993   4.435   9.097  0.00  0.00    +0.000 C 
BRANCH  10  17
ATOM     12  C   UNL     1      46.802  -0.669   7.670  0.00  0.00    +0.000 C 
ATOM     13  C   UNL     1      46.630   0.819   7.600  0.00  0.00    +0.000 A 
ATOM     14  C   UNL     1      47.230   1.556   6.586  0.00  0.00    +0.000 A 
ATOM     15  C   UNL     1      47.079   2.936   6.585  0.00  0.00    +0.000 A 
ATOM     16  C   UNL     1      46.335   3.539   7.594  0.00  0.00    +0.000 A 
ATOM     17  C   UNL     1      45.738   2.741   8.570  0.00  0.00    +0.000 A 
ATOM     18  N   UNL     1      45.885   1.389   8.580  0.00  0.00    +0.000 NA
ENDBRANCH  10  17
ENDBRANCH   8  10
ENDBRANCH   7   8
ENDBRANCH   1   7
BRANCH   4  19
ATOM     19  C   UNL     1      47.633   6.352  14.183  0.00  0.00    +0.000 C 
BRANCH  19  20
ATOM     20  N   UNL     1      47.787   7.553  13.400  0.00  0.00    +0.000 N 
ATOM     21  C   UNL     1      47.988   8.772  13.993  0.00  0.00    +0.000 C 
ATOM     22  O   UNL     1      48.083   8.897  15.212  0.00  0.00    +0.000 OA
ATOM     23  H   UNL     1      47.470   7.512  12.436  0.00  0.00    +0.000 HD
BRANCH  21  24
ATOM     24  C   UNL     1      48.149   9.918  13.091  0.00  0.00    +0.000 A 
ATOM     25  C   UNL     1      49.354  10.605  13.057  0.00  0.00    +0.000 A 
ATOM     26  S   UNL     1      49.386  11.876  11.920  0.00  0.00    +0.000 S 
ATOM     27  C   UNL     1      47.770  11.587  11.469  0.00  0.00    +0.000 A 
ATOM     28  N   UNL     1      47.153  12.365  10.538  0.00  0.00    +0.000 NA
ATOM     29  C   UNL     1      45.918  12.051  10.317  0.00  0.00    +0.000 A 
ATOM     30  N   UNL     1      45.249  11.029  10.940  0.00  0.00    +0.000 N 
ATOM     31  C   UNL     1      45.839  10.201  11.860  0.00  0.00    +0.000 A 
ATOM     32  O   UNL     1      45.228   9.264  12.356  0.00  0.00    +0.000 OA
ATOM     33  C   UNL     1      47.224  10.519  12.161  0.00  0.00    +0.000 A 
ATOM     34  H   UNL     1      44.286  10.828  10.713  0.00  0.00    +0.000 HD
ENDBRANCH  21  24
ENDBRANCH  19  20
ENDBRANCH   4  19
TORSDOF 7
ENDMDL
MODEL 7
REMARK VINA RESULT:    -7.138      1.614      2.044
REMARK INTER + INTRA:         -11.212
REMARK INTER:                 -10.142
REMARK INTRA:                  -1.070
REMARK UNBOUND:                -1.153
REMARK  Name = 
REMARK  9 active torsions:
REMARK  status: ('A' for Active; 'I' for Inactive)
REMARK    1  A    between atoms: C_1  and  C_2
REMARK    2  A    between atoms: C_6  and  C_7
REMARK    3  A    between atoms: C_7  and  C_8
REMARK    4  A    between atoms: C_7  and  N_9
REMARK    5  A    between atoms: N_9  and  C_10
REMARK    6  A    between atoms: C_10  and  C_11
REMARK    7  A    between atoms: C_14  and  C_15
REMARK    8  A    between atoms: C_15  and  N_16
REMARK    9  A    between atoms: C_17  and  C_19
REMARK                            x       y       z     vdW  Elec       q    Type
REMARK                         _______ _______ _______ _____ _____    ______ ____
ROOT
ATOM      1  C   UNL     1      45.449   6.917  12.062  0.00  0.00    +0.000 A 
ATOM      2  C   UNL     1      45.425   8.286  12.367  0.00  0.00    +0.000 A 
ATOM      3  C   UNL     1      46.380   8.848  13.221  0.00  0.00    +0.000 A 
ATOM      4  C   UNL     1      47.381   8.053  13.792  0.00  0.00    +0.000 A 
ATOM      5  C   UNL     1      47.386   6.679  13.517  0.00  0.00    +0.000 A 
ATOM      6  C   UNL     1      46.438   6.119  12.655  0.00  0.00    +0.000 A 
ENDROOT
BRANCH   1   7
ATOM      7  C   UNL     1      44.436   6.306  11.111  0.00  0.00    +0.000 C 
BRANCH   7   8
ATOM      8  N   UNL     1      45.102   5.451  10.134  0.00  0.00    +0.000 NA
ATOM      9  H   UNL     1      45.342   6.021   9.322  0.00  0.00    +0.000 HD
BRANCH   8  10
ATOM     10  C   UNL     1      44.288   4.322   9.640  0.00  0.00    +0.000 C 
ATOM     11  C   UNL     1      43.631   3.506  10.758  0.00  0.00    +0.000 C 
BRANCH  10  17
ATOM     12  C   UNL     1      47.060   3.695   5.655  0.00  0.00    +0.000 C 
ATOM     13  C   UNL     1      46.455   3.081   6.882  0.00  0.00    +0.000 A 
ATOM     14  C   UNL     1      46.637   1.732   7.164  0.00  0.00    +0.000 A 
ATOM     15  C   UNL     1      46.024   1.197   8.289  0.00  0.00    +0.000 A 
ATOM     16  C   UNL     1      45.250   2.021   9.098  0.00  0.00    +0.000 A 
ATOM     17  C   UNL     1      45.127   3.373   8.774  0.00  0.00    +0.000 A 
ATOM     18  N   UNL     1      45.720   3.904   7.672  0.00  0.00    +0.000 NA
ENDBRANCH  10  17
ENDBRANCH   8  10
ENDBRANCH   7   8
ENDBRANCH   1   7
BRANCH   4  19
ATOM     19  C   UNL     1      48.415   8.646  14.713  0.00  0.00    +0.000 C 
BRANCH  19  20
ATOM     20  N   UNL     1      49.322   7.636  15.199  0.00  0.00    +0.000 N 
ATOM     21  C   UNL     1      49.364   7.292  16.525  0.00  0.00    +0.000 C 
ATOM     22  O   UNL     1      48.611   7.797  17.354  0.00  0.00    +0.000 OA
ATOM     23  H   UNL     1      50.102   7.396  14.595  0.00  0.00    +0.000 HD
BRANCH  21  24
ATOM     24  C   UNL     1      50.315   6.237  16.895  0.00  0.00    +0.000 A 
ATOM     25  C   UNL     1      51.652   6.552  17.088  0.00  0.00    +0.000 A 
ATOM     26  S   UNL     1      52.607   5.220  17.562  0.00  0.00    +0.000 S 
ATOM     27  C   UNL     1      51.276   4.163  17.475  0.00  0.00    +0.000 A 
ATOM     28  N   UNL     1      51.417   2.835  17.734  0.00  0.00    +0.000 NA
ATOM     29  C   UNL     1      50.330   2.147  17.599  0.00  0.00    +0.000 A 
ATOM     30  N   UNL     1      49.116   2.670  17.234  0.00  0.00    +0.000 N 
ATOM     31  C   UNL     1      48.920   4.006  16.993  0.00  0.00    +0.000 A 
ATOM     32  O   UNL     1      47.812   4.448  16.722  0.00  0.00    +0.000 OA
ATOM     33  C   UNL     1      50.114   4.825  17.113  0.00  0.00    +0.000 A 
ATOM     34  H   UNL     1      48.301   2.080  17.158  0.00  0.00    +0.000 HD
ENDBRANCH  21  24
ENDBRANCH  19  20
ENDBRANCH   4  19
TORSDOF 7
ENDMDL
MODEL 8
REMARK VINA RESULT:    -6.992      3.911      9.598
REMARK INTER + INTRA:         -11.007
REMARK INTER:                  -9.270
REMARK INTRA:                  -1.738
REMARK UNBOUND:                -1.153
REMARK  Name = 
REMARK  9 active torsions:
REMARK  status: ('A' for Active; 'I' for Inactive)
REMARK    1  A    between atoms: C_1  and  C_2
REMARK    2  A    between atoms: C_6  and  C_7
REMARK    3  A    between atoms: C_7  and  C_8
REMARK    4  A    between atoms: C_7  and  N_9
REMARK    5  A    between atoms: N_9  and  C_10
REMARK    6  A    between atoms: C_10  and  C_11
REMARK    7  A    between atoms: C_14  and  C_15
REMARK    8  A    between atoms: C_15  and  N_16
REMARK    9  A    between atoms: C_17  and  C_19
REMARK                            x       y       z     vdW  Elec       q    Type
REMARK                         _______ _______ _______ _____ _____    ______ ____
ROOT
ATOM      1  C   UNL     1      48.111   5.433  20.433  0.00  0.00    +0.000 A 
ATOM      2  C   UNL     1      48.845   4.297  20.058  0.00  0.00    +0.000 A 
ATOM      3  C   UNL     1      48.652   3.699  18.808  0.00  0.00    +0.000 A 
ATOM      4  C   UNL     1      47.720   4.222  17.903  0.00  0.00    +0.000 A 
ATOM      5  C   UNL     1      46.962   5.336  18.289  0.00  0.00    +0.000 A 
ATOM      6  C   UNL     1      47.161   5.940  19.535  0.00  0.00    +0.000 A 
ENDROOT
BRANCH   1   7
ATOM      7  C   UNL     1      48.338   6.106  21.774  0.00  0.00    +0.000 C 
BRANCH   7   8
ATOM      8  N   UNL     1      49.648   6.749  21.809  0.00  0.00    +0.000 NA
ATOM      9  H   UNL     1      49.958   6.788  22.780  0.00  0.00    +0.000 HD
BRANCH   8  10
ATOM     10  C   UNL     1      49.675   8.133  21.294  0.00  0.00    +0.000 C 
ATOM     11  C   UNL     1      48.427   8.945  21.656  0.00  0.00    +0.000 C 
BRANCH  10  17
ATOM     12  C   UNL     1      48.106   9.795  16.967  0.00  0.00    +0.000 C 
ATOM     13  C   UNL     1      49.100   8.955  17.712  0.00  0.00    +0.000 A 
ATOM     14  C   UNL     1      50.071   8.231  17.030  0.00  0.00    +0.000 A 
ATOM     15  C   UNL     1      50.944   7.434  17.758  0.00  0.00    +0.000 A 
ATOM     16  C   UNL     1      50.824   7.383  19.142  0.00  0.00    +0.000 A 
ATOM     17  C   UNL     1      49.843   8.153  19.770  0.00  0.00    +0.000 A 
ATOM     18  N   UNL     1      48.982   8.932  19.063  0.00  0.00    +0.000 NA
ENDBRANCH  10  17
ENDBRANCH   8  10
ENDBRANCH   7   8
ENDBRANCH   1   7
BRANCH   4  19
ATOM     19  C   UNL     1      47.503   3.588  16.554  0.00  0.00    +0.000 C 
BRANCH  19  20
ATOM     20  N   UNL     1      46.907   4.519  15.629  0.00  0.00    +0.000 N 
ATOM     21  C   UNL     1      46.818   4.239  14.291  0.00  0.00    +0.000 C 
ATOM     22  O   UNL     1      47.207   3.173  13.820  0.00  0.00    +0.000 OA
ATOM     23  H   UNL     1      46.812   5.479  15.946  0.00  0.00    +0.000 HD
BRANCH  21  24
ATOM     24  C   UNL     1      46.174   5.257  13.452  0.00  0.00    +0.000 A 
ATOM     25  C   UNL     1      46.827   6.453  13.195  0.00  0.00    +0.000 A 
ATOM     26  S   UNL     1      45.959   7.499  12.165  0.00  0.00    +0.000 S 
ATOM     27  C   UNL     1      44.654   6.411  12.067  0.00  0.00    +0.000 A 
ATOM     28  N   UNL     1      43.539   6.717  11.350  0.00  0.00    +0.000 NA
ATOM     29  C   UNL     1      42.616   5.812  11.389  0.00  0.00    +0.000 A 
ATOM     30  N   UNL     1      42.711   4.629  12.077  0.00  0.00    +0.000 N 
ATOM     31  C   UNL     1      43.826   4.265  12.787  0.00  0.00    +0.000 A 
ATOM     32  O   UNL     1      43.899   3.179  13.345  0.00  0.00    +0.000 OA
ATOM     33  C   UNL     1      44.891   5.254  12.792  0.00  0.00    +0.000 A 
ATOM     34  H   UNL     1      41.957   3.958  12.058  0.00  0.00    +0.000 HD
ENDBRANCH  21  24
ENDBRANCH  19  20
ENDBRANCH   4  19
TORSDOF 7
ENDMDL
MODEL 9
REMARK VINA RESULT:    -6.658      3.936      9.832
REMARK INTER + INTRA:         -10.535
REMARK INTER:                  -9.377
REMARK INTRA:                  -1.159
REMARK UNBOUND:                -1.153
REMARK  Name = 
REMARK  9 active torsions:
REMARK  status: ('A' for Active; 'I' for Inactive)
REMARK    1  A    between atoms: C_1  and  C_2
REMARK    2  A    between atoms: C_6  and  C_7
REMARK    3  A    between atoms: C_7  and  C_8
REMARK    4  A    between atoms: C_7  and  N_9
REMARK    5  A    between atoms: N_9  and  C_10
REMARK    6  A    between atoms: C_10  and  C_11
REMARK    7  A    between atoms: C_14  and  C_15
REMARK    8  A    between atoms: C_15  and  N_16
REMARK    9  A    between atoms: C_17  and  C_19
REMARK                            x       y       z     vdW  Elec       q    Type
REMARK                         _______ _______ _______ _____ _____    ______ ____
ROOT
ATOM      1  C   UNL     1      50.602   4.895  19.335  0.00  0.00    +0.000 A 
ATOM      2  C   UNL     1      49.272   5.004  19.768  0.00  0.00    +0.000 A 
ATOM      3  C   UNL     1      48.219   4.529  18.977  0.00  0.00    +0.000 A 
ATOM      4  C   UNL     1      48.472   3.936  17.735  0.00  0.00    +0.000 A 
ATOM      5  C   UNL     1      49.797   3.857  17.285  0.00  0.00    +0.000 A 
ATOM      6  C   UNL     1      50.850   4.322  18.079  0.00  0.00    +0.000 A 
ENDROOT
BRANCH   1   7
ATOM      7  C   UNL     1      51.751   5.378  20.201  0.00  0.00    +0.000 C 
BRANCH   7   8
ATOM      8  N   UNL     1      52.247   4.295  21.044  0.00  0.00    +0.000 NA
ATOM      9  H   UNL     1      52.021   4.517  22.014  0.00  0.00    +0.000 HD
BRANCH   8  10
ATOM     10  C   UNL     1      53.707   4.078  20.983  0.00  0.00    +0.000 C 
ATOM     11  C   UNL     1      54.524   5.366  21.138  0.00  0.00    +0.000 C 
BRANCH  10  17
ATOM     12  C   UNL     1      54.417  -0.077  18.496  0.00  0.00    +0.000 C 
ATOM     13  C   UNL     1      54.437   1.422  18.482  0.00  0.00    +0.000 A 
ATOM     14  C   UNL     1      54.835   2.116  17.345  0.00  0.00    +0.000 A 
ATOM     15  C   UNL     1      54.878   3.503  17.391  0.00  0.00    +0.000 A 
ATOM     16  C   UNL     1      54.525   4.156  18.567  0.00  0.00    +0.000 A 
ATOM     17  C   UNL     1      54.111   3.403  19.667  0.00  0.00    +0.000 A 
ATOM     18  N   UNL     1      54.070   2.044  19.631  0.00  0.00    +0.000 NA
ENDBRANCH  10  17
ENDBRANCH   8  10
ENDBRANCH   7   8
ENDBRANCH   1   7
BRANCH   4  19
ATOM     19  C   UNL     1      47.348   3.420  16.875  0.00  0.00    +0.000 C 
BRANCH  19  20
ATOM     20  N   UNL     1      46.929   4.411  15.915  0.00  0.00    +0.000 N 
ATOM     21  C   UNL     1      46.960   4.160  14.568  0.00  0.00    +0.000 C 
ATOM     22  O   UNL     1      47.312   3.073  14.115  0.00  0.00    +0.000 OA
ATOM     23  H   UNL     1      46.877   5.370  16.243  0.00  0.00    +0.000 HD
BRANCH  21  24
ATOM     24  C   UNL     1      46.491   5.239  13.691  0.00  0.00    +0.000 A 
ATOM     25  C   UNL     1      47.295   6.347  13.471  0.00  0.00    +0.000 A 
ATOM     26  S   UNL     1      46.618   7.480  12.389  0.00  0.00    +0.000 S 
ATOM     27  C   UNL     1      45.201   6.553  12.218  0.00  0.00    +0.000 A 
ATOM     28  N   UNL     1      44.174   6.982  11.436  0.00  0.00    +0.000 NA
ATOM     29  C   UNL     1      43.148   6.193  11.424  0.00  0.00    +0.000 A 
ATOM     30  N   UNL     1      43.063   5.014  12.119  0.00  0.00    +0.000 N 
ATOM     31  C   UNL     1      44.084   4.527  12.893  0.00  0.00    +0.000 A 
ATOM     32  O   UNL     1      43.995   3.445  13.456  0.00  0.00    +0.000 OA
ATOM     33  C   UNL     1      45.257   5.383  12.958  0.00  0.00    +0.000 A 
ATOM     34  H   UNL     1      42.237   4.437  12.057  0.00  0.00    +0.000 HD
ENDBRANCH  21  24
ENDBRANCH  19  20
ENDBRANCH   4  19
TORSDOF 7
ENDMDL
