MODEL 1
REMARK VINA RESULT:    -8.677      0.000      0.000
REMARK INTER + INTRA:         -12.892
REMARK INTER:                 -11.720
REMARK INTRA:                  -1.172
REMARK UNBOUND:                -1.172
REMARK  Name = 
REMARK  6 active torsions:
REMARK  status: ('A' for Active; 'I' for Inactive)
REMARK    1  A    between atoms: C_2  and  C_25
REMARK    2  A    between atoms: N_3  and  C_4
REMARK    3  A    between atoms: C_4  and  C_5
REMARK    4  A    between atoms: C_9  and  C_10
REMARK    5  A    between atoms: C_10  and  N_11
REMARK    6  A    between atoms: C_12  and  C_14
REMARK                            x       y       z     vdW  Elec       q    Type
REMARK                         _______ _______ _______ _____ _____    ______ ____
ROOT
ATOM      1  C   UNL     1      45.183   6.460  11.244  0.00  0.00    +0.000 A 
ATOM      2  C   UNL     1      44.483   7.651  11.477  0.00  0.00    +0.000 A 
ATOM      3  C   UNL     1      45.151   8.780  11.947  0.00  0.00    +0.000 A 
ATOM      4  C   UNL     1      46.517   8.720  12.224  0.00  0.00    +0.000 A 
ATOM      5  C   UNL     1      47.229   7.525  12.050  0.00  0.00    +0.000 A 
ATOM      6  C   UNL     1      46.557   6.409  11.526  0.00  0.00    +0.000 A 
ENDROOT
BRANCH   1   7
ATOM      7  C   UNL     1      44.454   5.239  10.754  0.00  0.00    +0.000 C 
BRANCH   7  10
ATOM      8  O   UNL     1      43.981   2.616   9.911  0.00  0.00    +0.000 OA
ATOM      9  C   UNL     1      44.885   3.255   9.380  0.00  0.00    +0.000 C 
ATOM     10  N   UNL     1      45.193   4.551   9.727  0.00  0.00    +0.000 N 
ATOM     11  H   UNL     1      45.962   5.002   9.238  0.00  0.00    +0.000 HD
BRANCH   9  12
ATOM     12  C   UNL     1      45.724   2.655   8.296  0.00  0.00    +0.000 A 
ATOM     13  C   UNL     1      46.083   3.441   7.205  0.00  0.00    +0.000 A 
ATOM     14  C   UNL     1      46.867   2.870   6.209  0.00  0.00    +0.000 A 
ATOM     15  C   UNL     1      47.262   1.542   6.334  0.00  0.00    +0.000 A 
ATOM     16  C   UNL     1      46.857   0.833   7.457  0.00  0.00    +0.000 A 
ATOM     17  N   UNL     1      46.097   1.353   8.448  0.00  0.00    +0.000 NA
ENDBRANCH   9  12
ENDBRANCH   7  10
ENDBRANCH   1   7
BRANCH   5  18
ATOM     18  C   UNL     1      48.681   7.437  12.443  0.00  0.00    +0.000 C 
BRANCH  18  19
ATOM     19  N   UNL     1      48.876   6.681  13.651  0.00  0.00    +0.000 N 
ATOM     20  C   UNL     1      48.888   7.302  14.875  0.00  0.00    +0.000 C 
ATOM     21  O   UNL     1      48.687   8.509  14.995  0.00  0.00    +0.000 OA
ATOM     22  H   UNL     1      49.296   5.760  13.556  0.00  0.00    +0.000 HD
BRANCH  20  23
ATOM     23  C   UNL     1      49.096   6.443  16.045  0.00  0.00    +0.000 A 
ATOM     24  C   UNL     1      50.084   6.759  16.968  0.00  0.00    +0.000 A 
ATOM     25  S   UNL     1      50.149   5.690  18.296  0.00  0.00    +0.000 S 
ATOM     26  C   UNL     1      48.896   4.733  17.654  0.00  0.00    +0.000 A 
ATOM     27  N   UNL     1      48.468   3.613  18.298  0.00  0.00    +0.000 NA
ATOM     28  C   UNL     1      47.536   2.969  17.685  0.00  0.00    +0.000 A 
ATOM     29  N   UNL     1      46.986   3.342  16.486  0.00  0.00    +0.000 N 
ATOM     30  C   UNL     1      47.365   4.477  15.812  0.00  0.00    +0.000 A 
ATOM     31  O   UNL     1      46.824   4.805  14.762  0.00  0.00    +0.000 OA
ATOM     32  C   UNL     1      48.422   5.234  16.456  0.00  0.00    +0.000 A 
ATOM     33  H   UNL     1      46.252   2.797  16.058  0.00  0.00    +0.000 HD
ENDBRANCH  20  23
ENDBRANCH  18  19
ENDBRANCH   5  18
TORSDOF 6
ENDMDL
MODEL 2
REMARK VINA RESULT:    -8.650      2.102      2.879
REMARK INTER + INTRA:         -12.855
REMARK INTER:                 -11.829
REMARK INTRA:                  -1.026
REMARK UNBOUND:                -1.172
REMARK  Name = 
REMARK  6 active torsions:
REMARK  status: ('A' for Active; 'I' for Inactive)
REMARK    1  A    between atoms: C_2  and  C_25
REMARK    2  A    between atoms: N_3  and  C_4
REMARK    3  A    between atoms: C_4  and  C_5
REMARK    4  A    between atoms: C_9  and  C_10
REMARK    5  A    between atoms: C_10  and  N_11
REMARK    6  A    between atoms: C_12  and  C_14
REMARK                            x       y       z     vdW  Elec       q    Type
REMARK                         _______ _______ _______ _____ _____    ______ ____
ROOT
ATOM      1  C   UNL     1      45.722   5.753  11.658  0.00  0.00    +0.000 A 
ATOM      2  C   UNL     1      46.467   6.938  11.714  0.00  0.00    +0.000 A 
ATOM      3  C   UNL     1      47.297   7.198  12.803  0.00  0.00    +0.000 A 
ATOM      4  C   UNL     1      47.362   6.294  13.864  0.00  0.00    +0.000 A 
ATOM      5  C   UNL     1      46.586   5.127  13.856  0.00  0.00    +0.000 A 
ATOM      6  C   UNL     1      45.794   4.850  12.730  0.00  0.00    +0.000 A 
ENDROOT
BRANCH   1   7
ATOM      7  C   UNL     1      44.814   5.486  10.488  0.00  0.00    +0.000 C 
BRANCH   7  10
ATOM      8  O   UNL     1      44.198   2.842   9.821  0.00  0.00    +0.000 OA
ATOM      9  C   UNL     1      45.096   3.414   9.210  0.00  0.00    +0.000 C 
ATOM     10  N   UNL     1      45.472   4.713   9.466  0.00  0.00    +0.000 N 
ATOM     11  H   UNL     1      46.231   5.105   8.915  0.00  0.00    +0.000 HD
BRANCH   9  12
ATOM     12  C   UNL     1      45.855   2.721   8.122  0.00  0.00    +0.000 A 
ATOM     13  C   UNL     1      46.127   3.409   6.944  0.00  0.00    +0.000 A 
ATOM     14  C   UNL     1      46.837   2.753   5.944  0.00  0.00    +0.000 A 
ATOM     15  C   UNL     1      47.244   1.440   6.152  0.00  0.00    +0.000 A 
ATOM     16  C   UNL     1      46.928   0.830   7.359  0.00  0.00    +0.000 A 
ATOM     17  N   UNL     1      46.243   1.436   8.357  0.00  0.00    +0.000 NA
ENDBRANCH   9  12
ENDBRANCH   7  10
ENDBRANCH   1   7
BRANCH   5  18
ATOM     18  C   UNL     1      46.584   4.203  15.046  0.00  0.00    +0.000 C 
BRANCH  18  19
ATOM     19  N   UNL     1      47.858   4.169  15.715  0.00  0.00    +0.000 N 
ATOM     20  C   UNL     1      47.941   4.310  17.077  0.00  0.00    +0.000 C 
ATOM     21  O   UNL     1      46.941   4.422  17.783  0.00  0.00    +0.000 OA
ATOM     22  H   UNL     1      48.683   4.343  15.145  0.00  0.00    +0.000 HD
BRANCH  20  23
ATOM     23  C   UNL     1      49.285   4.264  17.662  0.00  0.00    +0.000 A 
ATOM     24  C   UNL     1      49.743   5.327  18.428  0.00  0.00    +0.000 A 
ATOM     25  S   UNL     1      51.301   5.081  19.079  0.00  0.00    +0.000 S 
ATOM     26  C   UNL     1      51.442   3.570  18.310  0.00  0.00    +0.000 A 
ATOM     27  N   UNL     1      52.572   2.822  18.433  0.00  0.00    +0.000 NA
ATOM     28  C   UNL     1      52.554   1.715  17.774  0.00  0.00    +0.000 A 
ATOM     29  N   UNL     1      51.506   1.281  17.004  0.00  0.00    +0.000 N 
ATOM     30  C   UNL     1      50.335   1.986  16.871  0.00  0.00    +0.000 A 
ATOM     31  O   UNL     1      49.401   1.550  16.208  0.00  0.00    +0.000 OA
ATOM     32  C   UNL     1      50.309   3.248  17.585  0.00  0.00    +0.000 A 
ATOM     33  H   UNL     1      51.550   0.398  16.516  0.00  0.00    +0.000 HD
ENDBRANCH  20  23
ENDBRANCH  18  19
ENDBRANCH   5  18
TORSDOF 6
ENDMDL
MODEL 3
REMARK VINA RESULT:    -8.281      1.930      2.162
REMARK INTER + INTRA:         -12.357
REMARK INTER:                 -11.356
REMARK INTRA:                  -1.001
REMARK UNBOUND:                -1.172
REMARK  Name = 
REMARK  6 active torsions:
REMARK  status: ('A' for Active; 'I' for Inactive)
REMARK    1  A    between atoms: C_2  and  C_25
REMARK    2  A    between atoms: N_3  and  C_4
REMARK    3  A    between atoms: C_4  and  C_5
REMARK    4  A    between atoms: C_9  and  C_10
REMARK    5  A    between atoms: C_10  and  N_11
REMARK    6  A    between atoms: C_12  and  C_14
REMARK                            x       y       z     vdW  Elec       q    Type
REMARK                         _______ _______ _______ _____ _____    ______ ____
ROOT
ATOM      1  C   UNL     1      44.901   6.045  11.377  0.00  0.00    +0.000 A 
ATOM      2  C   UNL     1      44.673   7.421  11.503  0.00  0.00    +0.000 A 
ATOM      3  C   UNL     1      45.454   8.189  12.365  0.00  0.00    +0.000 A 
ATOM      4  C   UNL     1      46.445   7.583  13.138  0.00  0.00    +0.000 A 
ATOM      5  C   UNL     1      46.657   6.199  13.069  0.00  0.00    +0.000 A 
ATOM      6  C   UNL     1      45.900   5.444  12.159  0.00  0.00    +0.000 A 
ENDROOT
BRANCH   1   7
ATOM      7  C   UNL     1      44.043   5.218  10.459  0.00  0.00    +0.000 C 
BRANCH   7  10
ATOM      8  O   UNL     1      44.205   2.450  10.102  0.00  0.00    +0.000 OA
ATOM      9  C   UNL     1      44.843   3.182   9.351  0.00  0.00    +0.000 C 
ATOM     10  N   UNL     1      44.827   4.556   9.448  0.00  0.00    +0.000 N 
ATOM     11  H   UNL     1      45.390   5.084   8.787  0.00  0.00    +0.000 HD
BRANCH   9  12
ATOM     12  C   UNL     1      45.693   2.618   8.256  0.00  0.00    +0.000 A 
ATOM     13  C   UNL     1      46.013   3.421   7.167  0.00  0.00    +0.000 A 
ATOM     14  C   UNL     1      46.808   2.883   6.161  0.00  0.00    +0.000 A 
ATOM     15  C   UNL     1      47.250   1.569   6.274  0.00  0.00    +0.000 A 
ATOM     16  C   UNL     1      46.880   0.841   7.397  0.00  0.00    +0.000 A 
ATOM     17  N   UNL     1      46.112   1.329   8.399  0.00  0.00    +0.000 NA
ENDBRANCH   9  12
ENDBRANCH   7  10
ENDBRANCH   1   7
BRANCH   5  18
ATOM     18  C   UNL     1      47.661   5.534  13.975  0.00  0.00    +0.000 C 
BRANCH  18  19
ATOM     19  N   UNL     1      47.724   6.157  15.271  0.00  0.00    +0.000 N 
ATOM     20  C   UNL     1      48.909   6.651  15.756  0.00  0.00    +0.000 C 
ATOM     21  O   UNL     1      49.945   6.628  15.094  0.00  0.00    +0.000 OA
ATOM     22  H   UNL     1      46.968   5.952  15.919  0.00  0.00    +0.000 HD
BRANCH  20  23
ATOM     23  C   UNL     1      48.869   7.265  17.088  0.00  0.00    +0.000 A 
ATOM     24  C   UNL     1      49.500   8.482  17.308  0.00  0.00    +0.000 A 
ATOM     25  S   UNL     1      49.303   9.078  18.894  0.00  0.00    +0.000 S 
ATOM     26  C   UNL     1      48.417   7.701  19.359  0.00  0.00    +0.000 A 
ATOM     27  N   UNL     1      47.958   7.559  20.632  0.00  0.00    +0.000 NA
ATOM     28  C   UNL     1      47.329   6.456  20.852  0.00  0.00    +0.000 A 
ATOM     29  N   UNL     1      47.112   5.480  19.915  0.00  0.00    +0.000 N 
ATOM     30  C   UNL     1      47.531   5.590  18.611  0.00  0.00    +0.000 A 
ATOM     31  O   UNL     1      47.284   4.717  17.787  0.00  0.00    +0.000 OA
ATOM     32  C   UNL     1      48.256   6.811  18.314  0.00  0.00    +0.000 A 
ATOM     33  H   UNL     1      46.605   4.638  20.147  0.00  0.00    +0.000 HD
ENDBRANCH  20  23
ENDBRANCH  18  19
ENDBRANCH   5  18
TORSDOF 6
ENDMDL
MODEL 4
REMARK VINA RESULT:    -7.628      2.441      4.173
REMARK INTER + INTRA:         -11.475
REMARK INTER:                 -10.592
REMARK INTRA:                  -0.883
REMARK UNBOUND:                -1.172
REMARK  Name = 
REMARK  6 active torsions:
REMARK  status: ('A' for Active; 'I' for Inactive)
REMARK    1  A    between atoms: C_2  and  C_25
REMARK    2  A    between atoms: N_3  and  C_4
REMARK    3  A    between atoms: C_4  and  C_5
REMARK    4  A    between atoms: C_9  and  C_10
REMARK    5  A    between atoms: C_10  and  N_11
REMARK    6  A    between atoms: C_12  and  C_14
REMARK                            x       y       z     vdW  Elec       q    Type
REMARK                         _______ _______ _______ _____ _____    ______ ____
ROOT
ATOM      1  C   UNL     1      44.234   4.030  11.848  0.00  0.00    +0.000 A 
ATOM      2  C   UNL     1      43.521   5.233  11.772  0.00  0.00    +0.000 A 
ATOM      3  C   UNL     1      43.968   6.361  12.458  0.00  0.00    +0.000 A 
ATOM      4  C   UNL     1      45.111   6.288  13.255  0.00  0.00    +0.000 A 
ATOM      5  C   UNL     1      45.812   5.082  13.389  0.00  0.00    +0.000 A 
ATOM      6  C   UNL     1      45.382   3.966  12.653  0.00  0.00    +0.000 A 
ENDROOT
BRANCH   1   7
ATOM      7  C   UNL     1      43.737   2.810  11.121  0.00  0.00    +0.000 C 
BRANCH   7  10
ATOM      8  O   UNL     1      44.152   4.089   8.671  0.00  0.00    +0.000 OA
ATOM      9  C   UNL     1      44.797   3.077   8.927  0.00  0.00    +0.000 C 
ATOM     10  N   UNL     1      44.663   2.378  10.106  0.00  0.00    +0.000 N 
ATOM     11  H   UNL     1      45.234   1.547  10.232  0.00  0.00    +0.000 HD
BRANCH   9  12
ATOM     12  C   UNL     1      45.795   2.529   7.957  0.00  0.00    +0.000 A 
ATOM     13  C   UNL     1      46.184   3.310   6.873  0.00  0.00    +0.000 A 
ATOM     14  C   UNL     1      47.116   2.788   5.983  0.00  0.00    +0.000 A 
ATOM     15  C   UNL     1      47.622   1.510   6.202  0.00  0.00    +0.000 A 
ATOM     16  C   UNL     1      47.176   0.802   7.310  0.00  0.00    +0.000 A 
ATOM     17  N   UNL     1      46.274   1.276   8.200  0.00  0.00    +0.000 NA
ENDBRANCH   9  12
ENDBRANCH   7  10
ENDBRANCH   1   7
BRANCH   5  18
ATOM     18  C   UNL     1      46.987   4.981  14.327  0.00  0.00    +0.000 C 
BRANCH  18  19
ATOM     19  N   UNL     1      47.559   6.267  14.627  0.00  0.00    +0.000 N 
ATOM     20  C   UNL     1      48.570   6.785  13.857  0.00  0.00    +0.000 C 
ATOM     21  O   UNL     1      48.994   6.202  12.861  0.00  0.00    +0.000 OA
ATOM     22  H   UNL     1      47.414   6.628  15.567  0.00  0.00    +0.000 HD
BRANCH  20  23
ATOM     23  C   UNL     1      49.086   8.101  14.248  0.00  0.00    +0.000 A 
ATOM     24  C   UNL     1      50.091   8.195  15.201  0.00  0.00    +0.000 A 
ATOM     25  S   UNL     1      50.613   9.793  15.491  0.00  0.00    +0.000 S 
ATOM     26  C   UNL     1      49.472  10.421  14.395  0.00  0.00    +0.000 A 
ATOM     27  N   UNL     1      49.365  11.761  14.184  0.00  0.00    +0.000 NA
ATOM     28  C   UNL     1      48.441  12.097  13.351  0.00  0.00    +0.000 A 
ATOM     29  N   UNL     1      47.613  11.217  12.705  0.00  0.00    +0.000 N 
ATOM     30  C   UNL     1      47.700   9.856  12.864  0.00  0.00    +0.000 A 
ATOM     31  O   UNL     1      46.972   9.094  12.239  0.00  0.00    +0.000 OA
ATOM     32  C   UNL     1      48.719   9.424  13.801  0.00  0.00    +0.000 A 
ATOM     33  H   UNL     1      46.911  11.544  12.057  0.00  0.00    +0.000 HD
ENDBRANCH  20  23
ENDBRANCH  18  19
ENDBRANCH   5  18
TORSDOF 6
ENDMDL
MODEL 5
REMARK VINA RESULT:    -7.626      3.578      5.943
REMARK INTER + INTRA:         -11.472
REMARK INTER:                 -10.496
REMARK INTRA:                  -0.976
REMARK UNBOUND:                -1.172
REMARK  Name = 
REMARK  6 active torsions:
REMARK  status: ('A' for Active; 'I' for Inactive)
REMARK    1  A    between atoms: C_2  and  C_25
REMARK    2  A    between atoms: N_3  and  C_4
REMARK    3  A    between atoms: C_4  and  C_5
REMARK    4  A    between atoms: C_9  and  C_10
REMARK    5  A    between atoms: C_10  and  N_11
REMARK    6  A    between atoms: C_12  and  C_14
REMARK                            x       y       z     vdW  Elec       q    Type
REMARK                         _______ _______ _______ _____ _____    ______ ____
ROOT
ATOM      1  C   UNL     1      45.450   4.463  12.277  0.00  0.00    +0.000 A 
ATOM      2  C   UNL     1      45.989   3.542  13.184  0.00  0.00    +0.000 A 
ATOM      3  C   UNL     1      46.916   3.954  14.139  0.00  0.00    +0.000 A 
ATOM      4  C   UNL     1      47.342   5.283  14.174  0.00  0.00    +0.000 A 
ATOM      5  C   UNL     1      46.857   6.212  13.244  0.00  0.00    +0.000 A 
ATOM      6  C   UNL     1      45.884   5.797  12.319  0.00  0.00    +0.000 A 
ENDROOT
BRANCH   1   7
ATOM      7  C   UNL     1      44.463   4.010  11.236  0.00  0.00    +0.000 C 
BRANCH   7  10
ATOM      8  O   UNL     1      45.167   5.054   8.740  0.00  0.00    +0.000 OA
ATOM      9  C   UNL     1      45.412   3.875   8.980  0.00  0.00    +0.000 C 
ATOM     10  N   UNL     1      45.104   3.271  10.178  0.00  0.00    +0.000 N 
ATOM     11  H   UNL     1      45.338   2.288  10.288  0.00  0.00    +0.000 HD
BRANCH   9  12
ATOM     12  C   UNL     1      46.080   3.001   7.964  0.00  0.00    +0.000 A 
ATOM     13  C   UNL     1      46.468   3.553   6.748  0.00  0.00    +0.000 A 
ATOM     14  C   UNL     1      47.092   2.729   5.818  0.00  0.00    +0.000 A 
ATOM     15  C   UNL     1      47.302   1.390   6.130  0.00  0.00    +0.000 A 
ATOM     16  C   UNL     1      46.880   0.925   7.369  0.00  0.00    +0.000 A 
ATOM     17  N   UNL     1      46.274   1.695   8.302  0.00  0.00    +0.000 NA
ENDBRANCH   9  12
ENDBRANCH   7  10
ENDBRANCH   1   7
BRANCH   5  18
ATOM     18  C   UNL     1      47.391   7.620  13.222  0.00  0.00    +0.000 C 
BRANCH  18  19
ATOM     19  N   UNL     1      46.392   8.578  12.829  0.00  0.00    +0.000 N 
ATOM     20  C   UNL     1      46.728   9.676  12.076  0.00  0.00    +0.000 C 
ATOM     21  O   UNL     1      47.873   9.861  11.669  0.00  0.00    +0.000 OA
ATOM     22  H   UNL     1      45.526   8.586  13.361  0.00  0.00    +0.000 HD
BRANCH  20  23
ATOM     23  C   UNL     1      45.638  10.594  11.730  0.00  0.00    +0.000 A 
ATOM     24  C   UNL     1      45.828  11.965  11.835  0.00  0.00    +0.000 A 
ATOM     25  S   UNL     1      44.480  12.884  11.335  0.00  0.00    +0.000 S 
ATOM     26  C   UNL     1      43.573  11.479  11.018  0.00  0.00    +0.000 A 
ATOM     27  N   UNL     1      42.288  11.558  10.577  0.00  0.00    +0.000 NA
ATOM     28  C   UNL     1      41.712  10.418  10.406  0.00  0.00    +0.000 A 
ATOM     29  N   UNL     1      42.303   9.202  10.631  0.00  0.00    +0.000 N 
ATOM     30  C   UNL     1      43.605   9.070  11.049  0.00  0.00    +0.000 A 
ATOM     31  O   UNL     1      44.116   7.967  11.202  0.00  0.00    +0.000 OA
ATOM     32  C   UNL     1      44.296  10.327  11.268  0.00  0.00    +0.000 A 
ATOM     33  H   UNL     1      41.800   8.342  10.472  0.00  0.00    +0.000 HD
ENDBRANCH  20  23
ENDBRANCH  18  19
ENDBRANCH   5  18
TORSDOF 6
ENDMDL
MODEL 6
REMARK VINA RESULT:    -7.626      3.468      5.005
REMARK INTER + INTRA:         -11.472
REMARK INTER:                 -10.447
REMARK INTRA:                  -1.025
REMARK UNBOUND:                -1.172
REMARK  Name = 
REMARK  6 active torsions:
REMARK  status: ('A' for Active; 'I' for Inactive)
REMARK    1  A    between atoms: C_2  and  C_25
REMARK    2  A    between atoms: N_3  and  C_4
REMARK    3  A    between atoms: C_4  and  C_5
REMARK    4  A    between atoms: C_9  and  C_10
REMARK    5  A    between atoms: C_10  and  N_11
REMARK    6  A    between atoms: C_12  and  C_14
REMARK                            x       y       z     vdW  Elec       q    Type
REMARK                         _______ _______ _______ _____ _____    ______ ____
ROOT
ATOM      1  C   UNL     1      44.951   4.031  12.207  0.00  0.00    +0.000 A 
ATOM      2  C   UNL     1      45.959   3.548  13.051  0.00  0.00    +0.000 A 
ATOM      3  C   UNL     1      46.697   4.427  13.842  0.00  0.00    +0.000 A 
ATOM      4  C   UNL     1      46.460   5.800  13.770  0.00  0.00    +0.000 A 
ATOM      5  C   UNL     1      45.493   6.313  12.895  0.00  0.00    +0.000 A 
ATOM      6  C   UNL     1      44.719   5.414  12.142  0.00  0.00    +0.000 A 
ENDROOT
BRANCH   1   7
ATOM      7  C   UNL     1      44.169   3.081  11.342  0.00  0.00    +0.000 C 
BRANCH   7  10
ATOM      8  O   UNL     1      44.371   4.283   8.827  0.00  0.00    +0.000 OA
ATOM      9  C   UNL     1      44.995   3.248   9.040  0.00  0.00    +0.000 C 
ATOM     10  N   UNL     1      44.960   2.584  10.245  0.00  0.00    +0.000 N 
ATOM     11  H   UNL     1      45.504   1.730  10.332  0.00  0.00    +0.000 HD
BRANCH   9  12
ATOM     12  C   UNL     1      45.857   2.632   7.983  0.00  0.00    +0.000 A 
ATOM     13  C   UNL     1      46.146   3.362   6.835  0.00  0.00    +0.000 A 
ATOM     14  C   UNL     1      46.952   2.778   5.865  0.00  0.00    +0.000 A 
ATOM     15  C   UNL     1      47.436   1.490   6.071  0.00  0.00    +0.000 A 
ATOM     16  C   UNL     1      47.096   0.835   7.247  0.00  0.00    +0.000 A 
ATOM     17  N   UNL     1      46.319   1.371   8.216  0.00  0.00    +0.000 NA
ENDBRANCH   9  12
ENDBRANCH   7  10
ENDBRANCH   1   7
BRANCH   5  18
ATOM     18  C   UNL     1      45.307   7.801  12.749  0.00  0.00    +0.000 C 
BRANCH  18  19
ATOM     19  N   UNL     1      46.415   8.427  12.077  0.00  0.00    +0.000 N 
ATOM     20  C   UNL     1      47.394   9.075  12.788  0.00  0.00    +0.000 C 
ATOM     21  O   UNL     1      47.394   9.107  14.017  0.00  0.00    +0.000 OA
ATOM     22  H   UNL     1      46.296   8.637  11.089  0.00  0.00    +0.000 HD
BRANCH  20  23
ATOM     23  C   UNL     1      48.478   9.682  12.010  0.00  0.00    +0.000 A 
ATOM     24  C   UNL     1      48.354  10.986  11.550  0.00  0.00    +0.000 A 
ATOM     25  S   UNL     1      49.730  11.553  10.717  0.00  0.00    +0.000 S 
ATOM     26  C   UNL     1      50.518  10.054  10.890  0.00  0.00    +0.000 A 
ATOM     27  N   UNL     1      51.756   9.848  10.365  0.00  0.00    +0.000 NA
ATOM     28  C   UNL     1      52.220   8.659  10.544  0.00  0.00    +0.000 A 
ATOM     29  N   UNL     1      51.562   7.655  11.205  0.00  0.00    +0.000 N 
ATOM     30  C   UNL     1      50.324   7.823  11.776  0.00  0.00    +0.000 A 
ATOM     31  O   UNL     1      49.780   6.916  12.396  0.00  0.00    +0.000 OA
ATOM     32  C   UNL     1      49.751   9.143  11.591  0.00  0.00    +0.000 A 
ATOM     33  H   UNL     1      51.982   6.744  11.319  0.00  0.00    +0.000 HD
ENDBRANCH  20  23
ENDBRANCH  18  19
ENDBRANCH   5  18
TORSDOF 6
ENDMDL
MODEL 7
REMARK VINA RESULT:    -7.469      2.581      3.452
REMARK INTER + INTRA:         -11.261
REMARK INTER:                 -10.344
REMARK INTRA:                  -0.917
REMARK UNBOUND:                -1.172
REMARK  Name = 
REMARK  6 active torsions:
REMARK  status: ('A' for Active; 'I' for Inactive)
REMARK    1  A    between atoms: C_2  and  C_25
REMARK    2  A    between atoms: N_3  and  C_4
REMARK    3  A    between atoms: C_4  and  C_5
REMARK    4  A    between atoms: C_9  and  C_10
REMARK    5  A    between atoms: C_10  and  N_11
REMARK    6  A    between atoms: C_12  and  C_14
REMARK                            x       y       z     vdW  Elec       q    Type
REMARK                         _______ _______ _______ _____ _____    ______ ____
ROOT
ATOM      1  C   UNL     1      44.510   4.845  11.665  0.00  0.00    +0.000 A 
ATOM      2  C   UNL     1      45.277   4.011  12.488  0.00  0.00    +0.000 A 
ATOM      3  C   UNL     1      46.079   4.553  13.491  0.00  0.00    +0.000 A 
ATOM      4  C   UNL     1      46.150   5.937  13.657  0.00  0.00    +0.000 A 
ATOM      5  C   UNL     1      45.434   6.795  12.812  0.00  0.00    +0.000 A 
ATOM      6  C   UNL     1      44.589   6.236  11.840  0.00  0.00    +0.000 A 
ENDROOT
BRANCH   1   7
ATOM      7  C   UNL     1      43.661   4.255  10.572  0.00  0.00    +0.000 C 
BRANCH   7  10
ATOM      8  O   UNL     1      45.435   5.182   8.621  0.00  0.00    +0.000 OA
ATOM      9  C   UNL     1      45.283   3.972   8.756  0.00  0.00    +0.000 C 
ATOM     10  N   UNL     1      44.433   3.420   9.688  0.00  0.00    +0.000 N 
ATOM     11  H   UNL     1      44.364   2.407   9.726  0.00  0.00    +0.000 HD
BRANCH   9  12
ATOM     12  C   UNL     1      46.030   2.997   7.901  0.00  0.00    +0.000 A 
ATOM     13  C   UNL     1      46.581   3.435   6.701  0.00  0.00    +0.000 A 
ATOM     14  C   UNL     1      47.277   2.518   5.920  0.00  0.00    +0.000 A 
ATOM     15  C   UNL     1      47.394   1.204   6.360  0.00  0.00    +0.000 A 
ATOM     16  C   UNL     1      46.810   0.855   7.570  0.00  0.00    +0.000 A 
ATOM     17  N   UNL     1      46.130   1.718   8.360  0.00  0.00    +0.000 NA
ENDBRANCH   9  12
ENDBRANCH   7  10
ENDBRANCH   1   7
BRANCH   5  18
ATOM     18  C   UNL     1      45.590   8.289  12.931  0.00  0.00    +0.000 C 
BRANCH  18  19
ATOM     19  N   UNL     1      46.667   8.658  13.811  0.00  0.00    +0.000 N 
ATOM     20  C   UNL     1      47.807   9.244  13.320  0.00  0.00    +0.000 C 
ATOM     21  O   UNL     1      47.937   9.519  12.129  0.00  0.00    +0.000 OA
ATOM     22  H   UNL     1      46.691   8.211  14.724  0.00  0.00    +0.000 HD
BRANCH  20  23
ATOM     23  C   UNL     1      48.847   9.580  14.298  0.00  0.00    +0.000 A 
ATOM     24  C   UNL     1      49.095  10.909  14.614  0.00  0.00    +0.000 A 
ATOM     25  S   UNL     1      50.293  11.116  15.811  0.00  0.00    +0.000 S 
ATOM     26  C   UNL     1      50.562   9.438  15.907  0.00  0.00    +0.000 A 
ATOM     27  N   UNL     1      51.504   8.925  16.744  0.00  0.00    +0.000 NA
ATOM     28  C   UNL     1      51.623   7.643  16.693  0.00  0.00    +0.000 A 
ATOM     29  N   UNL     1      50.882   6.822  15.883  0.00  0.00    +0.000 N 
ATOM     30  C   UNL     1      49.902   7.289  15.042  0.00  0.00    +0.000 A 
ATOM     31  O   UNL     1      49.229   6.524  14.362  0.00  0.00    +0.000 OA
ATOM     32  C   UNL     1      49.736   8.730  15.054  0.00  0.00    +0.000 A 
ATOM     33  H   UNL     1      51.017   5.822  15.893  0.00  0.00    +0.000 HD
ENDBRANCH  20  23
ENDBRANCH  18  19
ENDBRANCH   5  18
TORSDOF 6
ENDMDL
MODEL 8
REMARK VINA RESULT:    -7.405      3.739      7.751
REMARK INTER + INTRA:         -11.175
REMARK INTER:                  -9.728
REMARK INTRA:                  -1.447
REMARK UNBOUND:                -1.172
REMARK  Name = 
REMARK  6 active torsions:
REMARK  status: ('A' for Active; 'I' for Inactive)
REMARK    1  A    between atoms: C_2  and  C_25
REMARK    2  A    between atoms: N_3  and  C_4
REMARK    3  A    between atoms: C_4  and  C_5
REMARK    4  A    between atoms: C_9  and  C_10
REMARK    5  A    between atoms: C_10  and  N_11
REMARK    6  A    between atoms: C_12  and  C_14
REMARK                            x       y       z     vdW  Elec       q    Type
REMARK                         _______ _______ _______ _____ _____    ______ ____
ROOT
ATOM      1  C   UNL     1      50.588   5.401  17.038  0.00  0.00    +0.000 A 
ATOM      2  C   UNL     1      51.395   4.403  17.599  0.00  0.00    +0.000 A 
ATOM      3  C   UNL     1      50.898   3.114  17.782  0.00  0.00    +0.000 A 
ATOM      4  C   UNL     1      49.577   2.819  17.441  0.00  0.00    +0.000 A 
ATOM      5  C   UNL     1      48.733   3.813  16.928  0.00  0.00    +0.000 A 
ATOM      6  C   UNL     1      49.260   5.094  16.699  0.00  0.00    +0.000 A 
ENDROOT
BRANCH   1   7
ATOM      7  C   UNL     1      51.123   6.795  16.860  0.00  0.00    +0.000 C 
BRANCH   7  10
ATOM      8  O   UNL     1      49.109   8.669  16.368  0.00  0.00    +0.000 OA
ATOM      9  C   UNL     1      49.777   8.256  15.424  0.00  0.00    +0.000 C 
ATOM     10  N   UNL     1      50.789   7.334  15.566  0.00  0.00    +0.000 N 
ATOM     11  H   UNL     1      51.287   7.044  14.729  0.00  0.00    +0.000 HD
BRANCH   9  12
ATOM     12  C   UNL     1      49.531   8.742  14.030  0.00  0.00    +0.000 A 
ATOM     13  C   UNL     1      50.096   8.050  12.964  0.00  0.00    +0.000 A 
ATOM     14  C   UNL     1      49.855   8.511  11.675  0.00  0.00    +0.000 A 
ATOM     15  C   UNL     1      49.065   9.642  11.495  0.00  0.00    +0.000 A 
ATOM     16  C   UNL     1      48.543  10.270  12.618  0.00  0.00    +0.000 A 
ATOM     17  N   UNL     1      48.752   9.851  13.888  0.00  0.00    +0.000 NA
ENDBRANCH   9  12
ENDBRANCH   7  10
ENDBRANCH   1   7
BRANCH   5  18
ATOM     18  C   UNL     1      47.282   3.515  16.653  0.00  0.00    +0.000 C 
BRANCH  18  19
ATOM     19  N   UNL     1      46.693   4.460  15.741  0.00  0.00    +0.000 N 
ATOM     20  C   UNL     1      46.726   4.244  14.386  0.00  0.00    +0.000 C 
ATOM     21  O   UNL     1      47.211   3.224  13.900  0.00  0.00    +0.000 OA
ATOM     22  H   UNL     1      46.533   5.402  16.091  0.00  0.00    +0.000 HD
BRANCH  20  23
ATOM     23  C   UNL     1      46.100   5.267  13.542  0.00  0.00    +0.000 A 
ATOM     24  C   UNL     1      46.753   6.471  13.315  0.00  0.00    +0.000 A 
ATOM     25  S   UNL     1      45.912   7.519  12.264  0.00  0.00    +0.000 S 
ATOM     26  C   UNL     1      44.617   6.424  12.123  0.00  0.00    +0.000 A 
ATOM     27  N   UNL     1      43.524   6.724  11.370  0.00  0.00    +0.000 NA
ATOM     28  C   UNL     1      42.607   5.818  11.377  0.00  0.00    +0.000 A 
ATOM     29  N   UNL     1      42.682   4.634  12.064  0.00  0.00    +0.000 N 
ATOM     30  C   UNL     1      43.776   4.275  12.814  0.00  0.00    +0.000 A 
ATOM     31  O   UNL     1      43.829   3.192  13.384  0.00  0.00    +0.000 OA
ATOM     32  C   UNL     1      44.833   5.268  12.850  0.00  0.00    +0.000 A 
ATOM     33  H   UNL     1      41.932   3.960  12.024  0.00  0.00    +0.000 HD
ENDBRANCH  20  23
ENDBRANCH  18  19
ENDBRANCH   5  18
TORSDOF 6
ENDMDL
MODEL 9
REMARK VINA RESULT:    -7.224      3.877      9.591
REMARK INTER + INTRA:         -10.930
REMARK INTER:                  -9.894
REMARK INTRA:                  -1.036
REMARK UNBOUND:                -1.172
REMARK  Name = 
REMARK  6 active torsions:
REMARK  status: ('A' for Active; 'I' for Inactive)
REMARK    1  A    between atoms: C_2  and  C_25
REMARK    2  A    between atoms: N_3  and  C_4
REMARK    3  A    between atoms: C_4  and  C_5
REMARK    4  A    between atoms: C_9  and  C_10
REMARK    5  A    between atoms: C_10  and  N_11
REMARK    6  A    between atoms: C_12  and  C_14
REMARK                            x       y       z     vdW  Elec       q    Type
REMARK                         _______ _______ _______ _____ _____    ______ ____
ROOT
ATOM      1  C   UNL     1      50.690   4.816  17.756  0.00  0.00    +0.000 A 
ATOM      2  C   UNL     1      51.489   3.666  17.783  0.00  0.00    +0.000 A 
ATOM      3  C   UNL     1      50.961   2.432  17.409  0.00  0.00    +0.000 A 
ATOM      4  C   UNL     1      49.619   2.328  17.041  0.00  0.00    +0.000 A 
ATOM      5  C   UNL     1      48.785   3.455  17.057  0.00  0.00    +0.000 A 
ATOM      6  C   UNL     1      49.342   4.702  17.385  0.00  0.00    +0.000 A 
ENDROOT
BRANCH   1   7
ATOM      7  C   UNL     1      51.261   6.142  18.178  0.00  0.00    +0.000 C 
BRANCH   7  10
ATOM      8  O   UNL     1      50.275   6.939  20.670  0.00  0.00    +0.000 OA
ATOM      9  C   UNL     1      49.809   7.452  19.657  0.00  0.00    +0.000 C 
ATOM     10  N   UNL     1      50.229   7.126  18.387  0.00  0.00    +0.000 N 
ATOM     11  H   UNL     1      49.784   7.597  17.604  0.00  0.00    +0.000 HD
BRANCH   9  12
ATOM     12  C   UNL     1      48.735   8.491  19.738  0.00  0.00    +0.000 A 
ATOM     13  C   UNL     1      47.889   8.503  20.843  0.00  0.00    +0.000 A 
ATOM     14  C   UNL     1      46.900   9.478  20.907  0.00  0.00    +0.000 A 
ATOM     15  C   UNL     1      46.786  10.398  19.870  0.00  0.00    +0.000 A 
ATOM     16  C   UNL     1      47.673  10.310  18.806  0.00  0.00    +0.000 A 
ATOM     17  N   UNL     1      48.651   9.380  18.709  0.00  0.00    +0.000 NA
ENDBRANCH   9  12
ENDBRANCH   7  10
ENDBRANCH   1   7
BRANCH   5  18
ATOM     18  C   UNL     1      47.315   3.321  16.754  0.00  0.00    +0.000 C 
BRANCH  18  19
ATOM     19  N   UNL     1      46.851   4.332  15.841  0.00  0.00    +0.000 N 
ATOM     20  C   UNL     1      46.896   4.128  14.484  0.00  0.00    +0.000 C 
ATOM     21  O   UNL     1      47.284   3.068  13.997  0.00  0.00    +0.000 OA
ATOM     22  H   UNL     1      46.782   5.281  16.199  0.00  0.00    +0.000 HD
BRANCH  20  23
ATOM     23  C   UNL     1      46.401   5.219  13.639  0.00  0.00    +0.000 A 
ATOM     24  C   UNL     1      47.165   6.367  13.474  0.00  0.00    +0.000 A 
ATOM     25  S   UNL     1      46.469   7.507  12.413  0.00  0.00    +0.000 S 
ATOM     26  C   UNL     1      45.093   6.531  12.183  0.00  0.00    +0.000 A 
ATOM     27  N   UNL     1      44.067   6.940  11.388  0.00  0.00    +0.000 NA
ATOM     28  C   UNL     1      43.077   6.117  11.328  0.00  0.00    +0.000 A 
ATOM     29  N   UNL     1      43.018   4.917  11.987  0.00  0.00    +0.000 N 
ATOM     30  C   UNL     1      44.039   4.448  12.778  0.00  0.00    +0.000 A 
ATOM     31  O   UNL     1      43.972   3.352  13.321  0.00  0.00    +0.000 OA
ATOM     32  C   UNL     1      45.174   5.345  12.888  0.00  0.00    +0.000 A 
ATOM     33  H   UNL     1      42.216   4.311  11.894  0.00  0.00    +0.000 HD
ENDBRANCH  20  23
ENDBRANCH  18  19
ENDBRANCH   5  18
TORSDOF 6
ENDMDL
