MODEL 1
REMARK VINA RESULT:    -7.226      0.000      0.000
REMARK INTER + INTRA:         -10.668
REMARK INTER:                  -9.760
REMARK INTRA:                  -0.908
REMARK UNBOUND:                -0.908
REMARK  Name = 
REMARK  7 active torsions:
REMARK  status: ('A' for Active; 'I' for Inactive)
REMARK    1  A    between atoms: C_1  and  O_2
REMARK    2  A    between atoms: O_2  and  C_3
REMARK    3  A    between atoms: C_5  and  N_6
REMARK    4  A    between atoms: N_6  and  C_7
REMARK    5  A    between atoms: C_7  and  C_8
REMARK    6  A    between atoms: C_13  and  N_14
REMARK    7  A    between atoms: C_22  and  C_23
REMARK                            x       y       z     vdW  Elec       q    Type
REMARK                         _______ _______ _______ _____ _____    ______ ____
ROOT
ATOM      1  N   UNL     1      49.210   7.397  14.042  0.00  0.00    +0.000 N 
ATOM      2  H   UNL     1      49.737   8.258  14.094  0.00  0.00    +0.000 HD
ENDROOT
BRANCH   1   5
ATOM      3  C   UNL     1      48.571   6.920  17.643  0.00  0.00    +0.000 A 
ATOM      4  C   UNL     1      48.926   7.535  16.447  0.00  0.00    +0.000 A 
ATOM      5  C   UNL     1      48.864   6.830  15.245  0.00  0.00    +0.000 A 
ATOM      6  N   UNL     1      48.458   5.547  15.208  0.00  0.00    +0.000 NA
ATOM      7  C   UNL     1      48.122   4.961  16.397  0.00  0.00    +0.000 A 
ATOM      8  C   UNL     1      48.173   5.596  17.625  0.00  0.00    +0.000 A 
BRANCH   7   9
ATOM      9  C   UNL     1      47.657   3.541  16.339  0.00  0.00    +0.000 C 
ATOM     10  N   UNL     1      46.989   3.090  17.446  0.00  0.00    +0.000 N 
ATOM     11  O   UNL     1      47.863   2.811  15.376  0.00  0.00    +0.000 OA
ATOM     12  H   UNL     1      46.853   3.710  18.236  0.00  0.00    +0.000 HD
ATOM     13  H   UNL     1      46.670   2.133  17.479  0.00  0.00    +0.000 HD
ENDBRANCH   7   9
BRANCH   3  15
ATOM     14  C   UNL     1      47.473   8.271  19.247  0.00  0.00    +0.000 C 
ATOM     15  O   UNL     1      48.619   7.511  18.875  0.00  0.00    +0.000 OA
ENDBRANCH   3  15
ENDBRANCH   1   5
BRANCH   1  16
ATOM     16  C   UNL     1      48.828   6.851  12.763  0.00  0.00    +0.000 C 
BRANCH  16  17
ATOM     17  C   UNL     1      47.379   7.117  12.455  0.00  0.00    +0.000 A 
ATOM     18  C   UNL     1      46.892   8.427  12.415  0.00  0.00    +0.000 A 
ATOM     19  C   UNL     1      45.570   8.654  12.055  0.00  0.00    +0.000 A 
ATOM     20 CL   UNL     1      44.973  10.267  11.979  0.00  0.00    +0.000 Cl
ATOM     21  C   UNL     1      44.725   7.588  11.736  0.00  0.00    +0.000 A 
ATOM     22  C   UNL     1      45.173   6.259  11.768  0.00  0.00    +0.000 A 
ATOM     23  C   UNL     1      46.507   6.053  12.153  0.00  0.00    +0.000 A 
BRANCH  22  24
ATOM     24  N   UNL     1      44.348   5.214  11.404  0.00  0.00    +0.000 N 
ATOM     25  C   UNL     1      43.376   4.594  12.317  0.00  0.00    +0.000 C 
ATOM     26  C   UNL     1      43.566   3.060  12.363  0.00  0.00    +0.000 C 
ATOM     27  N   UNL     1      43.566   2.420  11.029  0.00  0.00    +0.000 NA
ATOM     28  C   UNL     1      44.602   3.068  10.197  0.00  0.00    +0.000 C 
ATOM     29  C   UNL     1      44.429   4.600  10.069  0.00  0.00    +0.000 C 
ATOM     30  H   UNL     1      42.660   2.596  10.594  0.00  0.00    +0.000 HD
ENDBRANCH  22  24
ENDBRANCH  16  17
ENDBRANCH   1  16
TORSDOF 6
ENDMDL
MODEL 2
REMARK VINA RESULT:    -7.140      1.543      1.739
REMARK INTER + INTRA:         -10.552
REMARK INTER:                  -9.824
REMARK INTRA:                  -0.728
REMARK UNBOUND:                -0.908
REMARK  Name = 
REMARK  7 active torsions:
REMARK  status: ('A' for Active; 'I' for Inactive)
REMARK    1  A    between atoms: C_1  and  O_2
REMARK    2  A    between atoms: O_2  and  C_3
REMARK    3  A    between atoms: C_5  and  N_6
REMARK    4  A    between atoms: N_6  and  C_7
REMARK    5  A    between atoms: C_7  and  C_8
REMARK    6  A    between atoms: C_13  and  N_14
REMARK    7  A    between atoms: C_22  and  C_23
REMARK                            x       y       z     vdW  Elec       q    Type
REMARK                         _______ _______ _______ _____ _____    ______ ____
ROOT
ATOM      1  N   UNL     1      48.206   6.662  15.786  0.00  0.00    +0.000 N 
ATOM      2  H   UNL     1      47.872   7.569  16.084  0.00  0.00    +0.000 HD
ENDROOT
BRANCH   1   5
ATOM      3  C   UNL     1      48.368   5.050  19.099  0.00  0.00    +0.000 A 
ATOM      4  C   UNL     1      48.126   6.008  18.119  0.00  0.00    +0.000 A 
ATOM      5  C   UNL     1      48.425   5.743  16.783  0.00  0.00    +0.000 A 
ATOM      6  N   UNL     1      48.947   4.561  16.405  0.00  0.00    +0.000 NA
ATOM      7  C   UNL     1      49.184   3.638  17.386  0.00  0.00    +0.000 A 
ATOM      8  C   UNL     1      48.925   3.840  18.729  0.00  0.00    +0.000 A 
BRANCH   7   9
ATOM      9  C   UNL     1      49.749   2.324  16.950  0.00  0.00    +0.000 C 
ATOM     10  N   UNL     1      50.767   1.830  17.722  0.00  0.00    +0.000 N 
ATOM     11  O   UNL     1      49.347   1.720  15.962  0.00  0.00    +0.000 OA
ATOM     12  H   UNL     1      51.093   2.363  18.520  0.00  0.00    +0.000 HD
ATOM     13  H   UNL     1      51.207   0.959  17.467  0.00  0.00    +0.000 HD
ENDBRANCH   7   9
BRANCH   3  15
ATOM     14  C   UNL     1      47.973   6.560  20.878  0.00  0.00    +0.000 C 
ATOM     15  O   UNL     1      48.136   5.216  20.436  0.00  0.00    +0.000 OA
ENDBRANCH   3  15
ENDBRANCH   1   5
BRANCH   1  16
ATOM     16  C   UNL     1      48.388   6.377  14.383  0.00  0.00    +0.000 C 
BRANCH  16  17
ATOM     17  C   UNL     1      47.182   6.773  13.574  0.00  0.00    +0.000 A 
ATOM     18  C   UNL     1      46.965   8.111  13.233  0.00  0.00    +0.000 A 
ATOM     19  C   UNL     1      45.887   8.444  12.423  0.00  0.00    +0.000 A 
ATOM     20 CL   UNL     1      45.632  10.088  11.978  0.00  0.00    +0.000 Cl
ATOM     21  C   UNL     1      45.021   7.457  11.949  0.00  0.00    +0.000 A 
ATOM     22  C   UNL     1      45.200   6.103  12.272  0.00  0.00    +0.000 A 
ATOM     23  C   UNL     1      46.284   5.793  13.107  0.00  0.00    +0.000 A 
BRANCH  22  24
ATOM     24  N   UNL     1      44.369   5.126  11.761  0.00  0.00    +0.000 N 
ATOM     25  C   UNL     1      43.388   4.392  12.574  0.00  0.00    +0.000 C 
ATOM     26  C   UNL     1      43.566   2.865  12.403  0.00  0.00    +0.000 C 
ATOM     27  N   UNL     1      43.568   2.420  10.993  0.00  0.00    +0.000 NA
ATOM     28  C   UNL     1      44.612   3.171  10.264  0.00  0.00    +0.000 C 
ATOM     29  C   UNL     1      44.450   4.707  10.353  0.00  0.00    +0.000 C 
ATOM     30  H   UNL     1      42.665   2.663  10.584  0.00  0.00    +0.000 HD
ENDBRANCH  22  24
ENDBRANCH  16  17
ENDBRANCH   1  16
TORSDOF 6
ENDMDL
MODEL 3
REMARK VINA RESULT:    -7.003      3.210      6.894
REMARK INTER + INTRA:         -10.367
REMARK INTER:                  -9.528
REMARK INTRA:                  -0.840
REMARK UNBOUND:                -0.908
REMARK  Name = 
REMARK  7 active torsions:
REMARK  status: ('A' for Active; 'I' for Inactive)
REMARK    1  A    between atoms: C_1  and  O_2
REMARK    2  A    between atoms: O_2  and  C_3
REMARK    3  A    between atoms: C_5  and  N_6
REMARK    4  A    between atoms: N_6  and  C_7
REMARK    5  A    between atoms: C_7  and  C_8
REMARK    6  A    between atoms: C_13  and  N_14
REMARK    7  A    between atoms: C_22  and  C_23
REMARK                            x       y       z     vdW  Elec       q    Type
REMARK                         _______ _______ _______ _____ _____    ______ ____
ROOT
ATOM      1  N   UNL     1      46.470   6.824  11.772  0.00  0.00    +0.000 N 
ATOM      2  H   UNL     1      45.882   7.438  12.318  0.00  0.00    +0.000 HD
ENDROOT
BRANCH   1   5
ATOM      3  C   UNL     1      45.292   4.561   9.108  0.00  0.00    +0.000 A 
ATOM      4  C   UNL     1      45.964   5.604   9.738  0.00  0.00    +0.000 A 
ATOM      5  C   UNL     1      45.828   5.805  11.111  0.00  0.00    +0.000 A 
ATOM      6  N   UNL     1      45.053   4.999  11.861  0.00  0.00    +0.000 NA
ATOM      7  C   UNL     1      44.395   3.986  11.220  0.00  0.00    +0.000 A 
ATOM      8  C   UNL     1      44.474   3.739   9.861  0.00  0.00    +0.000 A 
BRANCH   7   9
ATOM      9  C   UNL     1      43.551   3.089  12.067  0.00  0.00    +0.000 C 
ATOM     10  N   UNL     1      43.522   3.389  13.402  0.00  0.00    +0.000 N 
ATOM     11  O   UNL     1      42.927   2.136  11.612  0.00  0.00    +0.000 OA
ATOM     12  H   UNL     1      44.065   4.169  13.752  0.00  0.00    +0.000 HD
ATOM     13  H   UNL     1      42.989   2.807  14.031  0.00  0.00    +0.000 HD
ENDBRANCH   7   9
BRANCH   3  15
ATOM     14  C   UNL     1      46.507   3.627   7.304  0.00  0.00    +0.000 C 
ATOM     15  O   UNL     1      45.337   4.293   7.768  0.00  0.00    +0.000 OA
ENDBRANCH   3  15
ENDBRANCH   1   5
BRANCH   1  16
ATOM     16  C   UNL     1      47.890   7.063  11.683  0.00  0.00    +0.000 C 
BRANCH  16  17
ATOM     17  C   UNL     1      48.550   6.997  13.034  0.00  0.00    +0.000 A 
ATOM     18  C   UNL     1      49.659   7.798  13.321  0.00  0.00    +0.000 A 
ATOM     19  C   UNL     1      50.207   7.776  14.597  0.00  0.00    +0.000 A 
ATOM     20 CL   UNL     1      51.557   8.782  14.961  0.00  0.00    +0.000 Cl
ATOM     21  C   UNL     1      49.663   6.962  15.592  0.00  0.00    +0.000 A 
ATOM     22  C   UNL     1      48.553   6.139  15.345  0.00  0.00    +0.000 A 
ATOM     23  C   UNL     1      48.029   6.164  14.043  0.00  0.00    +0.000 A 
BRANCH  22  24
ATOM     24  N   UNL     1      47.989   5.374  16.345  0.00  0.00    +0.000 N 
ATOM     25  C   UNL     1      48.119   5.687  17.776  0.00  0.00    +0.000 C 
ATOM     26  C   UNL     1      48.640   4.461  18.561  0.00  0.00    +0.000 C 
ATOM     27  N   UNL     1      47.857   3.228  18.328  0.00  0.00    +0.000 NA
ATOM     28  C   UNL     1      47.819   2.962  16.875  0.00  0.00    +0.000 C 
ATOM     29  C   UNL     1      47.252   4.136  16.042  0.00  0.00    +0.000 C 
ATOM     30  H   UNL     1      46.901   3.398  18.641  0.00  0.00    +0.000 HD
ENDBRANCH  22  24
ENDBRANCH  16  17
ENDBRANCH   1  16
TORSDOF 6
ENDMDL
MODEL 4
REMARK VINA RESULT:    -6.706      1.949      2.385
REMARK INTER + INTRA:          -9.965
REMARK INTER:                  -9.185
REMARK INTRA:                  -0.781
REMARK UNBOUND:                -0.908
REMARK  Name = 
REMARK  7 active torsions:
REMARK  status: ('A' for Active; 'I' for Inactive)
REMARK    1  A    between atoms: C_1  and  O_2
REMARK    2  A    between atoms: O_2  and  C_3
REMARK    3  A    between atoms: C_5  and  N_6
REMARK    4  A    between atoms: N_6  and  C_7
REMARK    5  A    between atoms: C_7  and  C_8
REMARK    6  A    between atoms: C_13  and  N_14
REMARK    7  A    between atoms: C_22  and  C_23
REMARK                            x       y       z     vdW  Elec       q    Type
REMARK                         _______ _______ _______ _____ _____    ______ ____
ROOT
ATOM      1  N   UNL     1      48.557   7.410  15.690  0.00  0.00    +0.000 N 
ATOM      2  H   UNL     1      47.981   8.038  16.234  0.00  0.00    +0.000 HD
ENDROOT
BRANCH   1   5
ATOM      3  C   UNL     1      50.976   5.113  17.264  0.00  0.00    +0.000 A 
ATOM      4  C   UNL     1      50.470   6.210  16.573  0.00  0.00    +0.000 A 
ATOM      5  C   UNL     1      49.097   6.345  16.370  0.00  0.00    +0.000 A 
ATOM      6  N   UNL     1      48.229   5.428  16.836  0.00  0.00    +0.000 NA
ATOM      7  C   UNL     1      48.748   4.355  17.504  0.00  0.00    +0.000 A 
ATOM      8  C   UNL     1      50.098   4.152  17.728  0.00  0.00    +0.000 A 
BRANCH   7   9
ATOM      9  C   UNL     1      47.772   3.352  18.030  0.00  0.00    +0.000 C 
ATOM     10  N   UNL     1      48.095   2.784  19.233  0.00  0.00    +0.000 N 
ATOM     11  O   UNL     1      46.749   3.040  17.430  0.00  0.00    +0.000 OA
ATOM     12  H   UNL     1      48.958   3.045  19.695  0.00  0.00    +0.000 HD
ATOM     13  H   UNL     1      47.489   2.082  19.631  0.00  0.00    +0.000 HD
ENDBRANCH   7   9
BRANCH   3  15
ATOM     14  C   UNL     1      52.609   3.638  18.133  0.00  0.00    +0.000 C 
ATOM     15  O   UNL     1      52.302   4.873  17.495  0.00  0.00    +0.000 OA
ENDBRANCH   3  15
ENDBRANCH   1   5
BRANCH   1  16
ATOM     16  C   UNL     1      48.740   7.631  14.276  0.00  0.00    +0.000 C 
BRANCH  16  17
ATOM     17  C   UNL     1      47.436   7.558  13.528  0.00  0.00    +0.000 A 
ATOM     18  C   UNL     1      46.694   8.717  13.283  0.00  0.00    +0.000 A 
ATOM     19  C   UNL     1      45.532   8.638  12.526  0.00  0.00    +0.000 A 
ATOM     20 CL   UNL     1      44.630  10.068  12.200  0.00  0.00    +0.000 Cl
ATOM     21  C   UNL     1      45.100   7.414  12.011  0.00  0.00    +0.000 A 
ATOM     22  C   UNL     1      45.812   6.227  12.237  0.00  0.00    +0.000 A 
ATOM     23  C   UNL     1      46.973   6.329  13.021  0.00  0.00    +0.000 A 
BRANCH  22  24
ATOM     24  N   UNL     1      45.407   5.029  11.685  0.00  0.00    +0.000 N 
ATOM     25  C   UNL     1      45.072   4.865  10.262  0.00  0.00    +0.000 C 
ATOM     26  C   UNL     1      43.676   4.220  10.098  0.00  0.00    +0.000 C 
ATOM     27  N   UNL     1      43.508   2.963  10.860  0.00  0.00    +0.000 NA
ATOM     28  C   UNL     1      43.816   3.229  12.281  0.00  0.00    +0.000 C 
ATOM     29  C   UNL     1      45.225   3.824  12.511  0.00  0.00    +0.000 C 
ATOM     30  H   UNL     1      44.191   2.289  10.512  0.00  0.00    +0.000 HD
ENDBRANCH  22  24
ENDBRANCH  16  17
ENDBRANCH   1  16
TORSDOF 6
ENDMDL
MODEL 5
REMARK VINA RESULT:    -6.496      3.781      8.108
REMARK INTER + INTRA:          -9.682
REMARK INTER:                  -9.000
REMARK INTRA:                  -0.681
REMARK UNBOUND:                -0.908
REMARK  Name = 
REMARK  7 active torsions:
REMARK  status: ('A' for Active; 'I' for Inactive)
REMARK    1  A    between atoms: C_1  and  O_2
REMARK    2  A    between atoms: O_2  and  C_3
REMARK    3  A    between atoms: C_5  and  N_6
REMARK    4  A    between atoms: N_6  and  C_7
REMARK    5  A    between atoms: C_7  and  C_8
REMARK    6  A    between atoms: C_13  and  N_14
REMARK    7  A    between atoms: C_22  and  C_23
REMARK                            x       y       z     vdW  Elec       q    Type
REMARK                         _______ _______ _______ _____ _____    ______ ____
ROOT
ATOM      1  N   UNL     1      47.201   3.474  14.695  0.00  0.00    +0.000 N 
ATOM      2  H   UNL     1      47.771   2.674  14.456  0.00  0.00    +0.000 HD
ENDROOT
BRANCH   1   5
ATOM      3  C   UNL     1      46.073   6.019  12.276  0.00  0.00    +0.000 A 
ATOM      4  C   UNL     1      46.749   5.435  13.343  0.00  0.00    +0.000 A 
ATOM      5  C   UNL     1      46.557   4.088  13.648  0.00  0.00    +0.000 A 
ATOM      6  N   UNL     1      45.722   3.320  12.923  0.00  0.00    +0.000 NA
ATOM      7  C   UNL     1      45.062   3.917  11.885  0.00  0.00    +0.000 A 
ATOM      8  C   UNL     1      45.195   5.249  11.536  0.00  0.00    +0.000 A 
BRANCH   7   9
ATOM      9  C   UNL     1      44.150   3.048  11.079  0.00  0.00    +0.000 C 
ATOM     10  N   UNL     1      44.743   2.350  10.061  0.00  0.00    +0.000 N 
ATOM     11  O   UNL     1      42.946   2.965  11.295  0.00  0.00    +0.000 OA
ATOM     12  H   UNL     1      45.736   2.456   9.893  0.00  0.00    +0.000 HD
ATOM     13  H   UNL     1      44.177   1.764   9.465  0.00  0.00    +0.000 HD
ENDBRANCH   7   9
BRANCH   3  15
ATOM     14  C   UNL     1      45.626   8.278  12.822  0.00  0.00    +0.000 C 
ATOM     15  O   UNL     1      46.171   7.332  11.907  0.00  0.00    +0.000 OA
ENDBRANCH   3  15
ENDBRANCH   1   5
BRANCH   1  16
ATOM     16  C   UNL     1      47.065   3.888  16.070  0.00  0.00    +0.000 C 
BRANCH  16  17
ATOM     17  C   UNL     1      48.383   3.852  16.795  0.00  0.00    +0.000 A 
ATOM     18  C   UNL     1      49.136   2.675  16.839  0.00  0.00    +0.000 A 
ATOM     19  C   UNL     1      50.384   2.683  17.449  0.00  0.00    +0.000 A 
ATOM     20 CL   UNL     1      51.326   1.242  17.481  0.00  0.00    +0.000 Cl
ATOM     21  C   UNL     1      50.891   3.854  18.018  0.00  0.00    +0.000 A 
ATOM     22  C   UNL     1      50.165   5.055  18.000  0.00  0.00    +0.000 A 
ATOM     23  C   UNL     1      48.899   5.017  17.396  0.00  0.00    +0.000 A 
BRANCH  22  24
ATOM     24  N   UNL     1      50.691   6.220  18.522  0.00  0.00    +0.000 N 
ATOM     25  C   UNL     1      50.840   6.466  19.964  0.00  0.00    +0.000 C 
ATOM     26  C   UNL     1      50.188   7.811  20.361  0.00  0.00    +0.000 C 
ATOM     27  N   UNL     1      50.645   8.958  19.548  0.00  0.00    +0.000 NA
ATOM     28  C   UNL     1      50.414   8.646  18.121  0.00  0.00    +0.000 C 
ATOM     29  C   UNL     1      51.093   7.338  17.653  0.00  0.00    +0.000 C 
ATOM     30  H   UNL     1      51.651   9.062  19.686  0.00  0.00    +0.000 HD
ENDBRANCH  22  24
ENDBRANCH  16  17
ENDBRANCH   1  16
TORSDOF 6
ENDMDL
MODEL 6
REMARK VINA RESULT:    -6.264      2.628      6.325
REMARK INTER + INTRA:          -9.368
REMARK INTER:                  -8.400
REMARK INTRA:                  -0.969
REMARK UNBOUND:                -0.908
REMARK  Name = 
REMARK  7 active torsions:
REMARK  status: ('A' for Active; 'I' for Inactive)
REMARK    1  A    between atoms: C_1  and  O_2
REMARK    2  A    between atoms: O_2  and  C_3
REMARK    3  A    between atoms: C_5  and  N_6
REMARK    4  A    between atoms: N_6  and  C_7
REMARK    5  A    between atoms: C_7  and  C_8
REMARK    6  A    between atoms: C_13  and  N_14
REMARK    7  A    between atoms: C_22  and  C_23
REMARK                            x       y       z     vdW  Elec       q    Type
REMARK                         _______ _______ _______ _____ _____    ______ ____
ROOT
ATOM      1  N   UNL     1      49.672   7.286  13.204  0.00  0.00    +0.000 N 
ATOM      2  H   UNL     1      50.420   6.756  12.777  0.00  0.00    +0.000 HD
ENDROOT
BRANCH   1   5
ATOM      3  C   UNL     1      46.093   7.012  12.359  0.00  0.00    +0.000 A 
ATOM      4  C   UNL     1      47.363   7.557  12.514  0.00  0.00    +0.000 A 
ATOM      5  C   UNL     1      48.404   6.786  13.031  0.00  0.00    +0.000 A 
ATOM      6  N   UNL     1      48.212   5.502  13.387  0.00  0.00    +0.000 NA
ATOM      7  C   UNL     1      46.953   4.990  13.234  0.00  0.00    +0.000 A 
ATOM      8  C   UNL     1      45.874   5.702  12.741  0.00  0.00    +0.000 A 
BRANCH   7   9
ATOM      9  C   UNL     1      46.757   3.558  13.618  0.00  0.00    +0.000 C 
ATOM     10  N   UNL     1      45.797   2.881  12.916  0.00  0.00    +0.000 N 
ATOM     11  O   UNL     1      47.399   3.015  14.510  0.00  0.00    +0.000 OA
ATOM     12  H   UNL     1      45.267   3.364  12.200  0.00  0.00    +0.000 HD
ATOM     13  H   UNL     1      45.600   1.919  13.144  0.00  0.00    +0.000 HD
ENDBRANCH   7   9
BRANCH   3  15
ATOM     14  C   UNL     1      43.958   6.881  11.345  0.00  0.00    +0.000 C 
ATOM     15  O   UNL     1      45.000   7.685  11.886  0.00  0.00    +0.000 OA
ENDBRANCH   3  15
ENDBRANCH   1   5
BRANCH   1  16
ATOM     16  C   UNL     1      49.965   8.468  13.976  0.00  0.00    +0.000 C 
BRANCH  16  17
ATOM     17  C   UNL     1      49.519   8.324  15.406  0.00  0.00    +0.000 A 
ATOM     18  C   UNL     1      48.851   9.370  16.049  0.00  0.00    +0.000 A 
ATOM     19  C   UNL     1      48.382   9.189  17.344  0.00  0.00    +0.000 A 
ATOM     20 CL   UNL     1      47.535  10.466  18.129  0.00  0.00    +0.000 Cl
ATOM     21  C   UNL     1      48.572   7.975  18.007  0.00  0.00    +0.000 A 
ATOM     22  C   UNL     1      49.241   6.901  17.399  0.00  0.00    +0.000 A 
ATOM     23  C   UNL     1      49.724   7.115  16.099  0.00  0.00    +0.000 A 
BRANCH  22  24
ATOM     24  N   UNL     1      49.384   5.687  18.041  0.00  0.00    +0.000 N 
ATOM     25  C   UNL     1      49.184   4.391  17.376  0.00  0.00    +0.000 C 
ATOM     26  C   UNL     1      48.187   3.515  18.170  0.00  0.00    +0.000 C 
ATOM     27  N   UNL     1      48.536   3.361  19.599  0.00  0.00    +0.000 NA
ATOM     28  C   UNL     1      48.669   4.706  20.198  0.00  0.00    +0.000 C 
ATOM     29  C   UNL     1      49.698   5.609  19.477  0.00  0.00    +0.000 C 
ATOM     30  H   UNL     1      49.446   2.903  19.654  0.00  0.00    +0.000 HD
ENDBRANCH  22  24
ENDBRANCH  16  17
ENDBRANCH   1  16
TORSDOF 6
ENDMDL
MODEL 7
REMARK VINA RESULT:    -6.230      3.135      6.575
REMARK INTER + INTRA:          -9.323
REMARK INTER:                  -8.523
REMARK INTRA:                  -0.799
REMARK UNBOUND:                -0.908
REMARK  Name = 
REMARK  7 active torsions:
REMARK  status: ('A' for Active; 'I' for Inactive)
REMARK    1  A    between atoms: C_1  and  O_2
REMARK    2  A    between atoms: O_2  and  C_3
REMARK    3  A    between atoms: C_5  and  N_6
REMARK    4  A    between atoms: N_6  and  C_7
REMARK    5  A    between atoms: C_7  and  C_8
REMARK    6  A    between atoms: C_13  and  N_14
REMARK    7  A    between atoms: C_22  and  C_23
REMARK                            x       y       z     vdW  Elec       q    Type
REMARK                         _______ _______ _______ _____ _____    ______ ____
ROOT
ATOM      1  N   UNL     1      44.697   8.061  12.059  0.00  0.00    +0.000 N 
ATOM      2  H   UNL     1      44.067   8.458  11.374  0.00  0.00    +0.000 HD
ENDROOT
BRANCH   1   5
ATOM      3  C   UNL     1      44.234   4.507  11.191  0.00  0.00    +0.000 A 
ATOM      4  C   UNL     1      44.096   5.891  11.159  0.00  0.00    +0.000 A 
ATOM      5  C   UNL     1      44.807   6.692  12.053  0.00  0.00    +0.000 A 
ATOM      6  N   UNL     1      45.642   6.154  12.961  0.00  0.00    +0.000 NA
ATOM      7  C   UNL     1      45.755   4.791  12.980  0.00  0.00    +0.000 A 
ATOM      8  C   UNL     1      45.071   3.938  12.133  0.00  0.00    +0.000 A 
BRANCH   7   9
ATOM      9  C   UNL     1      46.698   4.208  13.983  0.00  0.00    +0.000 C 
ATOM     10  N   UNL     1      46.967   4.993  15.072  0.00  0.00    +0.000 N 
ATOM     11  O   UNL     1      47.215   3.104  13.848  0.00  0.00    +0.000 OA
ATOM     12  H   UNL     1      46.542   5.910  15.145  0.00  0.00    +0.000 HD
ATOM     13  H   UNL     1      47.614   4.666  15.773  0.00  0.00    +0.000 HD
ENDBRANCH   7   9
BRANCH   3  15
ATOM     14  C   UNL     1      44.351   2.584   9.815  0.00  0.00    +0.000 C 
ATOM     15  O   UNL     1      43.568   3.631  10.379  0.00  0.00    +0.000 OA
ENDBRANCH   3  15
ENDBRANCH   1   5
BRANCH   1  16
ATOM     16  C   UNL     1      45.448   8.919  12.942  0.00  0.00    +0.000 C 
BRANCH  16  17
ATOM     17  C   UNL     1      46.724   9.397  12.302  0.00  0.00    +0.000 A 
ATOM     18  C   UNL     1      46.760  10.613  11.614  0.00  0.00    +0.000 A 
ATOM     19  C   UNL     1      47.964  11.070  11.095  0.00  0.00    +0.000 A 
ATOM     20 CL   UNL     1      48.018  12.581  10.270  0.00  0.00    +0.000 Cl
ATOM     21  C   UNL     1      49.136  10.327  11.254  0.00  0.00    +0.000 A 
ATOM     22  C   UNL     1      49.142   9.099  11.933  0.00  0.00    +0.000 A 
ATOM     23  C   UNL     1      47.910   8.648  12.431  0.00  0.00    +0.000 A 
BRANCH  22  24
ATOM     24  N   UNL     1      50.312   8.392  12.129  0.00  0.00    +0.000 N 
ATOM     25  C   UNL     1      50.943   8.220  13.446  0.00  0.00    +0.000 C 
ATOM     26  C   UNL     1      52.429   8.643  13.402  0.00  0.00    +0.000 C 
ATOM     27  N   UNL     1      53.203   7.991  12.323  0.00  0.00    +0.000 NA
ATOM     28  C   UNL     1      52.528   8.256  11.035  0.00  0.00    +0.000 C 
ATOM     29  C   UNL     1      51.050   7.799  11.002  0.00  0.00    +0.000 C 
ATOM     30  H   UNL     1      53.184   6.984  12.485  0.00  0.00    +0.000 HD
ENDBRANCH  22  24
ENDBRANCH  16  17
ENDBRANCH   1  16
TORSDOF 6
ENDMDL
MODEL 8
REMARK VINA RESULT:    -6.178      3.209      6.916
REMARK INTER + INTRA:          -9.253
REMARK INTER:                  -8.379
REMARK INTRA:                  -0.875
REMARK UNBOUND:                -0.908
REMARK  Name = 
REMARK  7 active torsions:
REMARK  status: ('A' for Active; 'I' for Inactive)
REMARK    1  A    between atoms: C_1  and  O_2
REMARK    2  A    between atoms: O_2  and  C_3
REMARK    3  A    between atoms: C_5  and  N_6
REMARK    4  A    between atoms: N_6  and  C_7
REMARK    5  A    between atoms: C_7  and  C_8
REMARK    6  A    between atoms: C_13  and  N_14
REMARK    7  A    between atoms: C_22  and  C_23
REMARK                            x       y       z     vdW  Elec       q    Type
REMARK                         _______ _______ _______ _____ _____    ______ ____
ROOT
ATOM      1  N   UNL     1      48.535   7.888  13.568  0.00  0.00    +0.000 N 
ATOM      2  H   UNL     1      49.155   8.135  12.808  0.00  0.00    +0.000 HD
ENDROOT
BRANCH   1   5
ATOM      3  C   UNL     1      45.246   6.784  12.316  0.00  0.00    +0.000 A 
ATOM      4  C   UNL     1      46.315   7.618  12.631  0.00  0.00    +0.000 A 
ATOM      5  C   UNL     1      47.460   7.100  13.236  0.00  0.00    +0.000 A 
ATOM      6  N   UNL     1      47.565   5.789  13.525  0.00  0.00    +0.000 NA
ATOM      7  C   UNL     1      46.499   4.991  13.214  0.00  0.00    +0.000 A 
ATOM      8  C   UNL     1      45.330   5.440  12.628  0.00  0.00    +0.000 A 
BRANCH   7   9
ATOM      9  C   UNL     1      46.635   3.535  13.526  0.00  0.00    +0.000 C 
ATOM     10  N   UNL     1      45.805   2.698  12.829  0.00  0.00    +0.000 N 
ATOM     11  O   UNL     1      47.426   3.103  14.357  0.00  0.00    +0.000 OA
ATOM     12  H   UNL     1      45.146   3.087  12.165  0.00  0.00    +0.000 HD
ATOM     13  H   UNL     1      45.831   1.706  13.012  0.00  0.00    +0.000 HD
ENDBRANCH   7   9
BRANCH   3  15
ATOM     14  C   UNL     1      43.167   6.158  11.373  0.00  0.00    +0.000 C 
ATOM     15  O   UNL     1      44.072   7.193  11.747  0.00  0.00    +0.000 OA
ENDBRANCH   3  15
ENDBRANCH   1   5
BRANCH   1  16
ATOM     16  C   UNL     1      48.822   8.322  14.913  0.00  0.00    +0.000 C 
BRANCH  16  17
ATOM     17  C   UNL     1      49.906   7.492  15.546  0.00  0.00    +0.000 A 
ATOM     18  C   UNL     1      51.252   7.775  15.300  0.00  0.00    +0.000 A 
ATOM     19  C   UNL     1      52.236   7.044  15.953  0.00  0.00    +0.000 A 
ATOM     20 CL   UNL     1      53.895   7.409  15.672  0.00  0.00    +0.000 Cl
ATOM     21  C   UNL     1      51.893   6.030  16.850  0.00  0.00    +0.000 A 
ATOM     22  C   UNL     1      50.554   5.710  17.122  0.00  0.00    +0.000 A 
ATOM     23  C   UNL     1      49.578   6.449  16.435  0.00  0.00    +0.000 A 
BRANCH  22  24
ATOM     24  N   UNL     1      50.220   4.740  18.045  0.00  0.00    +0.000 N 
ATOM     25  C   UNL     1      49.721   3.407  17.675  0.00  0.00    +0.000 C 
ATOM     26  C   UNL     1      48.400   3.092  18.415  0.00  0.00    +0.000 C 
ATOM     27  N   UNL     1      48.481   3.270  19.881  0.00  0.00    +0.000 NA
ATOM     28  C   UNL     1      48.941   4.646  20.162  0.00  0.00    +0.000 C 
ATOM     29  C   UNL     1      50.290   5.000  19.492  0.00  0.00    +0.000 C 
ATOM     30  H   UNL     1      49.185   2.625  20.239  0.00  0.00    +0.000 HD
ENDBRANCH  22  24
ENDBRANCH  16  17
ENDBRANCH   1  16
TORSDOF 6
ENDMDL
MODEL 9
REMARK VINA RESULT:    -5.986      3.904      7.977
REMARK INTER + INTRA:          -8.993
REMARK INTER:                  -8.177
REMARK INTRA:                  -0.816
REMARK UNBOUND:                -0.908
REMARK  Name = 
REMARK  7 active torsions:
REMARK  status: ('A' for Active; 'I' for Inactive)
REMARK    1  A    between atoms: C_1  and  O_2
REMARK    2  A    between atoms: O_2  and  C_3
REMARK    3  A    between atoms: C_5  and  N_6
REMARK    4  A    between atoms: N_6  and  C_7
REMARK    5  A    between atoms: C_7  and  C_8
REMARK    6  A    between atoms: C_13  and  N_14
REMARK    7  A    between atoms: C_22  and  C_23
REMARK                            x       y       z     vdW  Elec       q    Type
REMARK                         _______ _______ _______ _____ _____    ______ ____
ROOT
ATOM      1  N   UNL     1      47.504   3.551  15.432  0.00  0.00    +0.000 N 
ATOM      2  H   UNL     1      48.292   2.952  15.227  0.00  0.00    +0.000 HD
ENDROOT
BRANCH   1   5
ATOM      3  C   UNL     1      46.753   6.175  12.951  0.00  0.00    +0.000 A 
ATOM      4  C   UNL     1      47.329   5.530  14.041  0.00  0.00    +0.000 A 
ATOM      5  C   UNL     1      46.964   4.223  14.362  0.00  0.00    +0.000 A 
ATOM      6  N   UNL     1      46.055   3.552  13.630  0.00  0.00    +0.000 NA
ATOM      7  C   UNL     1      45.496   4.208  12.569  0.00  0.00    +0.000 A 
ATOM      8  C   UNL     1      45.801   5.507  12.203  0.00  0.00    +0.000 A 
BRANCH   7   9
ATOM      9  C   UNL     1      44.500   3.446  11.755  0.00  0.00    +0.000 C 
ATOM     10  N   UNL     1      43.859   2.425  12.405  0.00  0.00    +0.000 N 
ATOM     11  O   UNL     1      44.268   3.699  10.578  0.00  0.00    +0.000 OA
ATOM     12  H   UNL     1      44.088   2.225  13.371  0.00  0.00    +0.000 HD
ATOM     13  H   UNL     1      43.193   1.857  11.904  0.00  0.00    +0.000 HD
ENDBRANCH   7   9
BRANCH   3  15
ATOM     14  C   UNL     1      45.888   8.291  12.339  0.00  0.00    +0.000 C 
ATOM     15  O   UNL     1      47.021   7.459  12.566  0.00  0.00    +0.000 OA
ENDBRANCH   3  15
ENDBRANCH   1   5
BRANCH   1  16
ATOM     16  C   UNL     1      46.982   3.636  16.774  0.00  0.00    +0.000 C 
BRANCH  16  17
ATOM     17  C   UNL     1      47.896   4.419  17.678  0.00  0.00    +0.000 A 
ATOM     18  C   UNL     1      47.376   5.376  18.554  0.00  0.00    +0.000 A 
ATOM     19  C   UNL     1      48.228   6.035  19.432  0.00  0.00    +0.000 A 
ATOM     20 CL   UNL     1      47.587   7.195  20.531  0.00  0.00    +0.000 Cl
ATOM     21  C   UNL     1      49.595   5.751  19.445  0.00  0.00    +0.000 A 
ATOM     22  C   UNL     1      50.158   4.801  18.579  0.00  0.00    +0.000 A 
ATOM     23  C   UNL     1      49.281   4.163  17.688  0.00  0.00    +0.000 A 
BRANCH  22  24
ATOM     24  N   UNL     1      51.502   4.489  18.630  0.00  0.00    +0.000 N 
ATOM     25  C   UNL     1      52.147   3.535  17.715  0.00  0.00    +0.000 C 
ATOM     26  C   UNL     1      52.933   2.463  18.505  0.00  0.00    +0.000 C 
ATOM     27  N   UNL     1      53.884   3.026  19.487  0.00  0.00    +0.000 NA
ATOM     28  C   UNL     1      53.146   3.931  20.393  0.00  0.00    +0.000 C 
ATOM     29  C   UNL     1      52.385   5.060  19.660  0.00  0.00    +0.000 C 
ATOM     30  H   UNL     1      54.570   3.584  18.978  0.00  0.00    +0.000 HD
ENDBRANCH  22  24
ENDBRANCH  16  17
ENDBRANCH   1  16
TORSDOF 6
ENDMDL
