MODEL 1
REMARK VINA RESULT:    -8.409      0.000      0.000
REMARK INTER + INTRA:         -11.328
REMARK INTER:                 -10.867
REMARK INTRA:                  -0.462
REMARK UNBOUND:                -0.462
REMARK  Name = 
REMARK  5 active torsions:
REMARK  status: ('A' for Active; 'I' for Inactive)
REMARK    1  A    between atoms: C_2  and  C_4
REMARK    2  A    between atoms: C_8  and  O_9
REMARK    3  A    between atoms: O_9  and  C_10
REMARK    4  A    between atoms: C_10  and  C_11
REMARK    5  A    between atoms: C_16  and  N_17
REMARK                            x       y       z     vdW  Elec       q    Type
REMARK                         _______ _______ _______ _____ _____    ______ ____
ROOT
ATOM      1  C   UNL     1      44.347   4.145  12.107  0.00  0.00    +0.000 A 
ATOM      2  C   UNL     1      43.589   5.300  11.970  0.00  0.00    +0.000 A 
ATOM      3  F   UNL     1      42.373   5.244  11.411  0.00  0.00    +0.000 F 
ATOM      4  C   UNL     1      44.078   6.527  12.390  0.00  0.00    +0.000 A 
ATOM      5  C   UNL     1      45.351   6.607  12.964  0.00  0.00    +0.000 A 
ATOM      6  C   UNL     1      46.164   5.473  13.125  0.00  0.00    +0.000 A 
ATOM      7  C   UNL     1      45.618   4.246  12.683  0.00  0.00    +0.000 A 
ATOM      8  F   UNL     1      46.321   3.109  12.831  0.00  0.00    +0.000 F 
ENDROOT
BRANCH   6   9
ATOM      9  N   UNL     1      47.433   5.580  13.664  0.00  0.00    +0.000 N 
ATOM     10  C   UNL     1      47.801   5.036  14.981  0.00  0.00    +0.000 C 
ATOM     11  C   UNL     1      48.464   6.134  15.844  0.00  0.00    +0.000 C 
ATOM     12  N   UNL     1      49.617   6.785  15.184  0.00  0.00    +0.000 NA
ATOM     13  C   UNL     1      49.178   7.315  13.876  0.00  0.00    +0.000 C 
ATOM     14  C   UNL     1      48.529   6.256  12.952  0.00  0.00    +0.000 C 
ATOM     15  H   UNL     1      50.324   6.070  15.009  0.00  0.00    +0.000 HD
ENDBRANCH   6   9
BRANCH   1  16
ATOM     16  C   UNL     1      43.807   2.815  11.680  0.00  0.00    +0.000 C 
BRANCH  16  17
ATOM     17  O   UNL     1      43.411   2.903  10.310  0.00  0.00    +0.000 OA
BRANCH  17  22
ATOM     18  C   UNL     1      46.194   2.126   7.995  0.00  0.00    +0.000 A 
ATOM     19  C   UNL     1      46.401   3.423   7.546  0.00  0.00    +0.000 A 
ATOM     20  N   UNL     1      45.659   4.480   7.948  0.00  0.00    +0.000 NA
ATOM     21  C   UNL     1      44.686   4.226   8.857  0.00  0.00    +0.000 A 
ATOM     22  C   UNL     1      44.414   2.966   9.387  0.00  0.00    +0.000 A 
ATOM     23  C   UNL     1      45.185   1.898   8.937  0.00  0.00    +0.000 A 
BRANCH  18  25
ATOM     24  N   UNL     1      46.650  -0.242   7.722  0.00  0.00    +0.000 N 
ATOM     25  C   UNL     1      47.065   1.043   7.500  0.00  0.00    +0.000 C 
ATOM     26  O   UNL     1      48.102   1.281   6.898  0.00  0.00    +0.000 OA
ATOM     27  H   UNL     1      47.211  -0.972   7.300  0.00  0.00    +0.000 HD
ATOM     28  H   UNL     1      45.697  -0.472   7.965  0.00  0.00    +0.000 HD
ENDBRANCH  18  25
ENDBRANCH  17  22
ENDBRANCH  16  17
ENDBRANCH   1  16
TORSDOF 5
ENDMDL
MODEL 2
REMARK VINA RESULT:    -8.102      1.757      2.374
REMARK INTER + INTRA:         -10.932
REMARK INTER:                 -10.402
REMARK INTRA:                  -0.530
REMARK UNBOUND:                -0.462
REMARK  Name = 
REMARK  5 active torsions:
REMARK  status: ('A' for Active; 'I' for Inactive)
REMARK    1  A    between atoms: C_2  and  C_4
REMARK    2  A    between atoms: C_8  and  O_9
REMARK    3  A    between atoms: O_9  and  C_10
REMARK    4  A    between atoms: C_10  and  C_11
REMARK    5  A    between atoms: C_16  and  N_17
REMARK                            x       y       z     vdW  Elec       q    Type
REMARK                         _______ _______ _______ _____ _____    ______ ____
ROOT
ATOM      1  C   UNL     1      44.890   4.856  11.849  0.00  0.00    +0.000 A 
ATOM      2  C   UNL     1      45.142   3.825  12.744  0.00  0.00    +0.000 A 
ATOM      3  F   UNL     1      44.390   2.717  12.721  0.00  0.00    +0.000 F 
ATOM      4  C   UNL     1      46.156   3.928  13.683  0.00  0.00    +0.000 A 
ATOM      5  C   UNL     1      46.942   5.084  13.732  0.00  0.00    +0.000 A 
ATOM      6  C   UNL     1      46.732   6.161  12.854  0.00  0.00    +0.000 A 
ATOM      7  C   UNL     1      45.688   6.004  11.914  0.00  0.00    +0.000 A 
ATOM      8  F   UNL     1      45.444   6.977  11.018  0.00  0.00    +0.000 F 
ENDROOT
BRANCH   6   9
ATOM      9  N   UNL     1      47.500   7.308  12.941  0.00  0.00    +0.000 N 
ATOM     10  C   UNL     1      46.974   8.598  13.413  0.00  0.00    +0.000 C 
ATOM     11  C   UNL     1      47.288   9.709  12.385  0.00  0.00    +0.000 C 
ATOM     12  N   UNL     1      48.722   9.802  12.036  0.00  0.00    +0.000 NA
ATOM     13  C   UNL     1      49.182   8.478  11.563  0.00  0.00    +0.000 C 
ATOM     14  C   UNL     1      48.922   7.325  12.563  0.00  0.00    +0.000 C 
ATOM     15  H   UNL     1      49.239  10.023  12.887  0.00  0.00    +0.000 HD
ENDBRANCH   6   9
BRANCH   1  16
ATOM     16  C   UNL     1      43.815   4.733  10.815  0.00  0.00    +0.000 C 
BRANCH  16  17
ATOM     17  O   UNL     1      43.945   3.464  10.172  0.00  0.00    +0.000 OA
BRANCH  17  22
ATOM     18  C   UNL     1      46.478   2.253   7.759  0.00  0.00    +0.000 A 
ATOM     19  C   UNL     1      46.836   3.497   7.258  0.00  0.00    +0.000 A 
ATOM     20  N   UNL     1      46.265   4.656   7.658  0.00  0.00    +0.000 NA
ATOM     21  C   UNL     1      45.313   4.562   8.619  0.00  0.00    +0.000 A 
ATOM     22  C   UNL     1      44.900   3.365   9.202  0.00  0.00    +0.000 A 
ATOM     23  C   UNL     1      45.496   2.191   8.753  0.00  0.00    +0.000 A 
BRANCH  18  25
ATOM     24  N   UNL     1      46.686  -0.163   7.674  0.00  0.00    +0.000 N 
ATOM     25  C   UNL     1      47.169   1.049   7.261  0.00  0.00    +0.000 C 
ATOM     26  O   UNL     1      48.119   1.127   6.495  0.00  0.00    +0.000 OA
ATOM     27  H   UNL     1      47.113  -0.980   7.256  0.00  0.00    +0.000 HD
ATOM     28  H   UNL     1      45.766  -0.275   8.074  0.00  0.00    +0.000 HD
ENDBRANCH  18  25
ENDBRANCH  17  22
ENDBRANCH  16  17
ENDBRANCH   1  16
TORSDOF 5
ENDMDL
MODEL 3
REMARK VINA RESULT:    -8.044      1.530      1.840
REMARK INTER + INTRA:         -10.857
REMARK INTER:                  -9.909
REMARK INTRA:                  -0.948
REMARK UNBOUND:                -0.462
REMARK  Name = 
REMARK  5 active torsions:
REMARK  status: ('A' for Active; 'I' for Inactive)
REMARK    1  A    between atoms: C_2  and  C_4
REMARK    2  A    between atoms: C_8  and  O_9
REMARK    3  A    between atoms: O_9  and  C_10
REMARK    4  A    between atoms: C_10  and  C_11
REMARK    5  A    between atoms: C_16  and  N_17
REMARK                            x       y       z     vdW  Elec       q    Type
REMARK                         _______ _______ _______ _____ _____    ______ ____
ROOT
ATOM      1  C   UNL     1      44.506   5.750  11.396  0.00  0.00    +0.000 A 
ATOM      2  C   UNL     1      44.017   7.049  11.366  0.00  0.00    +0.000 A 
ATOM      3  F   UNL     1      42.857   7.315  10.751  0.00  0.00    +0.000 F 
ATOM      4  C   UNL     1      44.720   8.089  11.951  0.00  0.00    +0.000 A 
ATOM      5  C   UNL     1      45.939   7.832  12.585  0.00  0.00    +0.000 A 
ATOM      6  C   UNL     1      46.486   6.539  12.645  0.00  0.00    +0.000 A 
ATOM      7  C   UNL     1      45.729   5.514  12.035  0.00  0.00    +0.000 A 
ATOM      8  F   UNL     1      46.168   4.243  12.076  0.00  0.00    +0.000 F 
ENDROOT
BRANCH   6   9
ATOM      9  N   UNL     1      47.710   6.313  13.248  0.00  0.00    +0.000 N 
ATOM     10  C   UNL     1      47.859   5.626  14.540  0.00  0.00    +0.000 C 
ATOM     11  C   UNL     1      48.707   6.486  15.505  0.00  0.00    +0.000 C 
ATOM     12  N   UNL     1      50.018   6.881  14.946  0.00  0.00    +0.000 NA
ATOM     13  C   UNL     1      49.796   7.571  13.657  0.00  0.00    +0.000 C 
ATOM     14  C   UNL     1      48.974   6.748  12.634  0.00  0.00    +0.000 C 
ATOM     15  H   UNL     1      50.547   6.030  14.755  0.00  0.00    +0.000 HD
ENDBRANCH   6   9
BRANCH   1  16
ATOM     16  C   UNL     1      43.732   4.621  10.789  0.00  0.00    +0.000 C 
BRANCH  16  17
ATOM     17  O   UNL     1      43.931   4.641   9.375  0.00  0.00    +0.000 OA
BRANCH  17  22
ATOM     18  C   UNL     1      46.367   2.707   7.365  0.00  0.00    +0.000 A 
ATOM     19  C   UNL     1      46.175   1.488   8.004  0.00  0.00    +0.000 A 
ATOM     20  N   UNL     1      45.329   1.316   9.045  0.00  0.00    +0.000 NA
ATOM     21  C   UNL     1      44.629   2.406   9.444  0.00  0.00    +0.000 A 
ATOM     22  C   UNL     1      44.731   3.665   8.855  0.00  0.00    +0.000 A 
ATOM     23  C   UNL     1      45.625   3.811   7.798  0.00  0.00    +0.000 A 
BRANCH  18  25
ATOM     24  N   UNL     1      48.629   2.560   6.502  0.00  0.00    +0.000 N 
ATOM     25  C   UNL     1      47.307   2.787   6.233  0.00  0.00    +0.000 C 
ATOM     26  O   UNL     1      46.922   3.025   5.097  0.00  0.00    +0.000 OA
ATOM     27  H   UNL     1      49.250   2.532   5.702  0.00  0.00    +0.000 HD
ATOM     28  H   UNL     1      48.942   2.107   7.348  0.00  0.00    +0.000 HD
ENDBRANCH  18  25
ENDBRANCH  17  22
ENDBRANCH  16  17
ENDBRANCH   1  16
TORSDOF 5
ENDMDL
MODEL 4
REMARK VINA RESULT:    -7.403      3.546      7.436
REMARK INTER + INTRA:         -10.028
REMARK INTER:                  -9.072
REMARK INTRA:                  -0.956
REMARK UNBOUND:                -0.462
REMARK  Name = 
REMARK  5 active torsions:
REMARK  status: ('A' for Active; 'I' for Inactive)
REMARK    1  A    between atoms: C_2  and  C_4
REMARK    2  A    between atoms: C_8  and  O_9
REMARK    3  A    between atoms: O_9  and  C_10
REMARK    4  A    between atoms: C_10  and  C_11
REMARK    5  A    between atoms: C_16  and  N_17
REMARK                            x       y       z     vdW  Elec       q    Type
REMARK                         _______ _______ _______ _____ _____    ______ ____
ROOT
ATOM      1  C   UNL     1      47.165   7.129  12.819  0.00  0.00    +0.000 A 
ATOM      2  C   UNL     1      46.748   8.417  12.509  0.00  0.00    +0.000 A 
ATOM      3  F   UNL     1      47.526   9.465  12.812  0.00  0.00    +0.000 F 
ATOM      4  C   UNL     1      45.523   8.643  11.902  0.00  0.00    +0.000 A 
ATOM      5  C   UNL     1      44.692   7.563  11.592  0.00  0.00    +0.000 A 
ATOM      6  C   UNL     1      45.059   6.238  11.884  0.00  0.00    +0.000 A 
ATOM      7  C   UNL     1      46.318   6.061  12.500  0.00  0.00    +0.000 A 
ATOM      8  F   UNL     1      46.756   4.821  12.783  0.00  0.00    +0.000 F 
ENDROOT
BRANCH   6   9
ATOM      9  N   UNL     1      44.207   5.186  11.599  0.00  0.00    +0.000 N 
ATOM     10  C   UNL     1      43.348   4.545  12.606  0.00  0.00    +0.000 C 
ATOM     11  C   UNL     1      43.567   3.015  12.597  0.00  0.00    +0.000 C 
ATOM     12  N   UNL     1      43.389   2.402  11.263  0.00  0.00    +0.000 NA
ATOM     13  C   UNL     1      44.284   3.084  10.304  0.00  0.00    +0.000 C 
ATOM     14  C   UNL     1      44.094   4.620  10.245  0.00  0.00    +0.000 C 
ATOM     15  H   UNL     1      42.428   2.571  10.965  0.00  0.00    +0.000 HD
ENDBRANCH   6   9
BRANCH   1  16
ATOM     16  C   UNL     1      48.501   6.882  13.447  0.00  0.00    +0.000 C 
BRANCH  16  17
ATOM     17  O   UNL     1      48.448   7.308  14.810  0.00  0.00    +0.000 OA
BRANCH  17  22
ATOM     18  C   UNL     1      48.527   4.529  17.256  0.00  0.00    +0.000 A 
ATOM     19  C   UNL     1      49.835   4.722  17.681  0.00  0.00    +0.000 A 
ATOM     20  N   UNL     1      50.650   5.677  17.179  0.00  0.00    +0.000 NA
ATOM     21  C   UNL     1      50.122   6.487  16.229  0.00  0.00    +0.000 A 
ATOM     22  C   UNL     1      48.816   6.391  15.752  0.00  0.00    +0.000 A 
ATOM     23  C   UNL     1      48.010   5.386  16.278  0.00  0.00    +0.000 A 
BRANCH  18  25
ATOM     24  N   UNL     1      48.158   2.956  19.065  0.00  0.00    +0.000 N 
ATOM     25  C   UNL     1      47.717   3.464  17.874  0.00  0.00    +0.000 C 
ATOM     26  O   UNL     1      46.682   3.065  17.358  0.00  0.00    +0.000 OA
ATOM     27  H   UNL     1      47.547   2.289  19.521  0.00  0.00    +0.000 HD
ATOM     28  H   UNL     1      48.837   3.432  19.642  0.00  0.00    +0.000 HD
ENDBRANCH  18  25
ENDBRANCH  17  22
ENDBRANCH  16  17
ENDBRANCH   1  16
TORSDOF 5
ENDMDL
MODEL 5
REMARK VINA RESULT:    -7.008      3.852      7.294
REMARK INTER + INTRA:          -9.518
REMARK INTER:                  -8.487
REMARK INTRA:                  -1.031
REMARK UNBOUND:                -0.462
REMARK  Name = 
REMARK  5 active torsions:
REMARK  status: ('A' for Active; 'I' for Inactive)
REMARK    1  A    between atoms: C_2  and  C_4
REMARK    2  A    between atoms: C_8  and  O_9
REMARK    3  A    between atoms: O_9  and  C_10
REMARK    4  A    between atoms: C_10  and  C_11
REMARK    5  A    between atoms: C_16  and  N_17
REMARK                            x       y       z     vdW  Elec       q    Type
REMARK                         _______ _______ _______ _____ _____    ______ ____
ROOT
ATOM      1  C   UNL     1      47.486   7.007  13.841  0.00  0.00    +0.000 A 
ATOM      2  C   UNL     1      47.180   8.344  13.628  0.00  0.00    +0.000 A 
ATOM      3  F   UNL     1      47.942   9.303  14.171  0.00  0.00    +0.000 F 
ATOM      4  C   UNL     1      46.080   8.712  12.869  0.00  0.00    +0.000 A 
ATOM      5  C   UNL     1      45.265   7.725  12.305  0.00  0.00    +0.000 A 
ATOM      6  C   UNL     1      45.523   6.356  12.489  0.00  0.00    +0.000 A 
ATOM      7  C   UNL     1      46.658   6.035  13.268  0.00  0.00    +0.000 A 
ATOM      8  F   UNL     1      46.991   4.747  13.465  0.00  0.00    +0.000 F 
ENDROOT
BRANCH   6   9
ATOM      9  N   UNL     1      44.685   5.397  11.950  0.00  0.00    +0.000 N 
ATOM     10  C   UNL     1      43.563   4.797  12.688  0.00  0.00    +0.000 C 
ATOM     11  C   UNL     1      43.658   3.255  12.641  0.00  0.00    +0.000 C 
ATOM     12  N   UNL     1      43.757   2.712  11.269  0.00  0.00    +0.000 NA
ATOM     13  C   UNL     1      44.906   3.348  10.589  0.00  0.00    +0.000 C 
ATOM     14  C   UNL     1      44.856   4.895  10.577  0.00  0.00    +0.000 C 
ATOM     15  H   UNL     1      42.912   2.979  10.763  0.00  0.00    +0.000 HD
ENDBRANCH   6   9
BRANCH   1  16
ATOM     16  C   UNL     1      48.690   6.610  14.636  0.00  0.00    +0.000 C 
BRANCH  16  17
ATOM     17  O   UNL     1      48.302   6.449  16.001  0.00  0.00    +0.000 OA
BRANCH  17  22
ATOM     18  C   UNL     1      49.392   3.142  17.261  0.00  0.00    +0.000 A 
ATOM     19  C   UNL     1      48.123   2.624  17.482  0.00  0.00    +0.000 A 
ATOM     20  N   UNL     1      46.984   3.320  17.265  0.00  0.00    +0.000 NA
ATOM     21  C   UNL     1      47.126   4.579  16.782  0.00  0.00    +0.000 A 
ATOM     22  C   UNL     1      48.352   5.181  16.505  0.00  0.00    +0.000 A 
ATOM     23  C   UNL     1      49.504   4.442  16.758  0.00  0.00    +0.000 A 
BRANCH  18  25
ATOM     24  N   UNL     1      51.502   2.778  18.402  0.00  0.00    +0.000 N 
ATOM     25  C   UNL     1      50.571   2.296  17.521  0.00  0.00    +0.000 C 
ATOM     26  O   UNL     1      50.704   1.202  16.992  0.00  0.00    +0.000 OA
ATOM     27  H   UNL     1      52.261   2.150  18.638  0.00  0.00    +0.000 HD
ATOM     28  H   UNL     1      51.304   3.528  19.047  0.00  0.00    +0.000 HD
ENDBRANCH  18  25
ENDBRANCH  17  22
ENDBRANCH  16  17
ENDBRANCH   1  16
TORSDOF 5
ENDMDL
MODEL 6
REMARK VINA RESULT:    -7.004      2.928      4.683
REMARK INTER + INTRA:          -9.513
REMARK INTER:                  -8.663
REMARK INTRA:                  -0.850
REMARK UNBOUND:                -0.462
REMARK  Name = 
REMARK  5 active torsions:
REMARK  status: ('A' for Active; 'I' for Inactive)
REMARK    1  A    between atoms: C_2  and  C_4
REMARK    2  A    between atoms: C_8  and  O_9
REMARK    3  A    between atoms: O_9  and  C_10
REMARK    4  A    between atoms: C_10  and  C_11
REMARK    5  A    between atoms: C_16  and  N_17
REMARK                            x       y       z     vdW  Elec       q    Type
REMARK                         _______ _______ _______ _____ _____    ______ ____
ROOT
ATOM      1  C   UNL     1      47.557   5.010  14.615  0.00  0.00    +0.000 A 
ATOM      2  C   UNL     1      47.993   6.151  13.955  0.00  0.00    +0.000 A 
ATOM      3  F   UNL     1      47.807   6.275  12.634  0.00  0.00    +0.000 F 
ATOM      4  C   UNL     1      48.639   7.168  14.639  0.00  0.00    +0.000 A 
ATOM      5  C   UNL     1      48.855   7.049  16.015  0.00  0.00    +0.000 A 
ATOM      6  C   UNL     1      48.439   5.917  16.737  0.00  0.00    +0.000 A 
ATOM      7  C   UNL     1      47.783   4.911  15.993  0.00  0.00    +0.000 A 
ATOM      8  F   UNL     1      47.326   3.810  16.615  0.00  0.00    +0.000 F 
ENDROOT
BRANCH   6   9
ATOM      9  N   UNL     1      48.692   5.806  18.092  0.00  0.00    +0.000 N 
ATOM     10  C   UNL     1      49.498   4.724  18.677  0.00  0.00    +0.000 C 
ATOM     11  C   UNL     1      48.716   4.034  19.818  0.00  0.00    +0.000 C 
ATOM     12  N   UNL     1      48.234   4.974  20.855  0.00  0.00    +0.000 NA
ATOM     13  C   UNL     1      47.428   6.027  20.202  0.00  0.00    +0.000 C 
ATOM     14  C   UNL     1      48.167   6.776  19.065  0.00  0.00    +0.000 C 
ATOM     15  H   UNL     1      49.049   5.423  21.274  0.00  0.00    +0.000 HD
ENDBRANCH   6   9
BRANCH   1  16
ATOM     16  C   UNL     1      46.833   3.925  13.881  0.00  0.00    +0.000 C 
BRANCH  16  17
ATOM     17  O   UNL     1      45.429   4.169  13.976  0.00  0.00    +0.000 OA
BRANCH  17  22
ATOM     18  C   UNL     1      44.469   4.503  10.416  0.00  0.00    +0.000 A 
ATOM     19  C   UNL     1      43.206   5.038  10.635  0.00  0.00    +0.000 A 
ATOM     20  N   UNL     1      42.688   5.246  11.867  0.00  0.00    +0.000 NA
ATOM     21  C   UNL     1      43.480   4.928  12.920  0.00  0.00    +0.000 A 
ATOM     22  C   UNL     1      44.768   4.409  12.806  0.00  0.00    +0.000 A 
ATOM     23  C   UNL     1      45.263   4.190  11.524  0.00  0.00    +0.000 A 
BRANCH  18  25
ATOM     24  N   UNL     1      44.343   3.347   8.287  0.00  0.00    +0.000 N 
ATOM     25  C   UNL     1      44.945   4.323   9.032  0.00  0.00    +0.000 C 
ATOM     26  O   UNL     1      45.825   5.030   8.561  0.00  0.00    +0.000 OA
ATOM     27  H   UNL     1      44.618   3.293   7.313  0.00  0.00    +0.000 HD
ATOM     28  H   UNL     1      43.455   2.938   8.540  0.00  0.00    +0.000 HD
ENDBRANCH  18  25
ENDBRANCH  17  22
ENDBRANCH  16  17
ENDBRANCH   1  16
TORSDOF 5
ENDMDL
MODEL 7
REMARK VINA RESULT:    -6.820      3.293      6.745
REMARK INTER + INTRA:          -9.275
REMARK INTER:                  -8.810
REMARK INTRA:                  -0.465
REMARK UNBOUND:                -0.462
REMARK  Name = 
REMARK  5 active torsions:
REMARK  status: ('A' for Active; 'I' for Inactive)
REMARK    1  A    between atoms: C_2  and  C_4
REMARK    2  A    between atoms: C_8  and  O_9
REMARK    3  A    between atoms: O_9  and  C_10
REMARK    4  A    between atoms: C_10  and  C_11
REMARK    5  A    between atoms: C_16  and  N_17
REMARK                            x       y       z     vdW  Elec       q    Type
REMARK                         _______ _______ _______ _____ _____    ______ ____
ROOT
ATOM      1  C   UNL     1      44.983   5.544  11.302  0.00  0.00    +0.000 A 
ATOM      2  C   UNL     1      44.096   4.927  12.173  0.00  0.00    +0.000 A 
ATOM      3  F   UNL     1      43.758   5.526  13.324  0.00  0.00    +0.000 F 
ATOM      4  C   UNL     1      43.560   3.683  11.882  0.00  0.00    +0.000 A 
ATOM      5  C   UNL     1      43.912   3.037  10.694  0.00  0.00    +0.000 A 
ATOM      6  C   UNL     1      44.807   3.610   9.775  0.00  0.00    +0.000 A 
ATOM      7  C   UNL     1      45.323   4.881  10.118  0.00  0.00    +0.000 A 
ATOM      8  F   UNL     1      46.162   5.511   9.276  0.00  0.00    +0.000 F 
ENDROOT
BRANCH   6   9
ATOM      9  N   UNL     1      45.168   2.939   8.621  0.00  0.00    +0.000 N 
ATOM     10  C   UNL     1      45.334   1.479   8.553  0.00  0.00    +0.000 C 
ATOM     11  C   UNL     1      46.715   1.127   7.954  0.00  0.00    +0.000 C 
ATOM     12  N   UNL     1      46.969   1.764   6.643  0.00  0.00    +0.000 NA
ATOM     13  C   UNL     1      46.794   3.225   6.784  0.00  0.00    +0.000 C 
ATOM     14  C   UNL     1      45.417   3.645   7.354  0.00  0.00    +0.000 C 
ATOM     15  H   UNL     1      46.261   1.429   5.989  0.00  0.00    +0.000 HD
ENDBRANCH   6   9
BRANCH   1  16
ATOM     16  C   UNL     1      45.539   6.901  11.603  0.00  0.00    +0.000 C 
BRANCH  16  17
ATOM     17  O   UNL     1      46.774   6.742  12.303  0.00  0.00    +0.000 OA
BRANCH  17  22
ATOM     18  C   UNL     1      49.970   8.460  11.565  0.00  0.00    +0.000 A 
ATOM     19  C   UNL     1      49.475   9.756  11.613  0.00  0.00    +0.000 A 
ATOM     20  N   UNL     1      48.175  10.051  11.839  0.00  0.00    +0.000 NA
ATOM     21  C   UNL     1      47.343   9.001  12.051  0.00  0.00    +0.000 A 
ATOM     22  C   UNL     1      47.745   7.666  12.047  0.00  0.00    +0.000 A 
ATOM     23  C   UNL     1      49.087   7.399  11.792  0.00  0.00    +0.000 A 
BRANCH  18  25
ATOM     24  N   UNL     1      51.766   7.097  10.667  0.00  0.00    +0.000 N 
ATOM     25  C   UNL     1      51.408   8.246  11.319  0.00  0.00    +0.000 C 
ATOM     26  O   UNL     1      52.246   9.069  11.661  0.00  0.00    +0.000 OA
ATOM     27  H   UNL     1      52.745   7.005  10.428  0.00  0.00    +0.000 HD
ATOM     28  H   UNL     1      51.106   6.541  10.143  0.00  0.00    +0.000 HD
ENDBRANCH  18  25
ENDBRANCH  17  22
ENDBRANCH  16  17
ENDBRANCH   1  16
TORSDOF 5
ENDMDL
MODEL 8
REMARK VINA RESULT:    -6.800      4.186      7.311
REMARK INTER + INTRA:          -9.250
REMARK INTER:                  -8.148
REMARK INTRA:                  -1.102
REMARK UNBOUND:                -0.462
REMARK  Name = 
REMARK  5 active torsions:
REMARK  status: ('A' for Active; 'I' for Inactive)
REMARK    1  A    between atoms: C_2  and  C_4
REMARK    2  A    between atoms: C_8  and  O_9
REMARK    3  A    between atoms: O_9  and  C_10
REMARK    4  A    between atoms: C_10  and  C_11
REMARK    5  A    between atoms: C_16  and  N_17
REMARK                            x       y       z     vdW  Elec       q    Type
REMARK                         _______ _______ _______ _____ _____    ______ ____
ROOT
ATOM      1  C   UNL     1      47.760   7.107  12.771  0.00  0.00    +0.000 A 
ATOM      2  C   UNL     1      48.443   6.784  13.936  0.00  0.00    +0.000 A 
ATOM      3  F   UNL     1      49.544   7.466  14.281  0.00  0.00    +0.000 F 
ATOM      4  C   UNL     1      48.015   5.747  14.750  0.00  0.00    +0.000 A 
ATOM      5  C   UNL     1      46.877   5.015  14.399  0.00  0.00    +0.000 A 
ATOM      6  C   UNL     1      46.146   5.293  13.231  0.00  0.00    +0.000 A 
ATOM      7  C   UNL     1      46.623   6.361  12.438  0.00  0.00    +0.000 A 
ATOM      8  F   UNL     1      45.962   6.711  11.320  0.00  0.00    +0.000 F 
ENDROOT
BRANCH   6   9
ATOM      9  N   UNL     1      45.043   4.535  12.886  0.00  0.00    +0.000 N 
ATOM     10  C   UNL     1      45.137   3.228  12.217  0.00  0.00    +0.000 C 
ATOM     11  C   UNL     1      44.253   3.213  10.950  0.00  0.00    +0.000 C 
ATOM     12  N   UNL     1      42.846   3.591  11.208  0.00  0.00    +0.000 NA
ATOM     13  C   UNL     1      42.823   4.912  11.870  0.00  0.00    +0.000 C 
ATOM     14  C   UNL     1      43.670   4.984  13.165  0.00  0.00    +0.000 C 
ATOM     15  H   UNL     1      42.453   2.911  11.859  0.00  0.00    +0.000 HD
ENDBRANCH   6   9
BRANCH   1  16
ATOM     16  C   UNL     1      48.206   8.245  11.908  0.00  0.00    +0.000 C 
BRANCH  16  17
ATOM     17  O   UNL     1      47.833   9.470  12.540  0.00  0.00    +0.000 OA
BRANCH  17  22
ATOM     18  C   UNL     1      44.578  10.715  11.290  0.00  0.00    +0.000 A 
ATOM     19  C   UNL     1      45.076  11.811  10.598  0.00  0.00    +0.000 A 
ATOM     20  N   UNL     1      46.387  12.142  10.567  0.00  0.00    +0.000 NA
ATOM     21  C   UNL     1      47.234  11.323  11.239  0.00  0.00    +0.000 A 
ATOM     22  C   UNL     1      46.838  10.188  11.943  0.00  0.00    +0.000 A 
ATOM     23  C   UNL     1      45.479   9.888  11.969  0.00  0.00    +0.000 A 
BRANCH  18  25
ATOM     24  N   UNL     1      42.349  11.069  12.182  0.00  0.00    +0.000 N 
ATOM     25  C   UNL     1      43.131  10.436  11.254  0.00  0.00    +0.000 C 
ATOM     26  O   UNL     1      42.644   9.688  10.417  0.00  0.00    +0.000 OA
ATOM     27  H   UNL     1      41.349  10.937  12.089  0.00  0.00    +0.000 HD
ATOM     28  H   UNL     1      42.664  11.878  12.698  0.00  0.00    +0.000 HD
ENDBRANCH  18  25
ENDBRANCH  17  22
ENDBRANCH  16  17
ENDBRANCH   1  16
TORSDOF 5
ENDMDL
MODEL 9
REMARK VINA RESULT:    -6.702      2.978      4.834
REMARK INTER + INTRA:          -9.123
REMARK INTER:                  -8.557
REMARK INTRA:                  -0.566
REMARK UNBOUND:                -0.462
REMARK  Name = 
REMARK  5 active torsions:
REMARK  status: ('A' for Active; 'I' for Inactive)
REMARK    1  A    between atoms: C_2  and  C_4
REMARK    2  A    between atoms: C_8  and  O_9
REMARK    3  A    between atoms: O_9  and  C_10
REMARK    4  A    between atoms: C_10  and  C_11
REMARK    5  A    between atoms: C_16  and  N_17
REMARK                            x       y       z     vdW  Elec       q    Type
REMARK                         _______ _______ _______ _____ _____    ______ ____
ROOT
ATOM      1  C   UNL     1      48.328   6.969  13.722  0.00  0.00    +0.000 A 
ATOM      2  C   UNL     1      49.281   7.923  14.053  0.00  0.00    +0.000 A 
ATOM      3  F   UNL     1      49.690   8.809  13.135  0.00  0.00    +0.000 F 
ATOM      4  C   UNL     1      49.837   7.966  15.322  0.00  0.00    +0.000 A 
ATOM      5  C   UNL     1      49.432   7.039  16.288  0.00  0.00    +0.000 A 
ATOM      6  C   UNL     1      48.474   6.050  16.011  0.00  0.00    +0.000 A 
ATOM      7  C   UNL     1      47.936   6.051  14.704  0.00  0.00    +0.000 A 
ATOM      8  F   UNL     1      46.991   5.155  14.369  0.00  0.00    +0.000 F 
ENDROOT
BRANCH   6   9
ATOM      9  N   UNL     1      48.113   5.122  16.971  0.00  0.00    +0.000 N 
ATOM     10  C   UNL     1      47.609   5.492  18.303  0.00  0.00    +0.000 C 
ATOM     11  C   UNL     1      48.427   4.773  19.400  0.00  0.00    +0.000 C 
ATOM     12  N   UNL     1      48.480   3.305  19.229  0.00  0.00    +0.000 NA
ATOM     13  C   UNL     1      49.001   3.004  17.878  0.00  0.00    +0.000 C 
ATOM     14  C   UNL     1      48.206   3.674  16.731  0.00  0.00    +0.000 C 
ATOM     15  H   UNL     1      47.526   2.948  19.280  0.00  0.00    +0.000 HD
ENDBRANCH   6   9
BRANCH   1  16
ATOM     16  C   UNL     1      47.706   6.941  12.361  0.00  0.00    +0.000 C 
BRANCH  16  17
ATOM     17  O   UNL     1      46.298   7.137  12.499  0.00  0.00    +0.000 OA
BRANCH  17  22
ATOM     18  C   UNL     1      44.857   4.878   9.943  0.00  0.00    +0.000 A 
ATOM     19  C   UNL     1      43.629   4.692  10.563  0.00  0.00    +0.000 A 
ATOM     20  N   UNL     1      43.302   5.242  11.754  0.00  0.00    +0.000 NA
ATOM     21  C   UNL     1      44.239   6.032  12.335  0.00  0.00    +0.000 A 
ATOM     22  C   UNL     1      45.491   6.300  11.784  0.00  0.00    +0.000 A 
ATOM     23  C   UNL     1      45.801   5.702  10.566  0.00  0.00    +0.000 A 
BRANCH  18  25
ATOM     24  N   UNL     1      44.304   3.192   8.289  0.00  0.00    +0.000 N 
ATOM     25  C   UNL     1      45.112   4.240   8.639  0.00  0.00    +0.000 C 
ATOM     26  O   UNL     1      45.991   4.643   7.890  0.00  0.00    +0.000 OA
ATOM     27  H   UNL     1      44.432   2.822   7.355  0.00  0.00    +0.000 HD
ATOM     28  H   UNL     1      43.421   3.010   8.742  0.00  0.00    +0.000 HD
ENDBRANCH  18  25
ENDBRANCH  17  22
ENDBRANCH  16  17
ENDBRANCH   1  16
TORSDOF 5
ENDMDL
