MODEL 1
REMARK VINA RESULT:    -8.476      0.000      0.000
REMARK INTER + INTRA:         -13.406
REMARK INTER:                 -12.192
REMARK INTRA:                  -1.214
REMARK UNBOUND:                -1.214
REMARK  Name = 
REMARK  9 active torsions:
REMARK  status: ('A' for Active; 'I' for Inactive)
REMARK    1  A    between atoms: C_1  and  N_2
REMARK    2  A    between atoms: C_4  and  C_5
REMARK    3  A    between atoms: N_7  and  C_8
REMARK    4  A    between atoms: C_8  and  C_9
REMARK    5  A    between atoms: C_12  and  C_13
REMARK    6  A    between atoms: C_13  and  C_14
REMARK    7  A    between atoms: C_14  and  O_15
REMARK    8  A    between atoms: O_15  and  C_16
REMARK    9  A    between atoms: C_25  and  O_26
REMARK                            x       y       z     vdW  Elec       q    Type
REMARK                         _______ _______ _______ _____ _____    ______ ____
ROOT
ATOM      1  C   UNL     1      48.536   6.872  14.533  0.00  0.00    +0.000 C 
ATOM      2  O   UNL     1      49.236   6.613  13.558  0.00  0.00    +0.000 OA
ATOM      3  N   UNL     1      47.398   7.634  14.449  0.00  0.00    +0.000 N 
ATOM      4  H   UNL     1      46.847   7.829  15.271  0.00  0.00    +0.000 HD
ENDROOT
BRANCH   1   8
ATOM      5  C   UNL     1      50.646   6.320  19.040  0.00  0.00    +0.000 C 
ATOM      6  N   UNL     1      49.813   6.115  17.877  0.00  0.00    +0.000 N 
ATOM      7  C   UNL     1      49.820   6.890  16.744  0.00  0.00    +0.000 A 
ATOM      8  C   UNL     1      48.880   6.376  15.859  0.00  0.00    +0.000 A 
ATOM      9  C   UNL     1      48.293   5.233  16.504  0.00  0.00    +0.000 A 
ATOM     10  C   UNL     1      47.322   4.271  16.209  0.00  0.00    +0.000 A 
ATOM     11  N   UNL     1      47.021   3.310  17.100  0.00  0.00    +0.000 NA
ATOM     12  C   UNL     1      47.685   3.313  18.266  0.00  0.00    +0.000 A 
ATOM     13  N   UNL     1      48.637   4.170  18.676  0.00  0.00    +0.000 NA
ATOM     14  C   UNL     1      48.898   5.109  17.749  0.00  0.00    +0.000 A 
BRANCH  10  15
ATOM     15  O   UNL     1      46.613   4.220  15.034  0.00  0.00    +0.000 OA
ATOM     16  H   UNL     1      46.031   5.006  15.003  0.00  0.00    +0.000 HD
ENDBRANCH  10  15
ENDBRANCH   1   8
BRANCH   3  17
ATOM     17  C   UNL     1      46.965   8.171  13.185  0.00  0.00    +0.000 C 
BRANCH  17  18
ATOM     18  C   UNL     1      46.145   7.170  12.422  0.00  0.00    +0.000 A 
ATOM     19  C   UNL     1      46.636   6.635  11.227  0.00  0.00    +0.000 A 
ATOM     20  C   UNL     1      45.884   5.705  10.508  0.00  0.00    +0.000 A 
ATOM     21  C   UNL     1      44.620   5.294  10.956  0.00  0.00    +0.000 A 
ATOM     22  C   UNL     1      44.126   5.848  12.145  0.00  0.00    +0.000 A 
ATOM     23  C   UNL     1      44.877   6.780  12.867  0.00  0.00    +0.000 A 
BRANCH  21  24
ATOM     24  C   UNL     1      43.769   4.277  10.222  0.00  0.00    +0.000 C 
BRANCH  24  25
ATOM     25  C   UNL     1      44.393   2.889  10.111  0.00  0.00    +0.000 C 
BRANCH  25  26
ATOM     26  O   UNL     1      44.272   2.389   8.779  0.00  0.00    +0.000 OA
BRANCH  26  27
ATOM     27  C   UNL     1      45.461   2.332   8.096  0.00  0.00    +0.000 A 
ATOM     28  C   UNL     1      46.282   1.202   8.010  0.00  0.00    +0.000 A 
ATOM     29  C   UNL     1      47.469   1.245   7.280  0.00  0.00    +0.000 A 
ATOM     30  C   UNL     1      47.840   2.416   6.626  0.00  0.00    +0.000 A 
ATOM     31  C   UNL     1      47.022   3.542   6.697  0.00  0.00    +0.000 A 
ATOM     32  C   UNL     1      45.831   3.497   7.425  0.00  0.00    +0.000 A 
ENDBRANCH  26  27
ENDBRANCH  25  26
ENDBRANCH  24  25
ENDBRANCH  21  24
ENDBRANCH  17  18
ENDBRANCH   3  17
TORSDOF 8
ENDMDL
MODEL 2
REMARK VINA RESULT:    -8.033      1.619      1.996
REMARK INTER + INTRA:         -12.768
REMARK INTER:                 -11.576
REMARK INTRA:                  -1.192
REMARK UNBOUND:                -1.214
REMARK  Name = 
REMARK  9 active torsions:
REMARK  status: ('A' for Active; 'I' for Inactive)
REMARK    1  A    between atoms: C_1  and  N_2
REMARK    2  A    between atoms: C_4  and  C_5
REMARK    3  A    between atoms: N_7  and  C_8
REMARK    4  A    between atoms: C_8  and  C_9
REMARK    5  A    between atoms: C_12  and  C_13
REMARK    6  A    between atoms: C_13  and  C_14
REMARK    7  A    between atoms: C_14  and  O_15
REMARK    8  A    between atoms: O_15  and  C_16
REMARK    9  A    between atoms: C_25  and  O_26
REMARK                            x       y       z     vdW  Elec       q    Type
REMARK                         _______ _______ _______ _____ _____    ______ ____
ROOT
ATOM      1  C   UNL     1      48.893   7.032  15.580  0.00  0.00    +0.000 C 
ATOM      2  O   UNL     1      49.914   6.540  15.108  0.00  0.00    +0.000 OA
ATOM      3  N   UNL     1      47.863   7.496  14.801  0.00  0.00    +0.000 N 
ATOM      4  H   UNL     1      47.039   7.897  15.222  0.00  0.00    +0.000 HD
ENDROOT
BRANCH   1   8
ATOM      5  C   UNL     1      48.077   8.870  20.166  0.00  0.00    +0.000 C 
ATOM      6  N   UNL     1      48.350   7.958  19.078  0.00  0.00    +0.000 N 
ATOM      7  C   UNL     1      48.445   8.304  17.753  0.00  0.00    +0.000 A 
ATOM      8  C   UNL     1      48.713   7.153  17.021  0.00  0.00    +0.000 A 
ATOM      9  C   UNL     1      48.784   6.074  17.967  0.00  0.00    +0.000 A 
ATOM     10  C   UNL     1      49.014   4.695  17.940  0.00  0.00    +0.000 A 
ATOM     11  N   UNL     1      49.001   3.978  19.077  0.00  0.00    +0.000 NA
ATOM     12  C   UNL     1      48.762   4.634  20.223  0.00  0.00    +0.000 A 
ATOM     13  N   UNL     1      48.528   5.948  20.393  0.00  0.00    +0.000 NA
ATOM     14  C   UNL     1      48.553   6.615  19.226  0.00  0.00    +0.000 A 
BRANCH  10  15
ATOM     15  O   UNL     1      49.263   3.973  16.798  0.00  0.00    +0.000 OA
ATOM     16  H   UNL     1      49.102   4.561  16.033  0.00  0.00    +0.000 HD
ENDBRANCH  10  15
ENDBRANCH   1   8
BRANCH   3  17
ATOM     17  C   UNL     1      47.936   7.420  13.365  0.00  0.00    +0.000 C 
BRANCH  17  18
ATOM     18  C   UNL     1      46.959   6.417  12.823  0.00  0.00    +0.000 A 
ATOM     19  C   UNL     1      46.537   6.505  11.493  0.00  0.00    +0.000 A 
ATOM     20  C   UNL     1      45.629   5.580  10.977  0.00  0.00    +0.000 A 
ATOM     21  C   UNL     1      45.110   4.551  11.777  0.00  0.00    +0.000 A 
ATOM     22  C   UNL     1      45.523   4.480  13.114  0.00  0.00    +0.000 A 
ATOM     23  C   UNL     1      46.433   5.405  13.634  0.00  0.00    +0.000 A 
BRANCH  21  24
ATOM     24  C   UNL     1      44.133   3.512  11.264  0.00  0.00    +0.000 C 
BRANCH  24  25
ATOM     25  C   UNL     1      44.190   3.277   9.757  0.00  0.00    +0.000 C 
BRANCH  25  26
ATOM     26  O   UNL     1      45.010   2.148   9.456  0.00  0.00    +0.000 OA
BRANCH  26  27
ATOM     27  C   UNL     1      45.776   2.302   8.327  0.00  0.00    +0.000 A 
ATOM     28  C   UNL     1      45.844   3.470   7.559  0.00  0.00    +0.000 A 
ATOM     29  C   UNL     1      46.663   3.526   6.432  0.00  0.00    +0.000 A 
ATOM     30  C   UNL     1      47.425   2.419   6.070  0.00  0.00    +0.000 A 
ATOM     31  C   UNL     1      47.371   1.258   6.837  0.00  0.00    +0.000 A 
ATOM     32  C   UNL     1      46.554   1.202   7.968  0.00  0.00    +0.000 A 
ENDBRANCH  26  27
ENDBRANCH  25  26
ENDBRANCH  24  25
ENDBRANCH  21  24
ENDBRANCH  17  18
ENDBRANCH   3  17
TORSDOF 8
ENDMDL
MODEL 3
REMARK VINA RESULT:    -7.832      2.325      2.972
REMARK INTER + INTRA:         -12.479
REMARK INTER:                 -11.323
REMARK INTRA:                  -1.157
REMARK UNBOUND:                -1.214
REMARK  Name = 
REMARK  9 active torsions:
REMARK  status: ('A' for Active; 'I' for Inactive)
REMARK    1  A    between atoms: C_1  and  N_2
REMARK    2  A    between atoms: C_4  and  C_5
REMARK    3  A    between atoms: N_7  and  C_8
REMARK    4  A    between atoms: C_8  and  C_9
REMARK    5  A    between atoms: C_12  and  C_13
REMARK    6  A    between atoms: C_13  and  C_14
REMARK    7  A    between atoms: C_14  and  O_15
REMARK    8  A    between atoms: O_15  and  C_16
REMARK    9  A    between atoms: C_25  and  O_26
REMARK                            x       y       z     vdW  Elec       q    Type
REMARK                         _______ _______ _______ _____ _____    ______ ____
ROOT
ATOM      1  C   UNL     1      49.081   6.598  16.193  0.00  0.00    +0.000 C 
ATOM      2  O   UNL     1      50.241   6.323  15.896  0.00  0.00    +0.000 OA
ATOM      3  N   UNL     1      48.095   6.767  15.255  0.00  0.00    +0.000 N 
ATOM      4  H   UNL     1      47.153   6.995  15.533  0.00  0.00    +0.000 HD
ENDROOT
BRANCH   1   8
ATOM      5  C   UNL     1      48.129   5.747  21.034  0.00  0.00    +0.000 C 
ATOM      6  N   UNL     1      48.249   6.399  19.750  0.00  0.00    +0.000 N 
ATOM      7  C   UNL     1      48.714   5.814  18.599  0.00  0.00    +0.000 A 
ATOM      8  C   UNL     1      48.680   6.762  17.584  0.00  0.00    +0.000 A 
ATOM      9  C   UNL     1      48.162   7.969  18.168  0.00  0.00    +0.000 A 
ATOM     10  C   UNL     1      47.865   9.270  17.750  0.00  0.00    +0.000 A 
ATOM     11  N   UNL     1      47.374  10.170  18.620  0.00  0.00    +0.000 NA
ATOM     12  C   UNL     1      47.183   9.772  19.887  0.00  0.00    +0.000 A 
ATOM     13  N   UNL     1      47.421   8.560  20.419  0.00  0.00    +0.000 NA
ATOM     14  C   UNL     1      47.910   7.700  19.509  0.00  0.00    +0.000 A 
BRANCH  10  15
ATOM     15  O   UNL     1      48.042   9.732  16.469  0.00  0.00    +0.000 OA
ATOM     16  H   UNL     1      48.152   8.955  15.885  0.00  0.00    +0.000 HD
ENDBRANCH  10  15
ENDBRANCH   1   8
BRANCH   3  17
ATOM     17  C   UNL     1      48.383   6.624  13.851  0.00  0.00    +0.000 C 
BRANCH  17  18
ATOM     18  C   UNL     1      47.239   5.978  13.124  0.00  0.00    +0.000 A 
ATOM     19  C   UNL     1      46.784   6.522  11.919  0.00  0.00    +0.000 A 
ATOM     20  C   UNL     1      45.721   5.933  11.234  0.00  0.00    +0.000 A 
ATOM     21  C   UNL     1      45.077   4.793  11.739  0.00  0.00    +0.000 A 
ATOM     22  C   UNL     1      45.526   4.264  12.957  0.00  0.00    +0.000 A 
ATOM     23  C   UNL     1      46.590   4.853  13.645  0.00  0.00    +0.000 A 
BRANCH  21  24
ATOM     24  C   UNL     1      43.928   4.105  11.030  0.00  0.00    +0.000 C 
BRANCH  24  25
ATOM     25  C   UNL     1      44.221   3.707   9.585  0.00  0.00    +0.000 C 
BRANCH  25  26
ATOM     26  O   UNL     1      44.973   2.495   9.542  0.00  0.00    +0.000 OA
BRANCH  26  27
ATOM     27  C   UNL     1      45.761   2.369   8.425  0.00  0.00    +0.000 A 
ATOM     28  C   UNL     1      46.469   1.215   8.069  0.00  0.00    +0.000 A 
ATOM     29  C   UNL     1      47.234   1.188   6.905  0.00  0.00    +0.000 A 
ATOM     30  C   UNL     1      47.291   2.310   6.083  0.00  0.00    +0.000 A 
ATOM     31  C   UNL     1      46.579   3.458   6.424  0.00  0.00    +0.000 A 
ATOM     32  C   UNL     1      45.809   3.484   7.589  0.00  0.00    +0.000 A 
ENDBRANCH  26  27
ENDBRANCH  25  26
ENDBRANCH  24  25
ENDBRANCH  21  24
ENDBRANCH  17  18
ENDBRANCH   3  17
TORSDOF 8
ENDMDL
MODEL 4
REMARK VINA RESULT:    -7.359      2.553      3.081
REMARK INTER + INTRA:         -11.799
REMARK INTER:                 -10.774
REMARK INTRA:                  -1.025
REMARK UNBOUND:                -1.214
REMARK  Name = 
REMARK  9 active torsions:
REMARK  status: ('A' for Active; 'I' for Inactive)
REMARK    1  A    between atoms: C_1  and  N_2
REMARK    2  A    between atoms: C_4  and  C_5
REMARK    3  A    between atoms: N_7  and  C_8
REMARK    4  A    between atoms: C_8  and  C_9
REMARK    5  A    between atoms: C_12  and  C_13
REMARK    6  A    between atoms: C_13  and  C_14
REMARK    7  A    between atoms: C_14  and  O_15
REMARK    8  A    between atoms: O_15  and  C_16
REMARK    9  A    between atoms: C_25  and  O_26
REMARK                            x       y       z     vdW  Elec       q    Type
REMARK                         _______ _______ _______ _____ _____    ______ ____
ROOT
ATOM      1  C   UNL     1      50.058   6.017  17.236  0.00  0.00    +0.000 C 
ATOM      2  O   UNL     1      49.371   6.576  18.087  0.00  0.00    +0.000 OA
ATOM      3  N   UNL     1      49.842   6.169  15.890  0.00  0.00    +0.000 N 
ATOM      4  H   UNL     1      50.424   5.692  15.218  0.00  0.00    +0.000 HD
ENDROOT
BRANCH   1   8
ATOM      5  C   UNL     1      54.471   4.318  18.884  0.00  0.00    +0.000 C 
ATOM      6  N   UNL     1      53.129   4.368  18.349  0.00  0.00    +0.000 N 
ATOM      7  C   UNL     1      52.399   5.510  18.133  0.00  0.00    +0.000 A 
ATOM      8  C   UNL     1      51.162   5.144  17.615  0.00  0.00    +0.000 A 
ATOM      9  C   UNL     1      51.167   3.711  17.517  0.00  0.00    +0.000 A 
ATOM     10  C   UNL     1      50.292   2.705  17.096  0.00  0.00    +0.000 A 
ATOM     11  N   UNL     1      50.658   1.413  17.156  0.00  0.00    +0.000 NA
ATOM     12  C   UNL     1      51.882   1.134  17.630  0.00  0.00    +0.000 A 
ATOM     13  N   UNL     1      52.819   1.996  18.064  0.00  0.00    +0.000 NA
ATOM     14  C   UNL     1      52.401   3.272  17.982  0.00  0.00    +0.000 A 
BRANCH  10  15
ATOM     15  O   UNL     1      49.030   2.931  16.603  0.00  0.00    +0.000 OA
ATOM     16  H   UNL     1      48.711   3.777  16.978  0.00  0.00    +0.000 HD
ENDBRANCH  10  15
ENDBRANCH   1   8
BRANCH   3  17
ATOM     17  C   UNL     1      48.779   7.012  15.407  0.00  0.00    +0.000 C 
BRANCH  17  18
ATOM     18  C   UNL     1      47.864   6.258  14.485  0.00  0.00    +0.000 A 
ATOM     19  C   UNL     1      47.562   6.781  13.224  0.00  0.00    +0.000 A 
ATOM     20  C   UNL     1      46.714   6.092  12.357  0.00  0.00    +0.000 A 
ATOM     21  C   UNL     1      46.137   4.869  12.730  0.00  0.00    +0.000 A 
ATOM     22  C   UNL     1      46.429   4.359  14.003  0.00  0.00    +0.000 A 
ATOM     23  C   UNL     1      47.278   5.048  14.873  0.00  0.00    +0.000 A 
BRANCH  21  24
ATOM     24  C   UNL     1      45.220   4.072  11.823  0.00  0.00    +0.000 C 
BRANCH  24  25
ATOM     25  C   UNL     1      44.558   4.887  10.716  0.00  0.00    +0.000 C 
BRANCH  25  26
ATOM     26  O   UNL     1      44.013   4.026   9.716  0.00  0.00    +0.000 OA
BRANCH  26  27
ATOM     27  C   UNL     1      44.960   3.382   8.960  0.00  0.00    +0.000 A 
ATOM     28  C   UNL     1      45.196   2.003   8.976  0.00  0.00    +0.000 A 
ATOM     29  C   UNL     1      46.179   1.445   8.160  0.00  0.00    +0.000 A 
ATOM     30  C   UNL     1      46.927   2.261   7.316  0.00  0.00    +0.000 A 
ATOM     31  C   UNL     1      46.688   3.633   7.285  0.00  0.00    +0.000 A 
ATOM     32  C   UNL     1      45.702   4.192   8.100  0.00  0.00    +0.000 A 
ENDBRANCH  26  27
ENDBRANCH  25  26
ENDBRANCH  24  25
ENDBRANCH  21  24
ENDBRANCH  17  18
ENDBRANCH   3  17
TORSDOF 8
ENDMDL
MODEL 5
REMARK VINA RESULT:    -7.248      3.006      7.958
REMARK INTER + INTRA:         -11.639
REMARK INTER:                  -9.804
REMARK INTRA:                  -1.835
REMARK UNBOUND:                -1.214
REMARK  Name = 
REMARK  9 active torsions:
REMARK  status: ('A' for Active; 'I' for Inactive)
REMARK    1  A    between atoms: C_1  and  N_2
REMARK    2  A    between atoms: C_4  and  C_5
REMARK    3  A    between atoms: N_7  and  C_8
REMARK    4  A    between atoms: C_8  and  C_9
REMARK    5  A    between atoms: C_12  and  C_13
REMARK    6  A    between atoms: C_13  and  C_14
REMARK    7  A    between atoms: C_14  and  O_15
REMARK    8  A    between atoms: O_15  and  C_16
REMARK    9  A    between atoms: C_25  and  O_26
REMARK                            x       y       z     vdW  Elec       q    Type
REMARK                         _______ _______ _______ _____ _____    ______ ____
ROOT
ATOM      1  C   UNL     1      46.109   7.055  11.436  0.00  0.00    +0.000 C 
ATOM      2  O   UNL     1      45.342   7.873  11.937  0.00  0.00    +0.000 OA
ATOM      3  N   UNL     1      47.471   7.216  11.438  0.00  0.00    +0.000 N 
ATOM      4  H   UNL     1      48.073   6.525  11.015  0.00  0.00    +0.000 HD
ENDROOT
BRANCH   1   8
ATOM      5  C   UNL     1      45.112   3.465   8.091  0.00  0.00    +0.000 C 
ATOM      6  N   UNL     1      45.152   4.231   9.315  0.00  0.00    +0.000 N 
ATOM      7  C   UNL     1      45.798   5.430   9.486  0.00  0.00    +0.000 A 
ATOM      8  C   UNL     1      45.606   5.845  10.798  0.00  0.00    +0.000 A 
ATOM      9  C   UNL     1      44.800   4.838  11.432  0.00  0.00    +0.000 A 
ATOM     10  C   UNL     1      44.242   4.610  12.694  0.00  0.00    +0.000 A 
ATOM     11  N   UNL     1      43.515   3.504  12.929  0.00  0.00    +0.000 NA
ATOM     12  C   UNL     1      43.350   2.641  11.915  0.00  0.00    +0.000 A 
ATOM     13  N   UNL     1      43.825   2.736  10.660  0.00  0.00    +0.000 NA
ATOM     14  C   UNL     1      44.543   3.859  10.480  0.00  0.00    +0.000 A 
BRANCH  10  15
ATOM     15  O   UNL     1      44.379   5.457  13.767  0.00  0.00    +0.000 OA
ATOM     16  H   UNL     1      44.943   6.205  13.485  0.00  0.00    +0.000 HD
ENDBRANCH  10  15
ENDBRANCH   1   8
BRANCH   3  17
ATOM     17  C   UNL     1      48.073   8.375  12.045  0.00  0.00    +0.000 C 
BRANCH  17  18
ATOM     18  C   UNL     1      48.353   8.142  13.502  0.00  0.00    +0.000 A 
ATOM     19  C   UNL     1      48.795   6.888  13.934  0.00  0.00    +0.000 A 
ATOM     20  C   UNL     1      49.058   6.657  15.285  0.00  0.00    +0.000 A 
ATOM     21  C   UNL     1      48.877   7.668  16.240  0.00  0.00    +0.000 A 
ATOM     22  C   UNL     1      48.415   8.917  15.803  0.00  0.00    +0.000 A 
ATOM     23  C   UNL     1      48.151   9.151  14.451  0.00  0.00    +0.000 A 
BRANCH  21  24
ATOM     24  C   UNL     1      49.160   7.476  17.716  0.00  0.00    +0.000 C 
BRANCH  24  25
ATOM     25  C   UNL     1      47.982   6.937  18.524  0.00  0.00    +0.000 C 
BRANCH  25  26
ATOM     26  O   UNL     1      48.339   5.721  19.181  0.00  0.00    +0.000 OA
BRANCH  26  27
ATOM     27  C   UNL     1      48.424   4.639  18.341  0.00  0.00    +0.000 A 
ATOM     28  C   UNL     1      47.403   4.204  17.489  0.00  0.00    +0.000 A 
ATOM     29  C   UNL     1      47.595   3.095  16.666  0.00  0.00    +0.000 A 
ATOM     30  C   UNL     1      48.812   2.420  16.682  0.00  0.00    +0.000 A 
ATOM     31  C   UNL     1      49.838   2.855  17.518  0.00  0.00    +0.000 A 
ATOM     32  C   UNL     1      49.646   3.968  18.341  0.00  0.00    +0.000 A 
ENDBRANCH  26  27
ENDBRANCH  25  26
ENDBRANCH  24  25
ENDBRANCH  21  24
ENDBRANCH  17  18
ENDBRANCH   3  17
TORSDOF 8
ENDMDL
MODEL 6
REMARK VINA RESULT:    -7.247      1.315      2.673
REMARK INTER + INTRA:         -11.638
REMARK INTER:                 -10.410
REMARK INTRA:                  -1.228
REMARK UNBOUND:                -1.214
REMARK  Name = 
REMARK  9 active torsions:
REMARK  status: ('A' for Active; 'I' for Inactive)
REMARK    1  A    between atoms: C_1  and  N_2
REMARK    2  A    between atoms: C_4  and  C_5
REMARK    3  A    between atoms: N_7  and  C_8
REMARK    4  A    between atoms: C_8  and  C_9
REMARK    5  A    between atoms: C_12  and  C_13
REMARK    6  A    between atoms: C_13  and  C_14
REMARK    7  A    between atoms: C_14  and  O_15
REMARK    8  A    between atoms: O_15  and  C_16
REMARK    9  A    between atoms: C_25  and  O_26
REMARK                            x       y       z     vdW  Elec       q    Type
REMARK                         _______ _______ _______ _____ _____    ______ ____
ROOT
ATOM      1  C   UNL     1      48.362   6.857  14.476  0.00  0.00    +0.000 C 
ATOM      2  O   UNL     1      48.975   6.281  13.581  0.00  0.00    +0.000 OA
ATOM      3  N   UNL     1      47.326   7.721  14.229  0.00  0.00    +0.000 N 
ATOM      4  H   UNL     1      46.846   8.180  14.988  0.00  0.00    +0.000 HD
ENDROOT
BRANCH   1   8
ATOM      5  C   UNL     1      49.155   4.767  18.956  0.00  0.00    +0.000 C 
ATOM      6  N   UNL     1      49.069   5.734  17.886  0.00  0.00    +0.000 N 
ATOM      7  C   UNL     1      48.646   5.471  16.606  0.00  0.00    +0.000 A 
ATOM      8  C   UNL     1      48.708   6.652  15.877  0.00  0.00    +0.000 A 
ATOM      9  C   UNL     1      49.188   7.665  16.776  0.00  0.00    +0.000 A 
ATOM     10  C   UNL     1      49.479   9.032  16.727  0.00  0.00    +0.000 A 
ATOM     11  N   UNL     1      49.933   9.673  17.818  0.00  0.00    +0.000 NA
ATOM     12  C   UNL     1      50.091   8.955  18.941  0.00  0.00    +0.000 A 
ATOM     13  N   UNL     1      49.849   7.645  19.128  0.00  0.00    +0.000 NA
ATOM     14  C   UNL     1      49.399   7.054  18.007  0.00  0.00    +0.000 A 
BRANCH  10  15
ATOM     15  O   UNL     1      49.336   9.815  15.608  0.00  0.00    +0.000 OA
ATOM     16  H   UNL     1      48.796   9.316  14.962  0.00  0.00    +0.000 HD
ENDBRANCH  10  15
ENDBRANCH   1   8
BRANCH   3  17
ATOM     17  C   UNL     1      46.900   7.992  12.880  0.00  0.00    +0.000 C 
BRANCH  17  18
ATOM     18  C   UNL     1      46.072   6.864  12.335  0.00  0.00    +0.000 A 
ATOM     19  C   UNL     1      46.274   6.423  11.024  0.00  0.00    +0.000 A 
ATOM     20  C   UNL     1      45.511   5.376  10.505  0.00  0.00    +0.000 A 
ATOM     21  C   UNL     1      44.520   4.751  11.276  0.00  0.00    +0.000 A 
ATOM     22  C   UNL     1      44.310   5.211  12.583  0.00  0.00    +0.000 A 
ATOM     23  C   UNL     1      45.073   6.259  13.106  0.00  0.00    +0.000 A 
BRANCH  21  24
ATOM     24  C   UNL     1      43.673   3.602  10.767  0.00  0.00    +0.000 C 
BRANCH  24  25
ATOM     25  C   UNL     1      44.469   2.434  10.189  0.00  0.00    +0.000 C 
BRANCH  25  26
ATOM     26  O   UNL     1      44.245   2.322   8.784  0.00  0.00    +0.000 OA
BRANCH  26  27
ATOM     27  C   UNL     1      45.391   2.398   8.031  0.00  0.00    +0.000 A 
ATOM     28  C   UNL     1      45.806   3.527   7.315  0.00  0.00    +0.000 A 
ATOM     29  C   UNL     1      46.994   3.503   6.587  0.00  0.00    +0.000 A 
ATOM     30  C   UNL     1      47.781   2.355   6.577  0.00  0.00    +0.000 A 
ATOM     31  C   UNL     1      47.380   1.232   7.298  0.00  0.00    +0.000 A 
ATOM     32  C   UNL     1      46.191   1.256   8.030  0.00  0.00    +0.000 A 
ENDBRANCH  26  27
ENDBRANCH  25  26
ENDBRANCH  24  25
ENDBRANCH  21  24
ENDBRANCH  17  18
ENDBRANCH   3  17
TORSDOF 8
ENDMDL
MODEL 7
REMARK VINA RESULT:    -7.100      1.837      2.880
REMARK INTER + INTRA:         -11.426
REMARK INTER:                 -10.408
REMARK INTRA:                  -1.018
REMARK UNBOUND:                -1.214
REMARK  Name = 
REMARK  9 active torsions:
REMARK  status: ('A' for Active; 'I' for Inactive)
REMARK    1  A    between atoms: C_1  and  N_2
REMARK    2  A    between atoms: C_4  and  C_5
REMARK    3  A    between atoms: N_7  and  C_8
REMARK    4  A    between atoms: C_8  and  C_9
REMARK    5  A    between atoms: C_12  and  C_13
REMARK    6  A    between atoms: C_13  and  C_14
REMARK    7  A    between atoms: C_14  and  O_15
REMARK    8  A    between atoms: O_15  and  C_16
REMARK    9  A    between atoms: C_25  and  O_26
REMARK                            x       y       z     vdW  Elec       q    Type
REMARK                         _______ _______ _______ _____ _____    ______ ____
ROOT
ATOM      1  C   UNL     1      49.015   6.990  16.233  0.00  0.00    +0.000 C 
ATOM      2  O   UNL     1      49.558   8.042  15.904  0.00  0.00    +0.000 OA
ATOM      3  N   UNL     1      48.242   6.253  15.372  0.00  0.00    +0.000 N 
ATOM      4  H   UNL     1      47.808   5.395  15.676  0.00  0.00    +0.000 HD
ENDROOT
BRANCH   1   8
ATOM      5  C   UNL     1      48.082   5.465  20.910  0.00  0.00    +0.000 C 
ATOM      6  N   UNL     1      48.764   5.769  19.673  0.00  0.00    +0.000 N 
ATOM      7  C   UNL     1      48.186   6.322  18.558  0.00  0.00    +0.000 A 
ATOM      8  C   UNL     1      49.165   6.456  17.581  0.00  0.00    +0.000 A 
ATOM      9  C   UNL     1      50.386   5.960  18.153  0.00  0.00    +0.000 A 
ATOM     10  C   UNL     1      51.718   5.800  17.758  0.00  0.00    +0.000 A 
ATOM     11  N   UNL     1      52.621   5.273  18.603  0.00  0.00    +0.000 NA
ATOM     12  C   UNL     1      52.196   4.913  19.824  0.00  0.00    +0.000 A 
ATOM     13  N   UNL     1      50.955   5.013  20.332  0.00  0.00    +0.000 NA
ATOM     14  C   UNL     1      50.093   5.545  19.447  0.00  0.00    +0.000 A 
BRANCH  10  15
ATOM     15  O   UNL     1      52.207   6.150  16.524  0.00  0.00    +0.000 OA
ATOM     16  H   UNL     1      53.014   6.685  16.663  0.00  0.00    +0.000 HD
ENDBRANCH  10  15
ENDBRANCH   1   8
BRANCH   3  17
ATOM     17  C   UNL     1      48.032   6.689  14.016  0.00  0.00    +0.000 C 
BRANCH  17  18
ATOM     18  C   UNL     1      47.048   5.804  13.307  0.00  0.00    +0.000 A 
ATOM     19  C   UNL     1      46.735   4.548  13.836  0.00  0.00    +0.000 A 
ATOM     20  C   UNL     1      45.822   3.715  13.187  0.00  0.00    +0.000 A 
ATOM     21  C   UNL     1      45.208   4.109  11.989  0.00  0.00    +0.000 A 
ATOM     22  C   UNL     1      45.541   5.361  11.454  0.00  0.00    +0.000 A 
ATOM     23  C   UNL     1      46.455   6.197  12.102  0.00  0.00    +0.000 A 
BRANCH  21  24
ATOM     24  C   UNL     1      44.201   3.250  11.251  0.00  0.00    +0.000 C 
BRANCH  24  25
ATOM     25  C   UNL     1      44.135   3.501   9.746  0.00  0.00    +0.000 C 
BRANCH  25  26
ATOM     26  O   UNL     1      44.414   2.302   9.025  0.00  0.00    +0.000 OA
BRANCH  26  27
ATOM     27  C   UNL     1      45.503   2.393   8.194  0.00  0.00    +0.000 A 
ATOM     28  C   UNL     1      45.911   3.557   7.533  0.00  0.00    +0.000 A 
ATOM     29  C   UNL     1      47.040   3.545   6.716  0.00  0.00    +0.000 A 
ATOM     30  C   UNL     1      47.775   2.373   6.562  0.00  0.00    +0.000 A 
ATOM     31  C   UNL     1      47.382   1.214   7.227  0.00  0.00    +0.000 A 
ATOM     32  C   UNL     1      46.252   1.226   8.048  0.00  0.00    +0.000 A 
ENDBRANCH  26  27
ENDBRANCH  25  26
ENDBRANCH  24  25
ENDBRANCH  21  24
ENDBRANCH  17  18
ENDBRANCH   3  17
TORSDOF 8
ENDMDL
MODEL 8
REMARK VINA RESULT:    -7.039      1.895      2.365
REMARK INTER + INTRA:         -11.339
REMARK INTER:                 -10.258
REMARK INTRA:                  -1.081
REMARK UNBOUND:                -1.214
REMARK  Name = 
REMARK  9 active torsions:
REMARK  status: ('A' for Active; 'I' for Inactive)
REMARK    1  A    between atoms: C_1  and  N_2
REMARK    2  A    between atoms: C_4  and  C_5
REMARK    3  A    between atoms: N_7  and  C_8
REMARK    4  A    between atoms: C_8  and  C_9
REMARK    5  A    between atoms: C_12  and  C_13
REMARK    6  A    between atoms: C_13  and  C_14
REMARK    7  A    between atoms: C_14  and  O_15
REMARK    8  A    between atoms: O_15  and  C_16
REMARK    9  A    between atoms: C_25  and  O_26
REMARK                            x       y       z     vdW  Elec       q    Type
REMARK                         _______ _______ _______ _____ _____    ______ ____
ROOT
ATOM      1  C   UNL     1      48.900   7.246  15.890  0.00  0.00    +0.000 C 
ATOM      2  O   UNL     1      48.501   8.386  16.112  0.00  0.00    +0.000 OA
ATOM      3  N   UNL     1      48.853   6.672  14.645  0.00  0.00    +0.000 N 
ATOM      4  H   UNL     1      49.187   5.732  14.498  0.00  0.00    +0.000 HD
ENDROOT
BRANCH   1   8
ATOM      5  C   UNL     1      51.781   4.081  18.489  0.00  0.00    +0.000 C 
ATOM      6  N   UNL     1      50.734   5.011  18.133  0.00  0.00    +0.000 N 
ATOM      7  C   UNL     1      50.568   5.591  16.900  0.00  0.00    +0.000 A 
ATOM      8  C   UNL     1      49.456   6.423  16.956  0.00  0.00    +0.000 A 
ATOM      9  C   UNL     1      48.937   6.323  18.293  0.00  0.00    +0.000 A 
ATOM     10  C   UNL     1      47.876   6.860  19.028  0.00  0.00    +0.000 A 
ATOM     11  N   UNL     1      47.698   6.521  20.317  0.00  0.00    +0.000 NA
ATOM     12  C   UNL     1      48.571   5.658  20.859  0.00  0.00    +0.000 A 
ATOM     13  N   UNL     1      49.627   5.068  20.272  0.00  0.00    +0.000 NA
ATOM     14  C   UNL     1      49.758   5.441  18.987  0.00  0.00    +0.000 A 
BRANCH  10  15
ATOM     15  O   UNL     1      46.955   7.746  18.525  0.00  0.00    +0.000 OA
ATOM     16  H   UNL     1      46.684   7.425  17.642  0.00  0.00    +0.000 HD
ENDBRANCH  10  15
ENDBRANCH   1   8
BRANCH   3  17
ATOM     17  C   UNL     1      48.326   7.400  13.519  0.00  0.00    +0.000 C 
BRANCH  17  18
ATOM     18  C   UNL     1      47.101   6.731  12.966  0.00  0.00    +0.000 A 
ATOM     19  C   UNL     1      46.258   7.431  12.098  0.00  0.00    +0.000 A 
ATOM     20  C   UNL     1      45.116   6.822  11.576  0.00  0.00    +0.000 A 
ATOM     21  C   UNL     1      44.780   5.503  11.917  0.00  0.00    +0.000 A 
ATOM     22  C   UNL     1      45.619   4.814  12.803  0.00  0.00    +0.000 A 
ATOM     23  C   UNL     1      46.763   5.421  13.327  0.00  0.00    +0.000 A 
BRANCH  21  24
ATOM     24  C   UNL     1      43.560   4.789  11.370  0.00  0.00    +0.000 C 
BRANCH  24  25
ATOM     25  C   UNL     1      43.816   3.974  10.105  0.00  0.00    +0.000 C 
BRANCH  25  26
ATOM     26  O   UNL     1      44.856   4.567   9.327  0.00  0.00    +0.000 OA
BRANCH  26  27
ATOM     27  C   UNL     1      45.556   3.671   8.560  0.00  0.00    +0.000 A 
ATOM     28  C   UNL     1      46.402   4.014   7.499  0.00  0.00    +0.000 A 
ATOM     29  C   UNL     1      47.078   3.024   6.787  0.00  0.00    +0.000 A 
ATOM     30  C   UNL     1      46.920   1.686   7.135  0.00  0.00    +0.000 A 
ATOM     31  C   UNL     1      46.089   1.338   8.199  0.00  0.00    +0.000 A 
ATOM     32  C   UNL     1      45.415   2.330   8.914  0.00  0.00    +0.000 A 
ENDBRANCH  26  27
ENDBRANCH  25  26
ENDBRANCH  24  25
ENDBRANCH  21  24
ENDBRANCH  17  18
ENDBRANCH   3  17
TORSDOF 8
ENDMDL
MODEL 9
REMARK VINA RESULT:    -6.981      3.239      9.348
REMARK INTER + INTRA:         -11.255
REMARK INTER:                  -9.570
REMARK INTRA:                  -1.684
REMARK UNBOUND:                -1.214
REMARK  Name = 
REMARK  9 active torsions:
REMARK  status: ('A' for Active; 'I' for Inactive)
REMARK    1  A    between atoms: C_1  and  N_2
REMARK    2  A    between atoms: C_4  and  C_5
REMARK    3  A    between atoms: N_7  and  C_8
REMARK    4  A    between atoms: C_8  and  C_9
REMARK    5  A    between atoms: C_12  and  C_13
REMARK    6  A    between atoms: C_13  and  C_14
REMARK    7  A    between atoms: C_14  and  O_15
REMARK    8  A    between atoms: O_15  and  C_16
REMARK    9  A    between atoms: C_25  and  O_26
REMARK                            x       y       z     vdW  Elec       q    Type
REMARK                         _______ _______ _______ _____ _____    ______ ____
ROOT
ATOM      1  C   UNL     1      46.902   4.235  14.369  0.00  0.00    +0.000 C 
ATOM      2  O   UNL     1      47.319   3.168  13.928  0.00  0.00    +0.000 OA
ATOM      3  N   UNL     1      47.062   4.612  15.678  0.00  0.00    +0.000 N 
ATOM      4  H   UNL     1      46.705   5.495  16.008  0.00  0.00    +0.000 HD
ENDROOT
BRANCH   1   8
ATOM      5  C   UNL     1      45.456   8.422  12.034  0.00  0.00    +0.000 C 
ATOM      6  N   UNL     1      45.541   7.043  12.457  0.00  0.00    +0.000 N 
ATOM      7  C   UNL     1      46.430   6.545  13.377  0.00  0.00    +0.000 A 
ATOM      8  C   UNL     1      46.200   5.181  13.510  0.00  0.00    +0.000 A 
ATOM      9  C   UNL     1      45.115   4.860  12.624  0.00  0.00    +0.000 A 
ATOM     10  C   UNL     1      44.384   3.725  12.259  0.00  0.00    +0.000 A 
ATOM     11  N   UNL     1      43.396   3.812  11.353  0.00  0.00    +0.000 NA
ATOM     12  C   UNL     1      43.143   5.018  10.821  0.00  0.00    +0.000 A 
ATOM     13  N   UNL     1      43.760   6.184  11.081  0.00  0.00    +0.000 NA
ATOM     14  C   UNL     1      44.739   6.040  11.992  0.00  0.00    +0.000 A 
BRANCH  10  15
ATOM     15  O   UNL     1      44.600   2.468  12.769  0.00  0.00    +0.000 OA
ATOM     16  H   UNL     1      45.527   2.427  13.078  0.00  0.00    +0.000 HD
ENDBRANCH  10  15
ENDBRANCH   1   8
BRANCH   3  17
ATOM     17  C   UNL     1      47.745   3.752  16.611  0.00  0.00    +0.000 C 
BRANCH  17  18
ATOM     18  C   UNL     1      47.842   4.391  17.967  0.00  0.00    +0.000 A 
ATOM     19  C   UNL     1      48.818   3.962  18.870  0.00  0.00    +0.000 A 
ATOM     20  C   UNL     1      48.919   4.546  20.133  0.00  0.00    +0.000 A 
ATOM     21  C   UNL     1      48.042   5.565  20.531  0.00  0.00    +0.000 A 
ATOM     22  C   UNL     1      47.053   5.978  19.627  0.00  0.00    +0.000 A 
ATOM     23  C   UNL     1      46.949   5.394  18.362  0.00  0.00    +0.000 A 
BRANCH  21  24
ATOM     24  C   UNL     1      48.115   6.243  21.884  0.00  0.00    +0.000 C 
BRANCH  24  25
ATOM     25  C   UNL     1      47.780   7.732  21.867  0.00  0.00    +0.000 C 
BRANCH  25  26
ATOM     26  O   UNL     1      48.906   8.495  21.437  0.00  0.00    +0.000 OA
BRANCH  26  27
ATOM     27  C   UNL     1      48.891   8.804  20.099  0.00  0.00    +0.000 A 
ATOM     28  C   UNL     1      49.881   8.438  19.181  0.00  0.00    +0.000 A 
ATOM     29  C   UNL     1      49.765   8.793  17.838  0.00  0.00    +0.000 A 
ATOM     30  C   UNL     1      48.654   9.510  17.402  0.00  0.00    +0.000 A 
ATOM     31  C   UNL     1      47.658   9.867  18.308  0.00  0.00    +0.000 A 
ATOM     32  C   UNL     1      47.772   9.507  19.653  0.00  0.00    +0.000 A 
ENDBRANCH  26  27
ENDBRANCH  25  26
ENDBRANCH  24  25
ENDBRANCH  21  24
ENDBRANCH  17  18
ENDBRANCH   3  17
TORSDOF 8
ENDMDL
