MODEL 1
REMARK VINA RESULT:    -8.774      0.000      0.000
REMARK INTER + INTRA:         -11.824
REMARK INTER:                 -11.339
REMARK INTRA:                  -0.485
REMARK UNBOUND:                -0.485
REMARK  Name = 
REMARK  5 active torsions:
REMARK  status: ('A' for Active; 'I' for Inactive)
REMARK    1  A    between atoms: C_2  and  C_18
REMARK    2  A    between atoms: N_3  and  C_4
REMARK    3  A    between atoms: C_4  and  C_5
REMARK    4  A    between atoms: C_8  and  C_9
REMARK    5  A    between atoms: C_9  and  C_10
REMARK                            x       y       z     vdW  Elec       q    Type
REMARK                         _______ _______ _______ _____ _____    ______ ____
ROOT
ATOM      1  O   UNL     1      48.664   6.738  12.738  0.00  0.00    +0.000 OA
ATOM      2  C   UNL     1      47.950   6.645  13.733  0.00  0.00    +0.000 C 
ATOM      3  N   UNL     1      46.595   6.847  13.687  0.00  0.00    +0.000 N 
ATOM      4  H   UNL     1      46.072   6.924  14.553  0.00  0.00    +0.000 HD
ENDROOT
BRANCH   2   5
ATOM      5  C   UNL     1      48.505   6.253  15.034  0.00  0.00    +0.000 A 
ATOM      6  C   UNL     1      49.528   7.003  15.600  0.00  0.00    +0.000 A 
ATOM      7  S   UNL     1      50.044   6.420  17.117  0.00  0.00    +0.000 S 
ATOM      8  C   UNL     1      48.892   5.167  17.088  0.00  0.00    +0.000 A 
ATOM      9  N   UNL     1      48.767   4.307  18.138  0.00  0.00    +0.000 NA
ATOM     10  C   UNL     1      47.827   3.435  18.000  0.00  0.00    +0.000 A 
ATOM     11  N   UNL     1      47.012   3.330  16.903  0.00  0.00    +0.000 N 
ATOM     12  C   UNL     1      47.158   4.118  15.787  0.00  0.00    +0.000 A 
ATOM     13  O   UNL     1      46.516   3.896  14.766  0.00  0.00    +0.000 OA
ATOM     14  C   UNL     1      48.155   5.165  15.918  0.00  0.00    +0.000 A 
ATOM     15  H   UNL     1      46.321   2.596  16.840  0.00  0.00    +0.000 HD
ENDBRANCH   2   5
BRANCH   3  16
ATOM     16  C   UNL     1      45.910   7.247  12.486  0.00  0.00    +0.000 C 
BRANCH  16  17
ATOM     17  C   UNL     1      45.533   6.065  11.634  0.00  0.00    +0.000 A 
ATOM     18  C   UNL     1      45.786   6.082  10.256  0.00  0.00    +0.000 A 
ATOM     19  C   UNL     1      45.499   4.970   9.463  0.00  0.00    +0.000 A 
ATOM     20  C   UNL     1      44.939   3.817  10.030  0.00  0.00    +0.000 A 
ATOM     21  C   UNL     1      44.647   3.815  11.402  0.00  0.00    +0.000 A 
ATOM     22  C   UNL     1      44.932   4.931  12.194  0.00  0.00    +0.000 A 
BRANCH  20  23
ATOM     23  C   UNL     1      44.706   2.584   9.187  0.00  0.00    +0.000 C 
BRANCH  23  24
ATOM     24  C   UNL     1      45.739   2.405   8.105  0.00  0.00    +0.000 A 
ATOM     25  C   UNL     1      45.906   3.350   7.089  0.00  0.00    +0.000 A 
ATOM     26  C   UNL     1      46.824   3.114   6.069  0.00  0.00    +0.000 A 
ATOM     27  C   UNL     1      47.552   1.938   6.100  0.00  0.00    +0.000 A 
ATOM     28  N   UNL     1      47.434   1.009   7.072  0.00  0.00    +0.000 NA
ATOM     29  C   UNL     1      46.528   1.260   8.045  0.00  0.00    +0.000 A 
ENDBRANCH  23  24
ENDBRANCH  20  23
ENDBRANCH  16  17
ENDBRANCH   3  16
TORSDOF 5
ENDMDL
MODEL 2
REMARK VINA RESULT:    -8.555      0.822      1.275
REMARK INTER + INTRA:         -11.541
REMARK INTER:                 -10.670
REMARK INTRA:                  -0.871
REMARK UNBOUND:                -0.485
REMARK  Name = 
REMARK  5 active torsions:
REMARK  status: ('A' for Active; 'I' for Inactive)
REMARK    1  A    between atoms: C_2  and  C_18
REMARK    2  A    between atoms: N_3  and  C_4
REMARK    3  A    between atoms: C_4  and  C_5
REMARK    4  A    between atoms: C_8  and  C_9
REMARK    5  A    between atoms: C_9  and  C_10
REMARK                            x       y       z     vdW  Elec       q    Type
REMARK                         _______ _______ _______ _____ _____    ______ ____
ROOT
ATOM      1  O   UNL     1      49.309   6.934  13.534  0.00  0.00    +0.000 OA
ATOM      2  C   UNL     1      48.484   6.785  14.431  0.00  0.00    +0.000 C 
ATOM      3  N   UNL     1      47.158   7.090  14.269  0.00  0.00    +0.000 N 
ATOM      4  H   UNL     1      46.547   7.110  15.079  0.00  0.00    +0.000 HD
ENDROOT
BRANCH   2   5
ATOM      5  C   UNL     1      48.865   6.211  15.728  0.00  0.00    +0.000 A 
ATOM      6  C   UNL     1      49.836   6.838  16.498  0.00  0.00    +0.000 A 
ATOM      7  S   UNL     1      50.147   6.052  17.979  0.00  0.00    +0.000 S 
ATOM      8  C   UNL     1      48.967   4.868  17.660  0.00  0.00    +0.000 A 
ATOM      9  N   UNL     1      48.688   3.894  18.571  0.00  0.00    +0.000 NA
ATOM     10  C   UNL     1      47.743   3.090  18.217  0.00  0.00    +0.000 A 
ATOM     11  N   UNL     1      47.063   3.158  17.028  0.00  0.00    +0.000 N 
ATOM     12  C   UNL     1      47.369   4.067  16.045  0.00  0.00    +0.000 A 
ATOM     13  O   UNL     1      46.847   4.002  14.937  0.00  0.00    +0.000 OA
ATOM     14  C   UNL     1      48.377   5.043  16.421  0.00  0.00    +0.000 A 
ATOM     15  H   UNL     1      46.362   2.470  16.795  0.00  0.00    +0.000 HD
ENDBRANCH   2   5
BRANCH   3  16
ATOM     16  C   UNL     1      46.637   7.669  13.059  0.00  0.00    +0.000 C 
BRANCH  16  17
ATOM     17  C   UNL     1      46.099   6.623  12.121  0.00  0.00    +0.000 A 
ATOM     18  C   UNL     1      45.243   5.623  12.600  0.00  0.00    +0.000 A 
ATOM     19  C   UNL     1      44.686   4.682  11.731  0.00  0.00    +0.000 A 
ATOM     20  C   UNL     1      44.985   4.715  10.362  0.00  0.00    +0.000 A 
ATOM     21  C   UNL     1      45.874   5.690   9.889  0.00  0.00    +0.000 A 
ATOM     22  C   UNL     1      46.433   6.630  10.761  0.00  0.00    +0.000 A 
BRANCH  20  23
ATOM     23  C   UNL     1      44.316   3.750   9.409  0.00  0.00    +0.000 C 
BRANCH  23  24
ATOM     24  C   UNL     1      45.298   2.980   8.565  0.00  0.00    +0.000 A 
ATOM     25  C   UNL     1      45.928   3.560   7.461  0.00  0.00    +0.000 A 
ATOM     26  C   UNL     1      46.776   2.793   6.666  0.00  0.00    +0.000 A 
ATOM     27  C   UNL     1      46.972   1.465   7.006  0.00  0.00    +0.000 A 
ATOM     28  N   UNL     1      46.398   0.872   8.073  0.00  0.00    +0.000 NA
ATOM     29  C   UNL     1      45.571   1.639   8.821  0.00  0.00    +0.000 A 
ENDBRANCH  23  24
ENDBRANCH  20  23
ENDBRANCH  16  17
ENDBRANCH   3  16
TORSDOF 5
ENDMDL
MODEL 3
REMARK VINA RESULT:    -8.308      1.475      2.075
REMARK INTER + INTRA:         -11.222
REMARK INTER:                 -10.662
REMARK INTRA:                  -0.560
REMARK UNBOUND:                -0.485
REMARK  Name = 
REMARK  5 active torsions:
REMARK  status: ('A' for Active; 'I' for Inactive)
REMARK    1  A    between atoms: C_2  and  C_18
REMARK    2  A    between atoms: N_3  and  C_4
REMARK    3  A    between atoms: C_4  and  C_5
REMARK    4  A    between atoms: C_8  and  C_9
REMARK    5  A    between atoms: C_9  and  C_10
REMARK                            x       y       z     vdW  Elec       q    Type
REMARK                         _______ _______ _______ _____ _____    ______ ____
ROOT
ATOM      1  O   UNL     1      48.236   6.144  13.675  0.00  0.00    +0.000 OA
ATOM      2  C   UNL     1      47.383   5.645  14.403  0.00  0.00    +0.000 C 
ATOM      3  N   UNL     1      46.051   5.641  14.081  0.00  0.00    +0.000 N 
ATOM      4  H   UNL     1      45.368   5.370  14.781  0.00  0.00    +0.000 HD
ENDROOT
BRANCH   2   5
ATOM      5  C   UNL     1      47.752   4.965  15.652  0.00  0.00    +0.000 A 
ATOM      6  C   UNL     1      47.392   3.638  15.844  0.00  0.00    +0.000 A 
ATOM      7  S   UNL     1      47.912   2.998  17.337  0.00  0.00    +0.000 S 
ATOM      8  C   UNL     1      48.668   4.462  17.762  0.00  0.00    +0.000 A 
ATOM      9  N   UNL     1      49.357   4.580  18.932  0.00  0.00    +0.000 NA
ATOM     10  C   UNL     1      49.915   5.730  19.106  0.00  0.00    +0.000 A 
ATOM     11  N   UNL     1      49.833   6.780  18.228  0.00  0.00    +0.000 N 
ATOM     12  C   UNL     1      49.078   6.736  17.081  0.00  0.00    +0.000 A 
ATOM     13  O   UNL     1      48.902   7.740  16.399  0.00  0.00    +0.000 OA
ATOM     14  C   UNL     1      48.488   5.439  16.800  0.00  0.00    +0.000 A 
ATOM     15  H   UNL     1      50.259   7.669  18.445  0.00  0.00    +0.000 HD
ENDBRANCH   2   5
BRANCH   3  16
ATOM     16  C   UNL     1      45.537   6.277  12.897  0.00  0.00    +0.000 C 
BRANCH  16  17
ATOM     17  C   UNL     1      45.242   5.282  11.807  0.00  0.00    +0.000 A 
ATOM     18  C   UNL     1      45.561   5.581  10.477  0.00  0.00    +0.000 A 
ATOM     19  C   UNL     1      45.350   4.644   9.463  0.00  0.00    +0.000 A 
ATOM     20  C   UNL     1      44.803   3.388   9.759  0.00  0.00    +0.000 A 
ATOM     21  C   UNL     1      44.444   3.104  11.084  0.00  0.00    +0.000 A 
ATOM     22  C   UNL     1      44.653   4.045  12.097  0.00  0.00    +0.000 A 
BRANCH  20  23
ATOM     23  C   UNL     1      44.653   2.344   8.676  0.00  0.00    +0.000 C 
BRANCH  23  24
ATOM     24  C   UNL     1      45.827   2.299   7.733  0.00  0.00    +0.000 A 
ATOM     25  C   UNL     1      45.975   3.232   6.703  0.00  0.00    +0.000 A 
ATOM     26  C   UNL     1      47.039   3.114   5.811  0.00  0.00    +0.000 A 
ATOM     27  C   UNL     1      47.925   2.065   5.981  0.00  0.00    +0.000 A 
ATOM     28  N   UNL     1      47.827   1.154   6.972  0.00  0.00    +0.000 NA
ATOM     29  C   UNL     1      46.780   1.287   7.817  0.00  0.00    +0.000 A 
ENDBRANCH  23  24
ENDBRANCH  20  23
ENDBRANCH  16  17
ENDBRANCH   3  16
TORSDOF 5
ENDMDL
MODEL 4
REMARK VINA RESULT:    -8.149      1.941      3.505
REMARK INTER + INTRA:         -11.016
REMARK INTER:                 -10.082
REMARK INTRA:                  -0.934
REMARK UNBOUND:                -0.485
REMARK  Name = 
REMARK  5 active torsions:
REMARK  status: ('A' for Active; 'I' for Inactive)
REMARK    1  A    between atoms: C_2  and  C_18
REMARK    2  A    between atoms: N_3  and  C_4
REMARK    3  A    between atoms: C_4  and  C_5
REMARK    4  A    between atoms: C_8  and  C_9
REMARK    5  A    between atoms: C_9  and  C_10
REMARK                            x       y       z     vdW  Elec       q    Type
REMARK                         _______ _______ _______ _____ _____    ______ ____
ROOT
ATOM      1  O   UNL     1      47.420   4.393  14.249  0.00  0.00    +0.000 OA
ATOM      2  C   UNL     1      47.354   5.598  14.024  0.00  0.00    +0.000 C 
ATOM      3  N   UNL     1      46.203   6.205  13.595  0.00  0.00    +0.000 N 
ATOM      4  H   UNL     1      46.236   7.164  13.264  0.00  0.00    +0.000 HD
ENDROOT
BRANCH   2   5
ATOM      5  C   UNL     1      48.505   6.480  14.258  0.00  0.00    +0.000 A 
ATOM      6  C   UNL     1      49.073   6.546  15.523  0.00  0.00    +0.000 A 
ATOM      7  S   UNL     1      50.409   7.603  15.617  0.00  0.00    +0.000 S 
ATOM      8  C   UNL     1      50.297   7.979  13.962  0.00  0.00    +0.000 A 
ATOM      9  N   UNL     1      51.196   8.815  13.371  0.00  0.00    +0.000 NA
ATOM     10  C   UNL     1      51.018   8.978  12.104  0.00  0.00    +0.000 A 
ATOM     11  N   UNL     1      50.013   8.397  11.375  0.00  0.00    +0.000 N 
ATOM     12  C   UNL     1      49.034   7.618  11.942  0.00  0.00    +0.000 A 
ATOM     13  O   UNL     1      48.066   7.242  11.290  0.00  0.00    +0.000 OA
ATOM     14  C   UNL     1      49.228   7.344  13.355  0.00  0.00    +0.000 A 
ATOM     15  H   UNL     1      49.904   8.600  10.392  0.00  0.00    +0.000 HD
ENDBRANCH   2   5
BRANCH   3  16
ATOM     16  C   UNL     1      44.998   5.471  13.311  0.00  0.00    +0.000 C 
BRANCH  16  17
ATOM     17  C   UNL     1      44.978   4.944  11.902  0.00  0.00    +0.000 A 
ATOM     18  C   UNL     1      44.408   3.695  11.627  0.00  0.00    +0.000 A 
ATOM     19  C   UNL     1      44.327   3.220  10.316  0.00  0.00    +0.000 A 
ATOM     20  C   UNL     1      44.826   3.982   9.251  0.00  0.00    +0.000 A 
ATOM     21  C   UNL     1      45.434   5.214   9.531  0.00  0.00    +0.000 A 
ATOM     22  C   UNL     1      45.518   5.687  10.844  0.00  0.00    +0.000 A 
BRANCH  20  23
ATOM     23  C   UNL     1      44.662   3.506   7.825  0.00  0.00    +0.000 C 
BRANCH  23  24
ATOM     24  C   UNL     1      45.912   2.881   7.265  0.00  0.00    +0.000 A 
ATOM     25  C   UNL     1      46.546   3.398   6.131  0.00  0.00    +0.000 A 
ATOM     26  C   UNL     1      47.660   2.748   5.606  0.00  0.00    +0.000 A 
ATOM     27  C   UNL     1      48.110   1.601   6.235  0.00  0.00    +0.000 A 
ATOM     28  N   UNL     1      47.538   1.080   7.341  0.00  0.00    +0.000 NA
ATOM     29  C   UNL     1      46.452   1.725   7.824  0.00  0.00    +0.000 A 
ENDBRANCH  23  24
ENDBRANCH  20  23
ENDBRANCH  16  17
ENDBRANCH   3  16
TORSDOF 5
ENDMDL
MODEL 5
REMARK VINA RESULT:    -8.031      1.765      2.516
REMARK INTER + INTRA:         -10.863
REMARK INTER:                 -10.062
REMARK INTRA:                  -0.801
REMARK UNBOUND:                -0.485
REMARK  Name = 
REMARK  5 active torsions:
REMARK  status: ('A' for Active; 'I' for Inactive)
REMARK    1  A    between atoms: C_2  and  C_18
REMARK    2  A    between atoms: N_3  and  C_4
REMARK    3  A    between atoms: C_4  and  C_5
REMARK    4  A    between atoms: C_8  and  C_9
REMARK    5  A    between atoms: C_9  and  C_10
REMARK                            x       y       z     vdW  Elec       q    Type
REMARK                         _______ _______ _______ _____ _____    ______ ____
ROOT
ATOM      1  O   UNL     1      47.322   4.210  13.952  0.00  0.00    +0.000 OA
ATOM      2  C   UNL     1      47.184   5.428  13.894  0.00  0.00    +0.000 C 
ATOM      3  N   UNL     1      45.981   6.020  13.613  0.00  0.00    +0.000 N 
ATOM      4  H   UNL     1      45.947   7.014  13.412  0.00  0.00    +0.000 HD
ENDROOT
BRANCH   2   5
ATOM      5  C   UNL     1      48.303   6.335  14.181  0.00  0.00    +0.000 A 
ATOM      6  C   UNL     1      48.856   7.091  13.155  0.00  0.00    +0.000 A 
ATOM      7  S   UNL     1      50.133   8.101  13.663  0.00  0.00    +0.000 S 
ATOM      8  C   UNL     1      49.966   7.591  15.278  0.00  0.00    +0.000 A 
ATOM      9  N   UNL     1      50.747   8.119  16.262  0.00  0.00    +0.000 NA
ATOM     10  C   UNL     1      50.484   7.674  17.444  0.00  0.00    +0.000 A 
ATOM     11  N   UNL     1      49.526   6.736  17.732  0.00  0.00    +0.000 N 
ATOM     12  C   UNL     1      48.777   6.114  16.763  0.00  0.00    +0.000 A 
ATOM     13  O   UNL     1      48.041   5.172  17.038  0.00  0.00    +0.000 OA
ATOM     14  C   UNL     1      48.982   6.630  15.421  0.00  0.00    +0.000 A 
ATOM     15  H   UNL     1      49.400   6.399  18.675  0.00  0.00    +0.000 HD
ENDBRANCH   2   5
BRANCH   3  16
ATOM     16  C   UNL     1      44.798   5.263  13.301  0.00  0.00    +0.000 C 
BRANCH  16  17
ATOM     17  C   UNL     1      44.813   4.755  11.884  0.00  0.00    +0.000 A 
ATOM     18  C   UNL     1      44.219   3.526  11.572  0.00  0.00    +0.000 A 
ATOM     19  C   UNL     1      44.170   3.070  10.253  0.00  0.00    +0.000 A 
ATOM     20  C   UNL     1      44.727   3.832   9.217  0.00  0.00    +0.000 A 
ATOM     21  C   UNL     1      45.359   5.043   9.534  0.00  0.00    +0.000 A 
ATOM     22  C   UNL     1      45.410   5.496  10.856  0.00  0.00    +0.000 A 
BRANCH  20  23
ATOM     23  C   UNL     1      44.601   3.379   7.779  0.00  0.00    +0.000 C 
BRANCH  23  24
ATOM     24  C   UNL     1      45.885   2.824   7.220  0.00  0.00    +0.000 A 
ATOM     25  C   UNL     1      46.487   3.374   6.085  0.00  0.00    +0.000 A 
ATOM     26  C   UNL     1      47.637   2.789   5.560  0.00  0.00    +0.000 A 
ATOM     27  C   UNL     1      48.152   1.670   6.193  0.00  0.00    +0.000 A 
ATOM     28  N   UNL     1      47.611   1.120   7.300  0.00  0.00    +0.000 NA
ATOM     29  C   UNL     1      46.490   1.703   7.782  0.00  0.00    +0.000 A 
ENDBRANCH  23  24
ENDBRANCH  20  23
ENDBRANCH  16  17
ENDBRANCH   3  16
TORSDOF 5
ENDMDL
MODEL 6
REMARK VINA RESULT:    -7.888      2.572      4.315
REMARK INTER + INTRA:         -10.678
REMARK INTER:                 -10.015
REMARK INTRA:                  -0.663
REMARK UNBOUND:                -0.485
REMARK  Name = 
REMARK  5 active torsions:
REMARK  status: ('A' for Active; 'I' for Inactive)
REMARK    1  A    between atoms: C_2  and  C_18
REMARK    2  A    between atoms: N_3  and  C_4
REMARK    3  A    between atoms: C_4  and  C_5
REMARK    4  A    between atoms: C_8  and  C_9
REMARK    5  A    between atoms: C_9  and  C_10
REMARK                            x       y       z     vdW  Elec       q    Type
REMARK                         _______ _______ _______ _____ _____    ______ ____
ROOT
ATOM      1  O   UNL     1      48.946   6.107  12.951  0.00  0.00    +0.000 OA
ATOM      2  C   UNL     1      48.186   7.009  13.293  0.00  0.00    +0.000 C 
ATOM      3  N   UNL     1      46.943   6.765  13.816  0.00  0.00    +0.000 N 
ATOM      4  H   UNL     1      46.289   7.533  13.928  0.00  0.00    +0.000 HD
ENDROOT
BRANCH   2   5
ATOM      5  C   UNL     1      48.593   8.417  13.211  0.00  0.00    +0.000 A 
ATOM      6  C   UNL     1      49.900   8.774  13.516  0.00  0.00    +0.000 A 
ATOM      7  S   UNL     1      50.208  10.444  13.354  0.00  0.00    +0.000 S 
ATOM      8  C   UNL     1      48.615  10.742  12.835  0.00  0.00    +0.000 A 
ATOM      9  N   UNL     1      48.218  11.996  12.479  0.00  0.00    +0.000 NA
ATOM     10  C   UNL     1      46.998  12.070  12.065  0.00  0.00    +0.000 A 
ATOM     11  N   UNL     1      46.132  11.009  11.991  0.00  0.00    +0.000 N 
ATOM     12  C   UNL     1      46.461   9.747  12.420  0.00  0.00    +0.000 A 
ATOM     13  O   UNL     1      45.616   8.859  12.484  0.00  0.00    +0.000 OA
ATOM     14  C   UNL     1      47.846   9.593  12.829  0.00  0.00    +0.000 A 
ATOM     15  H   UNL     1      45.176  11.143  11.697  0.00  0.00    +0.000 HD
ENDBRANCH   2   5
BRANCH   3  16
ATOM     16  C   UNL     1      46.403   5.438  13.947  0.00  0.00    +0.000 C 
BRANCH  16  17
ATOM     17  C   UNL     1      45.854   4.923  12.644  0.00  0.00    +0.000 A 
ATOM     18  C   UNL     1      45.784   5.766  11.528  0.00  0.00    +0.000 A 
ATOM     19  C   UNL     1      45.336   5.285  10.296  0.00  0.00    +0.000 A 
ATOM     20  C   UNL     1      44.935   3.950  10.157  0.00  0.00    +0.000 A 
ATOM     21  C   UNL     1      44.964   3.116  11.285  0.00  0.00    +0.000 A 
ATOM     22  C   UNL     1      45.411   3.600  12.518  0.00  0.00    +0.000 A 
BRANCH  20  23
ATOM     23  C   UNL     1      44.529   3.408   8.805  0.00  0.00    +0.000 C 
BRANCH  23  24
ATOM     24  C   UNL     1      45.654   2.707   8.089  0.00  0.00    +0.000 A 
ATOM     25  C   UNL     1      46.398   3.345   7.092  0.00  0.00    +0.000 A 
ATOM     26  C   UNL     1      47.384   2.639   6.408  0.00  0.00    +0.000 A 
ATOM     27  C   UNL     1      47.598   1.314   6.745  0.00  0.00    +0.000 A 
ATOM     28  N   UNL     1      46.914   0.667   7.712  0.00  0.00    +0.000 NA
ATOM     29  C   UNL     1      45.956   1.375   8.354  0.00  0.00    +0.000 A 
ENDBRANCH  23  24
ENDBRANCH  20  23
ENDBRANCH  16  17
ENDBRANCH   3  16
TORSDOF 5
ENDMDL
MODEL 7
REMARK VINA RESULT:    -7.533      2.293      2.761
REMARK INTER + INTRA:         -10.220
REMARK INTER:                  -9.503
REMARK INTRA:                  -0.716
REMARK UNBOUND:                -0.485
REMARK  Name = 
REMARK  5 active torsions:
REMARK  status: ('A' for Active; 'I' for Inactive)
REMARK    1  A    between atoms: C_2  and  C_18
REMARK    2  A    between atoms: N_3  and  C_4
REMARK    3  A    between atoms: C_4  and  C_5
REMARK    4  A    between atoms: C_8  and  C_9
REMARK    5  A    between atoms: C_9  and  C_10
REMARK                            x       y       z     vdW  Elec       q    Type
REMARK                         _______ _______ _______ _____ _____    ______ ____
ROOT
ATOM      1  O   UNL     1      49.376   7.833  15.891  0.00  0.00    +0.000 OA
ATOM      2  C   UNL     1      48.689   6.820  15.989  0.00  0.00    +0.000 C 
ATOM      3  N   UNL     1      47.893   6.370  14.968  0.00  0.00    +0.000 N 
ATOM      4  H   UNL     1      47.221   5.630  15.147  0.00  0.00    +0.000 HD
ENDROOT
BRANCH   2   5
ATOM      5  C   UNL     1      48.724   5.990  17.200  0.00  0.00    +0.000 A 
ATOM      6  C   UNL     1      49.241   4.703  17.137  0.00  0.00    +0.000 A 
ATOM      7  S   UNL     1      49.223   3.885  18.633  0.00  0.00    +0.000 S 
ATOM      8  C   UNL     1      48.558   5.237  19.425  0.00  0.00    +0.000 A 
ATOM      9  N   UNL     1      48.328   5.218  20.768  0.00  0.00    +0.000 NA
ATOM     10  C   UNL     1      47.862   6.324  21.242  0.00  0.00    +0.000 A 
ATOM     11  N   UNL     1      47.587   7.441  20.496  0.00  0.00    +0.000 N 
ATOM     12  C   UNL     1      47.721   7.476  19.129  0.00  0.00    +0.000 A 
ATOM     13  O   UNL     1      47.321   8.436  18.478  0.00  0.00    +0.000 OA
ATOM     14  C   UNL     1      48.310   6.281  18.553  0.00  0.00    +0.000 A 
ATOM     15  H   UNL     1      47.183   8.261  20.924  0.00  0.00    +0.000 HD
ENDBRANCH   2   5
BRANCH   3  16
ATOM     16  C   UNL     1      47.747   7.081  13.726  0.00  0.00    +0.000 C 
BRANCH  16  17
ATOM     17  C   UNL     1      46.840   6.358  12.767  0.00  0.00    +0.000 A 
ATOM     18  C   UNL     1      46.699   6.817  11.451  0.00  0.00    +0.000 A 
ATOM     19  C   UNL     1      45.909   6.122  10.533  0.00  0.00    +0.000 A 
ATOM     20  C   UNL     1      45.233   4.956  10.916  0.00  0.00    +0.000 A 
ATOM     21  C   UNL     1      45.340   4.519  12.244  0.00  0.00    +0.000 A 
ATOM     22  C   UNL     1      46.129   5.218  13.163  0.00  0.00    +0.000 A 
BRANCH  20  23
ATOM     23  C   UNL     1      44.447   4.158   9.900  0.00  0.00    +0.000 C 
BRANCH  23  24
ATOM     24  C   UNL     1      45.323   3.359   8.972  0.00  0.00    +0.000 A 
ATOM     25  C   UNL     1      45.998   3.957   7.904  0.00  0.00    +0.000 A 
ATOM     26  C   UNL     1      46.743   3.170   7.029  0.00  0.00    +0.000 A 
ATOM     27  C   UNL     1      46.792   1.806   7.253  0.00  0.00    +0.000 A 
ATOM     28  N   UNL     1      46.171   1.192   8.281  0.00  0.00    +0.000 NA
ATOM     29  C   UNL     1      45.447   1.979   9.109  0.00  0.00    +0.000 A 
ENDBRANCH  23  24
ENDBRANCH  20  23
ENDBRANCH  16  17
ENDBRANCH   3  16
TORSDOF 5
ENDMDL
MODEL 8
REMARK VINA RESULT:    -7.469      2.218      3.664
REMARK INTER + INTRA:         -10.137
REMARK INTER:                  -9.265
REMARK INTRA:                  -0.871
REMARK UNBOUND:                -0.485
REMARK  Name = 
REMARK  5 active torsions:
REMARK  status: ('A' for Active; 'I' for Inactive)
REMARK    1  A    between atoms: C_2  and  C_18
REMARK    2  A    between atoms: N_3  and  C_4
REMARK    3  A    between atoms: C_4  and  C_5
REMARK    4  A    between atoms: C_8  and  C_9
REMARK    5  A    between atoms: C_9  and  C_10
REMARK                            x       y       z     vdW  Elec       q    Type
REMARK                         _______ _______ _______ _____ _____    ______ ____
ROOT
ATOM      1  O   UNL     1      48.124   5.765  16.767  0.00  0.00    +0.000 OA
ATOM      2  C   UNL     1      48.393   6.235  15.665  0.00  0.00    +0.000 C 
ATOM      3  N   UNL     1      47.695   5.903  14.534  0.00  0.00    +0.000 N 
ATOM      4  H   UNL     1      48.052   6.183  13.626  0.00  0.00    +0.000 HD
ENDROOT
BRANCH   2   5
ATOM      5  C   UNL     1      49.456   7.235  15.504  0.00  0.00    +0.000 A 
ATOM      6  C   UNL     1      50.723   6.978  16.009  0.00  0.00    +0.000 A 
ATOM      7  S   UNL     1      51.841   8.234  15.721  0.00  0.00    +0.000 S 
ATOM      8  C   UNL     1      50.679   9.148  14.879  0.00  0.00    +0.000 A 
ATOM      9  N   UNL     1      51.004  10.345  14.315  0.00  0.00    +0.000 NA
ATOM     10  C   UNL     1      50.039  10.909  13.671  0.00  0.00    +0.000 A 
ATOM     11  N   UNL     1      48.773  10.397  13.554  0.00  0.00    +0.000 N 
ATOM     12  C   UNL     1      48.376   9.239  14.178  0.00  0.00    +0.000 A 
ATOM     13  O   UNL     1      47.200   8.891  14.180  0.00  0.00    +0.000 OA
ATOM     14  C   UNL     1      49.444   8.526  14.857  0.00  0.00    +0.000 A 
ATOM     15  H   UNL     1      48.050  10.910  13.071  0.00  0.00    +0.000 HD
ENDBRANCH   2   5
BRANCH   3  16
ATOM     16  C   UNL     1      46.634   4.931  14.533  0.00  0.00    +0.000 C 
BRANCH  16  17
ATOM     17  C   UNL     1      46.045   4.742  13.161  0.00  0.00    +0.000 A 
ATOM     18  C   UNL     1      46.266   5.700  12.163  0.00  0.00    +0.000 A 
ATOM     19  C   UNL     1      45.779   5.509  10.869  0.00  0.00    +0.000 A 
ATOM     20  C   UNL     1      45.048   4.358  10.547  0.00  0.00    +0.000 A 
ATOM     21  C   UNL     1      44.791   3.418  11.556  0.00  0.00    +0.000 A 
ATOM     22  C   UNL     1      45.277   3.613  12.852  0.00  0.00    +0.000 A 
BRANCH  20  23
ATOM     23  C   UNL     1      44.593   4.111   9.126  0.00  0.00    +0.000 C 
BRANCH  23  24
ATOM     24  C   UNL     1      45.530   3.221   8.352  0.00  0.00    +0.000 A 
ATOM     25  C   UNL     1      46.282   3.706   7.279  0.00  0.00    +0.000 A 
ATOM     26  C   UNL     1      47.084   2.833   6.547  0.00  0.00    +0.000 A 
ATOM     27  C   UNL     1      47.112   1.500   6.917  0.00  0.00    +0.000 A 
ATOM     28  N   UNL     1      46.416   0.996   7.957  0.00  0.00    +0.000 NA
ATOM     29  C   UNL     1      45.638   1.864   8.644  0.00  0.00    +0.000 A 
ENDBRANCH  23  24
ENDBRANCH  20  23
ENDBRANCH  16  17
ENDBRANCH   3  16
TORSDOF 5
ENDMDL
MODEL 9
REMARK VINA RESULT:    -7.365      2.161      2.973
REMARK INTER + INTRA:         -10.003
REMARK INTER:                  -9.122
REMARK INTRA:                  -0.880
REMARK UNBOUND:                -0.485
REMARK  Name = 
REMARK  5 active torsions:
REMARK  status: ('A' for Active; 'I' for Inactive)
REMARK    1  A    between atoms: C_2  and  C_18
REMARK    2  A    between atoms: N_3  and  C_4
REMARK    3  A    between atoms: C_4  and  C_5
REMARK    4  A    between atoms: C_8  and  C_9
REMARK    5  A    between atoms: C_9  and  C_10
REMARK                            x       y       z     vdW  Elec       q    Type
REMARK                         _______ _______ _______ _____ _____    ______ ____
ROOT
ATOM      1  O   UNL     1      48.493   8.134  16.332  0.00  0.00    +0.000 OA
ATOM      2  C   UNL     1      48.537   6.942  16.040  0.00  0.00    +0.000 C 
ATOM      3  N   UNL     1      48.120   6.467  14.825  0.00  0.00    +0.000 N 
ATOM      4  H   UNL     1      48.018   5.466  14.687  0.00  0.00    +0.000 HD
ENDROOT
BRANCH   2   5
ATOM      5  C   UNL     1      49.098   5.952  16.968  0.00  0.00    +0.000 A 
ATOM      6  C   UNL     1      48.246   5.188  17.755  0.00  0.00    +0.000 A 
ATOM      7  S   UNL     1      49.059   4.077  18.762  0.00  0.00    +0.000 S 
ATOM      8  C   UNL     1      50.575   4.553  18.153  0.00  0.00    +0.000 A 
ATOM      9  N   UNL     1      51.720   3.945  18.574  0.00  0.00    +0.000 NA
ATOM     10  C   UNL     1      52.792   4.375  17.999  0.00  0.00    +0.000 A 
ATOM     11  N   UNL     1      52.828   5.369  17.055  0.00  0.00    +0.000 N 
ATOM     12  C   UNL     1      51.712   6.068  16.666  0.00  0.00    +0.000 A 
ATOM     13  O   UNL     1      51.802   7.051  15.937  0.00  0.00    +0.000 OA
ATOM     14  C   UNL     1      50.467   5.576  17.229  0.00  0.00    +0.000 A 
ATOM     15  H   UNL     1      53.707   5.688  16.675  0.00  0.00    +0.000 HD
ENDBRANCH   2   5
BRANCH   3  16
ATOM     16  C   UNL     1      47.538   7.314  13.817  0.00  0.00    +0.000 C 
BRANCH  16  17
ATOM     17  C   UNL     1      46.641   6.545  12.885  0.00  0.00    +0.000 A 
ATOM     18  C   UNL     1      46.095   7.173  11.758  0.00  0.00    +0.000 A 
ATOM     19  C   UNL     1      45.312   6.457  10.851  0.00  0.00    +0.000 A 
ATOM     20  C   UNL     1      45.048   5.097  11.058  0.00  0.00    +0.000 A 
ATOM     21  C   UNL     1      45.560   4.478  12.207  0.00  0.00    +0.000 A 
ATOM     22  C   UNL     1      46.341   5.197  13.117  0.00  0.00    +0.000 A 
BRANCH  20  23
ATOM     23  C   UNL     1      44.271   4.302  10.032  0.00  0.00    +0.000 C 
BRANCH  23  24
ATOM     24  C   UNL     1      45.155   3.488   9.123  0.00  0.00    +0.000 A 
ATOM     25  C   UNL     1      45.877   4.078   8.082  0.00  0.00    +0.000 A 
ATOM     26  C   UNL     1      46.628   3.280   7.223  0.00  0.00    +0.000 A 
ATOM     27  C   UNL     1      46.637   1.913   7.435  0.00  0.00    +0.000 A 
ATOM     28  N   UNL     1      45.969   1.306   8.439  0.00  0.00    +0.000 NA
ATOM     29  C   UNL     1      45.240   2.105   9.252  0.00  0.00    +0.000 A 
ENDBRANCH  23  24
ENDBRANCH  20  23
ENDBRANCH  16  17
ENDBRANCH   3  16
TORSDOF 5
ENDMDL
