MODEL 1
REMARK VINA RESULT:    -7.886      0.000      0.000
REMARK INTER + INTRA:         -11.054
REMARK INTER:                 -10.421
REMARK INTRA:                  -0.633
REMARK UNBOUND:                -0.633
REMARK  Name = 
REMARK  6 active torsions:
REMARK  status: ('A' for Active; 'I' for Inactive)
REMARK    1  A    between atoms: N_1  and  C_2
REMARK    2  A    between atoms: C_2  and  C_3
REMARK    3  A    between atoms: C_7  and  C_8
REMARK    4  A    between atoms: C_8  and  C_9
REMARK    5  A    between atoms: C_9  and  N_10
REMARK    6  A    between atoms: C_14  and  C_15
REMARK                            x       y       z     vdW  Elec       q    Type
REMARK                         _______ _______ _______ _____ _____    ______ ____
ROOT
ATOM      1  N   UNL     1      43.769   3.783  10.423  0.00  0.00    +0.000 N 
ATOM      2  C   UNL     1      44.718   3.429   9.441  0.00  0.00    +0.000 A 
ATOM      3  C   UNL     1      45.089   2.096   9.303  0.00  0.00    +0.000 A 
ATOM      4  C   UNL     1      46.032   1.740   8.331  0.00  0.00    +0.000 A 
ATOM      5  C   UNL     1      46.588   2.724   7.513  0.00  0.00    +0.000 A 
ATOM      6  C   UNL     1      46.173   4.025   7.730  0.00  0.00    +0.000 A 
ATOM      7  N   UNL     1      45.268   4.388   8.668  0.00  0.00    +0.000 NA
ATOM      8  H   UNL     1      42.932   3.226  10.272  0.00  0.00    +0.000 HD
ENDROOT
BRANCH   5   9
ATOM      9  C   UNL     1      47.571   2.347   6.469  0.00  0.00    +0.000 C 
ATOM     10  N   UNL     1      47.685   3.121   5.347  0.00  0.00    +0.000 N 
ATOM     11  O   UNL     1      48.277   1.353   6.597  0.00  0.00    +0.000 OA
ATOM     12  H   UNL     1      47.153   3.953   5.138  0.00  0.00    +0.000 HD
ATOM     13  H   UNL     1      48.363   2.821   4.659  0.00  0.00    +0.000 HD
ENDBRANCH   5   9
BRANCH   1  14
ATOM     14  C   UNL     1      43.485   5.225  10.433  0.00  0.00    +0.000 C 
BRANCH  14  15
ATOM     15  C   UNL     1      43.566   5.805  11.849  0.00  0.00    +0.000 C 
BRANCH  15  20
ATOM     16  C   UNL     1      46.834   5.362  13.789  0.00  0.00    +0.000 A 
ATOM     17  C   UNL     1      47.720   6.090  12.984  0.00  0.00    +0.000 A 
ATOM     18  C   UNL     1      47.262   6.756  11.849  0.00  0.00    +0.000 A 
ATOM     19  C   UNL     1      45.915   6.690  11.492  0.00  0.00    +0.000 A 
ATOM     20  C   UNL     1      45.009   5.966  12.277  0.00  0.00    +0.000 A 
ATOM     21  C   UNL     1      45.477   5.313  13.429  0.00  0.00    +0.000 A 
BRANCH  16  22
ATOM     22  C   UNL     1      47.338   4.589  14.982  0.00  0.00    +0.000 C 
BRANCH  22  23
ATOM     23  N   UNL     1      47.477   3.166  14.697  0.00  0.00    +0.000 NA
ATOM     24  H   UNL     1      47.706   3.047  13.712  0.00  0.00    +0.000 HD
ATOM     25  H   UNL     1      46.574   2.716  14.840  0.00  0.00    +0.000 HD
ENDBRANCH  22  23
ENDBRANCH  16  22
ENDBRANCH  15  20
ENDBRANCH  14  15
ENDBRANCH   1  14
TORSDOF 6
ENDMDL
MODEL 2
REMARK VINA RESULT:    -7.769      1.737      2.339
REMARK INTER + INTRA:         -10.900
REMARK INTER:                 -10.425
REMARK INTRA:                  -0.474
REMARK UNBOUND:                -0.633
REMARK  Name = 
REMARK  6 active torsions:
REMARK  status: ('A' for Active; 'I' for Inactive)
REMARK    1  A    between atoms: N_1  and  C_2
REMARK    2  A    between atoms: C_2  and  C_3
REMARK    3  A    between atoms: C_7  and  C_8
REMARK    4  A    between atoms: C_8  and  C_9
REMARK    5  A    between atoms: C_9  and  N_10
REMARK    6  A    between atoms: C_14  and  C_15
REMARK                            x       y       z     vdW  Elec       q    Type
REMARK                         _______ _______ _______ _____ _____    ______ ____
ROOT
ATOM      1  N   UNL     1      43.994   4.971  10.024  0.00  0.00    +0.000 N 
ATOM      2  C   UNL     1      44.814   4.092   9.287  0.00  0.00    +0.000 A 
ATOM      3  C   UNL     1      45.630   4.603   8.283  0.00  0.00    +0.000 A 
ATOM      4  C   UNL     1      46.445   3.735   7.547  0.00  0.00    +0.000 A 
ATOM      5  C   UNL     1      46.430   2.367   7.827  0.00  0.00    +0.000 A 
ATOM      6  C   UNL     1      45.577   1.944   8.831  0.00  0.00    +0.000 A 
ATOM      7  N   UNL     1      44.778   2.769   9.548  0.00  0.00    +0.000 NA
ATOM      8  H   UNL     1      44.583   5.697  10.422  0.00  0.00    +0.000 HD
ENDROOT
BRANCH   5   9
ATOM      9  C   UNL     1      47.306   1.447   7.064  0.00  0.00    +0.000 C 
ATOM     10  N   UNL     1      48.445   1.935   6.485  0.00  0.00    +0.000 N 
ATOM     11  O   UNL     1      47.021   0.261   6.941  0.00  0.00    +0.000 OA
ATOM     12  H   UNL     1      48.771   2.889   6.518  0.00  0.00    +0.000 HD
ATOM     13  H   UNL     1      49.008   1.272   5.968  0.00  0.00    +0.000 HD
ENDBRANCH   5   9
BRANCH   1  14
ATOM     14  C   UNL     1      43.202   4.272  11.046  0.00  0.00    +0.000 C 
BRANCH  14  15
ATOM     15  C   UNL     1      43.305   4.965  12.410  0.00  0.00    +0.000 C 
BRANCH  15  20
ATOM     16  C   UNL     1      46.537   6.900  13.075  0.00  0.00    +0.000 A 
ATOM     17  C   UNL     1      47.366   5.876  13.551  0.00  0.00    +0.000 A 
ATOM     18  C   UNL     1      46.902   4.563  13.617  0.00  0.00    +0.000 A 
ATOM     19  C   UNL     1      45.599   4.258  13.224  0.00  0.00    +0.000 A 
ATOM     20  C   UNL     1      44.749   5.264  12.747  0.00  0.00    +0.000 A 
ATOM     21  C   UNL     1      45.232   6.581  12.667  0.00  0.00    +0.000 A 
BRANCH  16  22
ATOM     22  C   UNL     1      47.015   8.331  13.061  0.00  0.00    +0.000 C 
BRANCH  22  23
ATOM     23  N   UNL     1      46.914   8.957  14.375  0.00  0.00    +0.000 NA
ATOM     24  H   UNL     1      46.850   8.228  15.083  0.00  0.00    +0.000 HD
ATOM     25  H   UNL     1      46.042   9.481  14.419  0.00  0.00    +0.000 HD
ENDBRANCH  22  23
ENDBRANCH  16  22
ENDBRANCH  15  20
ENDBRANCH  14  15
ENDBRANCH   1  14
TORSDOF 6
ENDMDL
MODEL 3
REMARK VINA RESULT:    -6.984      2.081      2.656
REMARK INTER + INTRA:          -9.862
REMARK INTER:                  -9.325
REMARK INTRA:                  -0.537
REMARK UNBOUND:                -0.633
REMARK  Name = 
REMARK  6 active torsions:
REMARK  status: ('A' for Active; 'I' for Inactive)
REMARK    1  A    between atoms: N_1  and  C_2
REMARK    2  A    between atoms: C_2  and  C_3
REMARK    3  A    between atoms: C_7  and  C_8
REMARK    4  A    between atoms: C_8  and  C_9
REMARK    5  A    between atoms: C_9  and  N_10
REMARK    6  A    between atoms: C_14  and  C_15
REMARK                            x       y       z     vdW  Elec       q    Type
REMARK                         _______ _______ _______ _____ _____    ______ ____
ROOT
ATOM      1  N   UNL     1      43.725   3.740  10.586  0.00  0.00    +0.000 N 
ATOM      2  C   UNL     1      44.643   3.423   9.564  0.00  0.00    +0.000 A 
ATOM      3  C   UNL     1      44.984   2.092   9.344  0.00  0.00    +0.000 A 
ATOM      4  C   UNL     1      45.896   1.772   8.331  0.00  0.00    +0.000 A 
ATOM      5  C   UNL     1      46.454   2.789   7.555  0.00  0.00    +0.000 A 
ATOM      6  C   UNL     1      46.072   4.084   7.853  0.00  0.00    +0.000 A 
ATOM      7  N   UNL     1      45.196   4.412   8.832  0.00  0.00    +0.000 NA
ATOM      8  H   UNL     1      42.874   3.209  10.425  0.00  0.00    +0.000 HD
ENDROOT
BRANCH   5   9
ATOM      9  C   UNL     1      47.405   2.452   6.469  0.00  0.00    +0.000 C 
ATOM     10  N   UNL     1      47.385   3.181   5.312  0.00  0.00    +0.000 N 
ATOM     11  O   UNL     1      48.201   1.528   6.592  0.00  0.00    +0.000 OA
ATOM     12  H   UNL     1      46.770   3.954   5.103  0.00  0.00    +0.000 HD
ATOM     13  H   UNL     1      48.046   2.910   4.596  0.00  0.00    +0.000 HD
ENDBRANCH   5   9
BRANCH   1  14
ATOM     14  C   UNL     1      43.473   5.185  10.683  0.00  0.00    +0.000 C 
BRANCH  14  15
ATOM     15  C   UNL     1      43.814   5.725  12.076  0.00  0.00    +0.000 C 
BRANCH  15  20
ATOM     16  C   UNL     1      46.108   8.785  11.992  0.00  0.00    +0.000 A 
ATOM     17  C   UNL     1      47.364   8.178  12.126  0.00  0.00    +0.000 A 
ATOM     18  C   UNL     1      47.476   6.791  12.200  0.00  0.00    +0.000 A 
ATOM     19  C   UNL     1      46.334   5.991  12.157  0.00  0.00    +0.000 A 
ATOM     20  C   UNL     1      45.067   6.572  12.026  0.00  0.00    +0.000 A 
ATOM     21  C   UNL     1      44.966   7.971  11.934  0.00  0.00    +0.000 A 
BRANCH  16  22
ATOM     22  C   UNL     1      45.979  10.288  11.975  0.00  0.00    +0.000 C 
BRANCH  22  23
ATOM     23  N   UNL     1      47.142  10.946  12.559  0.00  0.00    +0.000 NA
ATOM     24  H   UNL     1      47.916  10.285  12.587  0.00  0.00    +0.000 HD
ATOM     25  H   UNL     1      46.929  11.183  13.527  0.00  0.00    +0.000 HD
ENDBRANCH  22  23
ENDBRANCH  16  22
ENDBRANCH  15  20
ENDBRANCH  14  15
ENDBRANCH   1  14
TORSDOF 6
ENDMDL
MODEL 4
REMARK VINA RESULT:    -6.542      2.974      6.872
REMARK INTER + INTRA:          -9.278
REMARK INTER:                  -9.556
REMARK INTRA:                   0.277
REMARK UNBOUND:                -0.633
REMARK  Name = 
REMARK  6 active torsions:
REMARK  status: ('A' for Active; 'I' for Inactive)
REMARK    1  A    between atoms: N_1  and  C_2
REMARK    2  A    between atoms: C_2  and  C_3
REMARK    3  A    between atoms: C_7  and  C_8
REMARK    4  A    between atoms: C_8  and  C_9
REMARK    5  A    between atoms: C_9  and  N_10
REMARK    6  A    between atoms: C_14  and  C_15
REMARK                            x       y       z     vdW  Elec       q    Type
REMARK                         _______ _______ _______ _____ _____    ______ ____
ROOT
ATOM      1  N   UNL     1      44.915   3.834  11.517  0.00  0.00    +0.000 N 
ATOM      2  C   UNL     1      45.399   5.080  11.965  0.00  0.00    +0.000 A 
ATOM      3  C   UNL     1      46.426   5.115  12.902  0.00  0.00    +0.000 A 
ATOM      4  C   UNL     1      46.909   6.350  13.352  0.00  0.00    +0.000 A 
ATOM      5  C   UNL     1      46.354   7.531  12.858  0.00  0.00    +0.000 A 
ATOM      6  C   UNL     1      45.326   7.404  11.942  0.00  0.00    +0.000 A 
ATOM      7  N   UNL     1      44.843   6.218  11.500  0.00  0.00    +0.000 NA
ATOM      8  H   UNL     1      45.701   3.299  11.157  0.00  0.00    +0.000 HD
ENDROOT
BRANCH   5   9
ATOM      9  C   UNL     1      46.876   8.841  13.317  0.00  0.00    +0.000 C 
ATOM     10  N   UNL     1      47.218   9.001  14.631  0.00  0.00    +0.000 N 
ATOM     11  O   UNL     1      46.999   9.779  12.537  0.00  0.00    +0.000 OA
ATOM     12  H   UNL     1      47.152   8.301  15.355  0.00  0.00    +0.000 HD
ATOM     13  H   UNL     1      47.562   9.913  14.900  0.00  0.00    +0.000 HD
ENDBRANCH   5   9
BRANCH   1  14
ATOM     14  C   UNL     1      43.836   3.975  10.528  0.00  0.00    +0.000 C 
BRANCH  14  15
ATOM     15  C   UNL     1      44.375   4.436   9.169  0.00  0.00    +0.000 C 
BRANCH  15  20
ATOM     16  C   UNL     1      46.571   2.539   6.677  0.00  0.00    +0.000 A 
ATOM     17  C   UNL     1      46.587   1.263   7.256  0.00  0.00    +0.000 A 
ATOM     18  C   UNL     1      45.862   1.003   8.417  0.00  0.00    +0.000 A 
ATOM     19  C   UNL     1      45.123   2.018   9.026  0.00  0.00    +0.000 A 
ATOM     20  C   UNL     1      45.092   3.303   8.468  0.00  0.00    +0.000 A 
ATOM     21  C   UNL     1      45.812   3.550   7.288  0.00  0.00    +0.000 A 
BRANCH  16  22
ATOM     22  C   UNL     1      47.405   2.839   5.456  0.00  0.00    +0.000 C 
BRANCH  22  23
ATOM     23  N   UNL     1      48.523   1.914   5.313  0.00  0.00    +0.000 NA
ATOM     24  H   UNL     1      49.358   2.344   5.704  0.00  0.00    +0.000 HD
ATOM     25  H   UNL     1      48.706   1.776   4.321  0.00  0.00    +0.000 HD
ENDBRANCH  22  23
ENDBRANCH  16  22
ENDBRANCH  15  20
ENDBRANCH  14  15
ENDBRANCH   1  14
TORSDOF 6
ENDMDL
MODEL 5
REMARK VINA RESULT:    -6.325      3.454      5.881
REMARK INTER + INTRA:          -8.992
REMARK INTER:                  -8.671
REMARK INTRA:                  -0.320
REMARK UNBOUND:                -0.633
REMARK  Name = 
REMARK  6 active torsions:
REMARK  status: ('A' for Active; 'I' for Inactive)
REMARK    1  A    between atoms: N_1  and  C_2
REMARK    2  A    between atoms: C_2  and  C_3
REMARK    3  A    between atoms: C_7  and  C_8
REMARK    4  A    between atoms: C_8  and  C_9
REMARK    5  A    between atoms: C_9  and  N_10
REMARK    6  A    between atoms: C_14  and  C_15
REMARK                            x       y       z     vdW  Elec       q    Type
REMARK                         _______ _______ _______ _____ _____    ______ ____
ROOT
ATOM      1  N   UNL     1      47.010   5.091  14.833  0.00  0.00    +0.000 N 
ATOM      2  C   UNL     1      46.375   4.726  13.628  0.00  0.00    +0.000 A 
ATOM      3  C   UNL     1      46.067   5.711  12.696  0.00  0.00    +0.000 A 
ATOM      4  C   UNL     1      45.435   5.355  11.498  0.00  0.00    +0.000 A 
ATOM      5  C   UNL     1      45.120   4.018  11.253  0.00  0.00    +0.000 A 
ATOM      6  C   UNL     1      45.448   3.107  12.241  0.00  0.00    +0.000 A 
ATOM      7  N   UNL     1      46.053   3.435  13.407  0.00  0.00    +0.000 NA
ATOM      8  H   UNL     1      47.860   5.598  14.604  0.00  0.00    +0.000 HD
ENDROOT
BRANCH   5   9
ATOM      9  C   UNL     1      44.469   3.634   9.978  0.00  0.00    +0.000 C 
ATOM     10  N   UNL     1      43.926   4.607   9.185  0.00  0.00    +0.000 N 
ATOM     11  O   UNL     1      44.408   2.460   9.629  0.00  0.00    +0.000 OA
ATOM     12  H   UNL     1      43.915   5.598   9.377  0.00  0.00    +0.000 HD
ATOM     13  H   UNL     1      43.485   4.297   8.328  0.00  0.00    +0.000 HD
ENDBRANCH   5   9
BRANCH   1  14
ATOM     14  C   UNL     1      47.268   3.933  15.702  0.00  0.00    +0.000 C 
BRANCH  14  15
ATOM     15  C   UNL     1      47.567   4.366  17.142  0.00  0.00    +0.000 C 
BRANCH  15  20
ATOM     16  C   UNL     1      50.967   2.640  17.450  0.00  0.00    +0.000 A 
ATOM     17  C   UNL     1      51.761   3.698  17.913  0.00  0.00    +0.000 A 
ATOM     18  C   UNL     1      51.197   4.948  18.166  0.00  0.00    +0.000 A 
ATOM     19  C   UNL     1      49.836   5.162  17.944  0.00  0.00    +0.000 A 
ATOM     20  C   UNL     1      49.022   4.122  17.479  0.00  0.00    +0.000 A 
ATOM     21  C   UNL     1      49.596   2.861  17.244  0.00  0.00    +0.000 A 
BRANCH  16  22
ATOM     22  C   UNL     1      51.587   1.306  17.116  0.00  0.00    +0.000 C 
BRANCH  22  23
ATOM     23  N   UNL     1      51.442   0.345  18.204  0.00  0.00    +0.000 NA
ATOM     24  H   UNL     1      51.126  -0.543  17.820  0.00  0.00    +0.000 HD
ATOM     25  H   UNL     1      50.705   0.670  18.828  0.00  0.00    +0.000 HD
ENDBRANCH  22  23
ENDBRANCH  16  22
ENDBRANCH  15  20
ENDBRANCH  14  15
ENDBRANCH   1  14
TORSDOF 6
ENDMDL
MODEL 6
REMARK VINA RESULT:    -6.082      3.505      7.784
REMARK INTER + INTRA:          -8.670
REMARK INTER:                  -8.368
REMARK INTRA:                  -0.302
REMARK UNBOUND:                -0.633
REMARK  Name = 
REMARK  6 active torsions:
REMARK  status: ('A' for Active; 'I' for Inactive)
REMARK    1  A    between atoms: N_1  and  C_2
REMARK    2  A    between atoms: C_2  and  C_3
REMARK    3  A    between atoms: C_7  and  C_8
REMARK    4  A    between atoms: C_8  and  C_9
REMARK    5  A    between atoms: C_9  and  N_10
REMARK    6  A    between atoms: C_14  and  C_15
REMARK                            x       y       z     vdW  Elec       q    Type
REMARK                         _______ _______ _______ _____ _____    ______ ____
ROOT
ATOM      1  N   UNL     1      47.043   6.444  13.690  0.00  0.00    +0.000 N 
ATOM      2  C   UNL     1      47.579   5.807  14.828  0.00  0.00    +0.000 A 
ATOM      3  C   UNL     1      48.596   6.431  15.542  0.00  0.00    +0.000 A 
ATOM      4  C   UNL     1      49.133   5.802  16.672  0.00  0.00    +0.000 A 
ATOM      5  C   UNL     1      48.643   4.557  17.069  0.00  0.00    +0.000 A 
ATOM      6  C   UNL     1      47.643   4.002  16.292  0.00  0.00    +0.000 A 
ATOM      7  N   UNL     1      47.117   4.593  15.193  0.00  0.00    +0.000 NA
ATOM      8  H   UNL     1      46.727   7.370  13.963  0.00  0.00    +0.000 HD
ENDROOT
BRANCH   5   9
ATOM      9  C   UNL     1      49.195   3.897  18.276  0.00  0.00    +0.000 C 
ATOM     10  N   UNL     1      48.367   3.154  19.070  0.00  0.00    +0.000 N 
ATOM     11  O   UNL     1      50.380   4.014  18.572  0.00  0.00    +0.000 OA
ATOM     12  H   UNL     1      47.380   2.997  18.924  0.00  0.00    +0.000 HD
ATOM     13  H   UNL     1      48.786   2.729  19.887  0.00  0.00    +0.000 HD
ENDBRANCH   5   9
BRANCH   1  14
ATOM     14  C   UNL     1      45.977   5.654  13.056  0.00  0.00    +0.000 C 
BRANCH  14  15
ATOM     15  C   UNL     1      45.738   6.091  11.607  0.00  0.00    +0.000 C 
BRANCH  15  20
ATOM     16  C   UNL     1      45.212   3.680   8.684  0.00  0.00    +0.000 A 
ATOM     17  C   UNL     1      44.412   2.702   9.288  0.00  0.00    +0.000 A 
ATOM     18  C   UNL     1      44.008   2.837  10.615  0.00  0.00    +0.000 A 
ATOM     19  C   UNL     1      44.412   3.945  11.362  0.00  0.00    +0.000 A 
ATOM     20  C   UNL     1      45.213   4.936  10.782  0.00  0.00    +0.000 A 
ATOM     21  C   UNL     1      45.601   4.798   9.439  0.00  0.00    +0.000 A 
BRANCH  16  22
ATOM     22  C   UNL     1      45.703   3.504   7.268  0.00  0.00    +0.000 C 
BRANCH  22  23
ATOM     23  N   UNL     1      46.952   4.217   7.026  0.00  0.00    +0.000 NA
ATOM     24  H   UNL     1      47.035   4.409   6.031  0.00  0.00    +0.000 HD
ATOM     25  H   UNL     1      47.728   3.602   7.268  0.00  0.00    +0.000 HD
ENDBRANCH  22  23
ENDBRANCH  16  22
ENDBRANCH  15  20
ENDBRANCH  14  15
ENDBRANCH   1  14
TORSDOF 6
ENDMDL
MODEL 7
REMARK VINA RESULT:    -6.061      3.966      5.896
REMARK INTER + INTRA:          -8.642
REMARK INTER:                  -8.130
REMARK INTRA:                  -0.513
REMARK UNBOUND:                -0.633
REMARK  Name = 
REMARK  6 active torsions:
REMARK  status: ('A' for Active; 'I' for Inactive)
REMARK    1  A    between atoms: N_1  and  C_2
REMARK    2  A    between atoms: C_2  and  C_3
REMARK    3  A    between atoms: C_7  and  C_8
REMARK    4  A    between atoms: C_8  and  C_9
REMARK    5  A    between atoms: C_9  and  N_10
REMARK    6  A    between atoms: C_14  and  C_15
REMARK                            x       y       z     vdW  Elec       q    Type
REMARK                         _______ _______ _______ _____ _____    ______ ____
ROOT
ATOM      1  N   UNL     1      47.269   7.452  13.646  0.00  0.00    +0.000 N 
ATOM      2  C   UNL     1      46.371   6.453  13.215  0.00  0.00    +0.000 A 
ATOM      3  C   UNL     1      45.121   6.823  12.733  0.00  0.00    +0.000 A 
ATOM      4  C   UNL     1      44.225   5.835  12.306  0.00  0.00    +0.000 A 
ATOM      5  C   UNL     1      44.596   4.491  12.369  0.00  0.00    +0.000 A 
ATOM      6  C   UNL     1      45.852   4.212  12.876  0.00  0.00    +0.000 A 
ATOM      7  N   UNL     1      46.728   5.154  13.299  0.00  0.00    +0.000 NA
ATOM      8  H   UNL     1      47.397   8.114  12.885  0.00  0.00    +0.000 HD
ENDROOT
BRANCH   5   9
ATOM      9  C   UNL     1      43.658   3.444  11.899  0.00  0.00    +0.000 C 
ATOM     10  N   UNL     1      43.692   2.207  12.479  0.00  0.00    +0.000 N 
ATOM     11  O   UNL     1      42.860   3.671  10.996  0.00  0.00    +0.000 OA
ATOM     12  H   UNL     1      44.309   1.911  13.221  0.00  0.00    +0.000 HD
ATOM     13  H   UNL     1      43.039   1.521  12.121  0.00  0.00    +0.000 HD
ENDBRANCH   5   9
BRANCH   1  14
ATOM     14  C   UNL     1      48.544   6.892  14.119  0.00  0.00    +0.000 C 
BRANCH  14  15
ATOM     15  C   UNL     1      48.856   7.338  15.552  0.00  0.00    +0.000 C 
BRANCH  15  20
ATOM     16  C   UNL     1      48.924   3.970  17.364  0.00  0.00    +0.000 A 
ATOM     17  C   UNL     1      50.271   3.899  17.742  0.00  0.00    +0.000 A 
ATOM     18  C   UNL     1      51.144   4.947  17.454  0.00  0.00    +0.000 A 
ATOM     19  C   UNL     1      50.686   6.074  16.769  0.00  0.00    +0.000 A 
ATOM     20  C   UNL     1      49.344   6.168  16.378  0.00  0.00    +0.000 A 
ATOM     21  C   UNL     1      48.469   5.114  16.689  0.00  0.00    +0.000 A 
BRANCH  16  22
ATOM     22  C   UNL     1      47.993   2.810  17.619  0.00  0.00    +0.000 C 
BRANCH  22  23
ATOM     23  N   UNL     1      46.593   3.184  17.457  0.00  0.00    +0.000 NA
ATOM     24  H   UNL     1      46.174   2.592  16.744  0.00  0.00    +0.000 HD
ATOM     25  H   UNL     1      46.550   4.138  17.104  0.00  0.00    +0.000 HD
ENDBRANCH  22  23
ENDBRANCH  16  22
ENDBRANCH  15  20
ENDBRANCH  14  15
ENDBRANCH   1  14
TORSDOF 6
ENDMDL
MODEL 8
REMARK VINA RESULT:    -5.862      4.008      8.269
REMARK INTER + INTRA:          -8.380
REMARK INTER:                  -8.106
REMARK INTRA:                  -0.274
REMARK UNBOUND:                -0.633
REMARK  Name = 
REMARK  6 active torsions:
REMARK  status: ('A' for Active; 'I' for Inactive)
REMARK    1  A    between atoms: N_1  and  C_2
REMARK    2  A    between atoms: C_2  and  C_3
REMARK    3  A    between atoms: C_7  and  C_8
REMARK    4  A    between atoms: C_8  and  C_9
REMARK    5  A    between atoms: C_9  and  N_10
REMARK    6  A    between atoms: C_14  and  C_15
REMARK                            x       y       z     vdW  Elec       q    Type
REMARK                         _______ _______ _______ _____ _____    ______ ____
ROOT
ATOM      1  N   UNL     1      46.901   3.707  14.785  0.00  0.00    +0.000 N 
ATOM      2  C   UNL     1      47.581   3.995  15.987  0.00  0.00    +0.000 A 
ATOM      3  C   UNL     1      47.327   3.222  17.114  0.00  0.00    +0.000 A 
ATOM      4  C   UNL     1      47.998   3.504  18.310  0.00  0.00    +0.000 A 
ATOM      5  C   UNL     1      48.913   4.556  18.359  0.00  0.00    +0.000 A 
ATOM      6  C   UNL     1      49.093   5.282  17.195  0.00  0.00    +0.000 A 
ATOM      7  N   UNL     1      48.448   5.027  16.032  0.00  0.00    +0.000 NA
ATOM      8  H   UNL     1      47.063   2.731  14.553  0.00  0.00    +0.000 HD
ENDROOT
BRANCH   5   9
ATOM      9  C   UNL     1      49.641   4.845  19.617  0.00  0.00    +0.000 C 
ATOM     10  N   UNL     1      49.217   4.268  20.782  0.00  0.00    +0.000 N 
ATOM     11  O   UNL     1      50.610   5.596  19.627  0.00  0.00    +0.000 OA
ATOM     12  H   UNL     1      48.432   3.643  20.889  0.00  0.00    +0.000 HD
ATOM     13  H   UNL     1      49.739   4.501  21.617  0.00  0.00    +0.000 HD
ENDBRANCH   5   9
BRANCH   1  14
ATOM     14  C   UNL     1      47.288   4.612  13.693  0.00  0.00    +0.000 C 
BRANCH  14  15
ATOM     15  C   UNL     1      46.330   5.804  13.583  0.00  0.00    +0.000 C 
BRANCH  15  20
ATOM     16  C   UNL     1      44.421   4.752  10.439  0.00  0.00    +0.000 A 
ATOM     17  C   UNL     1      43.110   4.699  10.931  0.00  0.00    +0.000 A 
ATOM     18  C   UNL     1      42.835   5.041  12.254  0.00  0.00    +0.000 A 
ATOM     19  C   UNL     1      43.868   5.425  13.109  0.00  0.00    +0.000 A 
ATOM     20  C   UNL     1      45.188   5.484  12.643  0.00  0.00    +0.000 A 
ATOM     21  C   UNL     1      45.452   5.154  11.303  0.00  0.00    +0.000 A 
BRANCH  16  22
ATOM     22  C   UNL     1      44.729   4.322   9.027  0.00  0.00    +0.000 C 
BRANCH  22  23
ATOM     23  N   UNL     1      45.869   5.041   8.470  0.00  0.00    +0.000 NA
ATOM     24  H   UNL     1      46.684   4.431   8.486  0.00  0.00    +0.000 HD
ATOM     25  H   UNL     1      46.085   5.829   9.079  0.00  0.00    +0.000 HD
ENDBRANCH  22  23
ENDBRANCH  16  22
ENDBRANCH  15  20
ENDBRANCH  14  15
ENDBRANCH   1  14
TORSDOF 6
ENDMDL
MODEL 9
REMARK VINA RESULT:    -5.756      3.768      7.333
REMARK INTER + INTRA:          -8.240
REMARK INTER:                  -7.754
REMARK INTRA:                  -0.486
REMARK UNBOUND:                -0.633
REMARK  Name = 
REMARK  6 active torsions:
REMARK  status: ('A' for Active; 'I' for Inactive)
REMARK    1  A    between atoms: N_1  and  C_2
REMARK    2  A    between atoms: C_2  and  C_3
REMARK    3  A    between atoms: C_7  and  C_8
REMARK    4  A    between atoms: C_8  and  C_9
REMARK    5  A    between atoms: C_9  and  N_10
REMARK    6  A    between atoms: C_14  and  C_15
REMARK                            x       y       z     vdW  Elec       q    Type
REMARK                         _______ _______ _______ _____ _____    ______ ____
ROOT
ATOM      1  N   UNL     1      47.692   7.253  14.075  0.00  0.00    +0.000 N 
ATOM      2  C   UNL     1      48.011   6.253  15.018  0.00  0.00    +0.000 A 
ATOM      3  C   UNL     1      49.110   6.430  15.852  0.00  0.00    +0.000 A 
ATOM      4  C   UNL     1      49.432   5.440  16.788  0.00  0.00    +0.000 A 
ATOM      5  C   UNL     1      48.650   4.288  16.874  0.00  0.00    +0.000 A 
ATOM      6  C   UNL     1      47.587   4.187  15.996  0.00  0.00    +0.000 A 
ATOM      7  N   UNL     1      47.264   5.132  15.081  0.00  0.00    +0.000 NA
ATOM      8  H   UNL     1      47.585   8.134  14.570  0.00  0.00    +0.000 HD
ENDROOT
BRANCH   5   9
ATOM      9  C   UNL     1      48.977   3.247  17.878  0.00  0.00    +0.000 C 
ATOM     10  N   UNL     1      48.348   3.267  19.092  0.00  0.00    +0.000 N 
ATOM     11  O   UNL     1      49.803   2.374  17.635  0.00  0.00    +0.000 OA
ATOM     12  H   UNL     1      47.660   3.939  19.397  0.00  0.00    +0.000 HD
ATOM     13  H   UNL     1      48.608   2.542  19.747  0.00  0.00    +0.000 HD
ENDBRANCH   5   9
BRANCH   1  14
ATOM     14  C   UNL     1      46.503   6.912  13.280  0.00  0.00    +0.000 C 
BRANCH  14  15
ATOM     15  C   UNL     1      46.848   6.742  11.796  0.00  0.00    +0.000 C 
BRANCH  15  20
ATOM     16  C   UNL     1      44.440   3.790  11.452  0.00  0.00    +0.000 A 
ATOM     17  C   UNL     1      44.303   3.721  10.059  0.00  0.00    +0.000 A 
ATOM     18  C   UNL     1      45.014   4.590   9.234  0.00  0.00    +0.000 A 
ATOM     19  C   UNL     1      45.859   5.552   9.789  0.00  0.00    +0.000 A 
ATOM     20  C   UNL     1      46.012   5.644  11.178  0.00  0.00    +0.000 A 
ATOM     21  C   UNL     1      45.304   4.751  12.001  0.00  0.00    +0.000 A 
BRANCH  16  22
ATOM     22  C   UNL     1      43.624   2.893  12.349  0.00  0.00    +0.000 C 
BRANCH  22  23
ATOM     23  N   UNL     1      42.934   1.849  11.601  0.00  0.00    +0.000 NA
ATOM     24  H   UNL     1      42.594   1.145  12.254  0.00  0.00    +0.000 HD
ATOM     25  H   UNL     1      43.609   1.381  10.998  0.00  0.00    +0.000 HD
ENDBRANCH  22  23
ENDBRANCH  16  22
ENDBRANCH  15  20
ENDBRANCH  14  15
ENDBRANCH   1  14
TORSDOF 6
ENDMDL
