MODEL 1
REMARK VINA RESULT:    -8.825      0.000      0.000
REMARK INTER + INTRA:         -13.617
REMARK INTER:                 -12.436
REMARK INTRA:                  -1.182
REMARK UNBOUND:                -1.182
REMARK  Name = 
REMARK  9 active torsions:
REMARK  status: ('A' for Active; 'I' for Inactive)
REMARK    1  A    between atoms: C_1  and  C_2
REMARK    2  A    between atoms: C_2  and  C_3
REMARK    3  A    between atoms: C_2  and  C_4
REMARK    4  A    between atoms: C_2  and  C_15
REMARK    5  A    between atoms: C_4  and  O_5
REMARK    6  A    between atoms: O_5  and  C_6
REMARK    7  A    between atoms: C_9  and  C_10
REMARK    8  A    between atoms: C_20  and  O_21
REMARK    9  A    between atoms: O_21  and  C_22
REMARK                            x       y       z     vdW  Elec       q    Type
REMARK                         _______ _______ _______ _____ _____    ______ ____
ROOT
ATOM      1  C   UNL     1      42.867   5.397  12.910  0.00  0.00    +0.000 C 
ATOM      2  C   UNL     1      43.926   4.531  12.189  0.00  0.00    +0.000 C 
ATOM      3  C   UNL     1      43.769   3.090  12.730  0.00  0.00    +0.000 C 
ENDROOT
BRANCH   2   4
ATOM      4  C   UNL     1      45.321   5.144  12.448  0.00  0.00    +0.000 A 
ATOM      5  C   UNL     1      45.862   6.080  11.544  0.00  0.00    +0.000 A 
ATOM      6  C   UNL     1      47.082   6.712  11.796  0.00  0.00    +0.000 A 
ATOM      7  C   UNL     1      47.795   6.410  12.950  0.00  0.00    +0.000 A 
ATOM      8  F   UNL     1      48.940   7.069  13.175  0.00  0.00    +0.000 F 
ATOM      9  C   UNL     1      47.313   5.461  13.845  0.00  0.00    +0.000 A 
ATOM     10  C   UNL     1      46.082   4.840  13.591  0.00  0.00    +0.000 A 
BRANCH   9  11
ATOM     11  O   UNL     1      47.918   5.079  15.018  0.00  0.00    +0.000 OA
BRANCH  11  12
ATOM     12  C   UNL     1      47.223   4.167  15.899  0.00  0.00    +0.000 C 
ATOM     13  C   UNL     1      47.211   4.478  17.402  0.00  0.00    +0.000 C 
ATOM     14  O   UNL     1      47.793   3.192  17.725  0.00  0.00    +0.000 OA
ATOM     15  C   UNL     1      48.033   2.933  16.323  0.00  0.00    +0.000 C 
ENDBRANCH  11  12
ENDBRANCH   9  11
ENDBRANCH   2   4
BRANCH   2  16
ATOM     16  C   UNL     1      43.641   4.509  10.660  0.00  0.00    +0.000 C 
BRANCH  16  17
ATOM     17  O   UNL     1      43.618   3.165  10.152  0.00  0.00    +0.000 OA
BRANCH  17  18
ATOM     18  C   UNL     1      44.601   2.945   9.209  0.00  0.00    +0.000 A 
ATOM     19  C   UNL     1      45.069   4.043   8.506  0.00  0.00    +0.000 A 
ATOM     20  C   UNL     1      46.079   3.843   7.563  0.00  0.00    +0.000 A 
ATOM     21  C   UNL     1      46.591   2.557   7.354  0.00  0.00    +0.000 A 
ATOM     22  C   UNL     1      46.047   1.528   8.106  0.00  0.00    +0.000 A 
ATOM     23  N   UNL     1      45.067   1.692   9.025  0.00  0.00    +0.000 NA
BRANCH  21  24
ATOM     24  C   UNL     1      47.673   2.351   6.363  0.00  0.00    +0.000 C 
ATOM     25  N   UNL     1      47.700   3.133   5.238  0.00  0.00    +0.000 N 
ATOM     26  O   UNL     1      48.530   1.492   6.532  0.00  0.00    +0.000 OA
ATOM     27  H   UNL     1      47.046   3.854   4.987  0.00  0.00    +0.000 HD
ATOM     28  H   UNL     1      48.451   2.948   4.584  0.00  0.00    +0.000 HD
ENDBRANCH  21  24
ENDBRANCH  17  18
ENDBRANCH  16  17
ENDBRANCH   2  16
TORSDOF 7
ENDMDL
MODEL 2
REMARK VINA RESULT:    -7.364      2.075      3.349
REMARK INTER + INTRA:         -11.559
REMARK INTER:                 -10.794
REMARK INTRA:                  -0.765
REMARK UNBOUND:                -1.182
REMARK  Name = 
REMARK  9 active torsions:
REMARK  status: ('A' for Active; 'I' for Inactive)
REMARK    1  A    between atoms: C_1  and  C_2
REMARK    2  A    between atoms: C_2  and  C_3
REMARK    3  A    between atoms: C_2  and  C_4
REMARK    4  A    between atoms: C_2  and  C_15
REMARK    5  A    between atoms: C_4  and  O_5
REMARK    6  A    between atoms: O_5  and  C_6
REMARK    7  A    between atoms: C_9  and  C_10
REMARK    8  A    between atoms: C_20  and  O_21
REMARK    9  A    between atoms: O_21  and  C_22
REMARK                            x       y       z     vdW  Elec       q    Type
REMARK                         _______ _______ _______ _____ _____    ______ ____
ROOT
ATOM      1  C   UNL     1      43.756   6.245  11.086  0.00  0.00    +0.000 C 
ATOM      2  C   UNL     1      44.103   5.179  12.153  0.00  0.00    +0.000 C 
ATOM      3  C   UNL     1      42.871   5.059  13.081  0.00  0.00    +0.000 C 
ENDROOT
BRANCH   2   4
ATOM      4  C   UNL     1      45.391   5.620  12.884  0.00  0.00    +0.000 A 
ATOM      5  C   UNL     1      46.111   4.696  13.669  0.00  0.00    +0.000 A 
ATOM      6  C   UNL     1      47.322   5.044  14.272  0.00  0.00    +0.000 A 
ATOM      7  C   UNL     1      47.832   6.327  14.117  0.00  0.00    +0.000 A 
ATOM      8  F   UNL     1      49.016   6.608  14.678  0.00  0.00    +0.000 F 
ATOM      9  C   UNL     1      47.129   7.279  13.386  0.00  0.00    +0.000 A 
ATOM     10  C   UNL     1      45.920   6.919  12.773  0.00  0.00    +0.000 A 
BRANCH   9  11
ATOM     11  O   UNL     1      47.526   8.574  13.155  0.00  0.00    +0.000 OA
BRANCH  11  12
ATOM     12  C   UNL     1      48.472   8.837  12.094  0.00  0.00    +0.000 C 
ATOM     13  C   UNL     1      49.146   7.640  11.410  0.00  0.00    +0.000 C 
ATOM     14  O   UNL     1      50.468   8.142  11.720  0.00  0.00    +0.000 OA
ATOM     15  C   UNL     1      49.896   9.168  12.563  0.00  0.00    +0.000 C 
ENDBRANCH  11  12
ENDBRANCH   9  11
ENDBRANCH   2   4
BRANCH   2  16
ATOM     16  C   UNL     1      44.335   3.801  11.471  0.00  0.00    +0.000 C 
BRANCH  16  17
ATOM     17  O   UNL     1      43.815   3.788  10.132  0.00  0.00    +0.000 OA
BRANCH  17  18
ATOM     18  C   UNL     1      44.773   3.437   9.202  0.00  0.00    +0.000 A 
ATOM     19  C   UNL     1      45.133   2.101   9.131  0.00  0.00    +0.000 A 
ATOM     20  C   UNL     1      46.085   1.723   8.182  0.00  0.00    +0.000 A 
ATOM     21  C   UNL     1      46.643   2.686   7.334  0.00  0.00    +0.000 A 
ATOM     22  C   UNL     1      46.217   3.996   7.494  0.00  0.00    +0.000 A 
ATOM     23  N   UNL     1      45.298   4.391   8.406  0.00  0.00    +0.000 NA
BRANCH  21  24
ATOM     24  C   UNL     1      47.642   2.279   6.318  0.00  0.00    +0.000 C 
ATOM     25  N   UNL     1      47.713   2.976   5.141  0.00  0.00    +0.000 N 
ATOM     26  O   UNL     1      48.392   1.330   6.514  0.00  0.00    +0.000 OA
ATOM     27  H   UNL     1      47.143   3.757   4.865  0.00  0.00    +0.000 HD
ATOM     28  H   UNL     1      48.403   2.654   4.473  0.00  0.00    +0.000 HD
ENDBRANCH  21  24
ENDBRANCH  17  18
ENDBRANCH  16  17
ENDBRANCH   2  16
TORSDOF 7
ENDMDL
MODEL 3
REMARK VINA RESULT:    -7.186      3.484      8.305
REMARK INTER + INTRA:         -11.309
REMARK INTER:                 -10.588
REMARK INTRA:                  -0.721
REMARK UNBOUND:                -1.182
REMARK  Name = 
REMARK  9 active torsions:
REMARK  status: ('A' for Active; 'I' for Inactive)
REMARK    1  A    between atoms: C_1  and  C_2
REMARK    2  A    between atoms: C_2  and  C_3
REMARK    3  A    between atoms: C_2  and  C_4
REMARK    4  A    between atoms: C_2  and  C_15
REMARK    5  A    between atoms: C_4  and  O_5
REMARK    6  A    between atoms: O_5  and  C_6
REMARK    7  A    between atoms: C_9  and  C_10
REMARK    8  A    between atoms: C_20  and  O_21
REMARK    9  A    between atoms: O_21  and  C_22
REMARK                            x       y       z     vdW  Elec       q    Type
REMARK                         _______ _______ _______ _____ _____    ______ ____
ROOT
ATOM      1  C   UNL     1      44.806   7.394  11.725  0.00  0.00    +0.000 C 
ATOM      2  C   UNL     1      45.907   6.310  11.810  0.00  0.00    +0.000 C 
ATOM      3  C   UNL     1      47.219   6.968  11.320  0.00  0.00    +0.000 C 
ENDROOT
BRANCH   2   4
ATOM      4  C   UNL     1      45.466   5.096  10.961  0.00  0.00    +0.000 A 
ATOM      5  C   UNL     1      44.709   4.061  11.546  0.00  0.00    +0.000 A 
ATOM      6  C   UNL     1      44.226   2.994  10.784  0.00  0.00    +0.000 A 
ATOM      7  C   UNL     1      44.503   2.931   9.424  0.00  0.00    +0.000 A 
ATOM      8  F   UNL     1      43.987   1.914   8.721  0.00  0.00    +0.000 F 
ATOM      9  C   UNL     1      45.282   3.912   8.820  0.00  0.00    +0.000 A 
ATOM     10  C   UNL     1      45.753   4.986   9.588  0.00  0.00    +0.000 A 
BRANCH   9  11
ATOM     11  O   UNL     1      45.621   3.967   7.489  0.00  0.00    +0.000 OA
BRANCH  11  12
ATOM     12  C   UNL     1      46.876   3.392   7.062  0.00  0.00    +0.000 C 
ATOM     13  C   UNL     1      46.984   2.874   5.620  0.00  0.00    +0.000 C 
ATOM     14  O   UNL     1      47.372   1.554   6.070  0.00  0.00    +0.000 OA
ATOM     15  C   UNL     1      47.076   1.917   7.438  0.00  0.00    +0.000 C 
ENDBRANCH  11  12
ENDBRANCH   9  11
ENDBRANCH   2   4
BRANCH   2  16
ATOM     16  C   UNL     1      46.106   5.870  13.288  0.00  0.00    +0.000 C 
BRANCH  16  17
ATOM     17  O   UNL     1      47.411   5.306  13.493  0.00  0.00    +0.000 OA
BRANCH  17  18
ATOM     18  C   UNL     1      47.690   5.103  14.829  0.00  0.00    +0.000 A 
ATOM     19  C   UNL     1      47.063   4.039  15.457  0.00  0.00    +0.000 A 
ATOM     20  C   UNL     1      47.349   3.804  16.803  0.00  0.00    +0.000 A 
ATOM     21  C   UNL     1      48.251   4.634  17.478  0.00  0.00    +0.000 A 
ATOM     22  C   UNL     1      48.817   5.674  16.757  0.00  0.00    +0.000 A 
ATOM     23  N   UNL     1      48.558   5.926  15.453  0.00  0.00    +0.000 NA
BRANCH  21  24
ATOM     24  C   UNL     1      48.563   4.373  18.903  0.00  0.00    +0.000 C 
ATOM     25  N   UNL     1      48.339   3.122  19.413  0.00  0.00    +0.000 N 
ATOM     26  O   UNL     1      49.006   5.258  19.626  0.00  0.00    +0.000 OA
ATOM     27  H   UNL     1      47.967   2.327  18.922  0.00  0.00    +0.000 HD
ATOM     28  H   UNL     1      48.557   2.994  20.394  0.00  0.00    +0.000 HD
ENDBRANCH  21  24
ENDBRANCH  17  18
ENDBRANCH  16  17
ENDBRANCH   2  16
TORSDOF 7
ENDMDL
MODEL 4
REMARK VINA RESULT:    -7.166      2.520      2.835
REMARK INTER + INTRA:         -11.281
REMARK INTER:                 -10.679
REMARK INTRA:                  -0.601
REMARK UNBOUND:                -1.182
REMARK  Name = 
REMARK  9 active torsions:
REMARK  status: ('A' for Active; 'I' for Inactive)
REMARK    1  A    between atoms: C_1  and  C_2
REMARK    2  A    between atoms: C_2  and  C_3
REMARK    3  A    between atoms: C_2  and  C_4
REMARK    4  A    between atoms: C_2  and  C_15
REMARK    5  A    between atoms: C_4  and  O_5
REMARK    6  A    between atoms: O_5  and  C_6
REMARK    7  A    between atoms: C_9  and  C_10
REMARK    8  A    between atoms: C_20  and  O_21
REMARK    9  A    between atoms: O_21  and  C_22
REMARK                            x       y       z     vdW  Elec       q    Type
REMARK                         _______ _______ _______ _____ _____    ______ ____
ROOT
ATOM      1  C   UNL     1      43.323   4.486  13.396  0.00  0.00    +0.000 C 
ATOM      2  C   UNL     1      44.270   4.431  12.174  0.00  0.00    +0.000 C 
ATOM      3  C   UNL     1      45.267   3.276  12.432  0.00  0.00    +0.000 C 
ENDROOT
BRANCH   2   4
ATOM      4  C   UNL     1      44.946   5.812  12.015  0.00  0.00    +0.000 A 
ATOM      5  C   UNL     1      44.165   6.957  11.755  0.00  0.00    +0.000 A 
ATOM      6  C   UNL     1      44.740   8.228  11.690  0.00  0.00    +0.000 A 
ATOM      7  C   UNL     1      46.109   8.381  11.868  0.00  0.00    +0.000 A 
ATOM      8  F   UNL     1      46.615   9.622  11.839  0.00  0.00    +0.000 F 
ATOM      9  C   UNL     1      46.918   7.270  12.085  0.00  0.00    +0.000 A 
ATOM     10  C   UNL     1      46.333   5.999  12.161  0.00  0.00    +0.000 A 
BRANCH   9  11
ATOM     11  O   UNL     1      48.278   7.289  12.281  0.00  0.00    +0.000 OA
BRANCH  11  12
ATOM     12  C   UNL     1      48.792   7.193  13.628  0.00  0.00    +0.000 C 
ATOM     13  C   UNL     1      48.366   8.260  14.646  0.00  0.00    +0.000 C 
ATOM     14  O   UNL     1      49.741   8.614  14.928  0.00  0.00    +0.000 OA
ATOM     15  C   UNL     1      50.194   7.787  13.831  0.00  0.00    +0.000 C 
ENDBRANCH  11  12
ENDBRANCH   9  11
ENDBRANCH   2   4
BRANCH   2  16
ATOM     16  C   UNL     1      43.460   4.095  10.889  0.00  0.00    +0.000 C 
BRANCH  16  17
ATOM     17  O   UNL     1      43.968   4.811   9.751  0.00  0.00    +0.000 OA
BRANCH  17  18
ATOM     18  C   UNL     1      44.877   4.066   9.028  0.00  0.00    +0.000 A 
ATOM     19  C   UNL     1      44.768   2.687   9.093  0.00  0.00    +0.000 A 
ATOM     20  C   UNL     1      45.665   1.917   8.349  0.00  0.00    +0.000 A 
ATOM     21  C   UNL     1      46.638   2.546   7.565  0.00  0.00    +0.000 A 
ATOM     22  C   UNL     1      46.664   3.932   7.577  0.00  0.00    +0.000 A 
ATOM     23  N   UNL     1      45.808   4.703   8.288  0.00  0.00    +0.000 NA
BRANCH  21  24
ATOM     24  C   UNL     1      47.579   1.726   6.767  0.00  0.00    +0.000 C 
ATOM     25  N   UNL     1      48.670   2.331   6.200  0.00  0.00    +0.000 N 
ATOM     26  O   UNL     1      47.390   0.527   6.601  0.00  0.00    +0.000 OA
ATOM     27  H   UNL     1      48.918   3.304   6.255  0.00  0.00    +0.000 HD
ATOM     28  H   UNL     1      49.278   1.733   5.654  0.00  0.00    +0.000 HD
ENDBRANCH  21  24
ENDBRANCH  17  18
ENDBRANCH  16  17
ENDBRANCH   2  16
TORSDOF 7
ENDMDL
MODEL 5
REMARK VINA RESULT:    -6.286      3.782      7.760
REMARK INTER + INTRA:         -10.040
REMARK INTER:                  -9.003
REMARK INTRA:                  -1.037
REMARK UNBOUND:                -1.182
REMARK  Name = 
REMARK  9 active torsions:
REMARK  status: ('A' for Active; 'I' for Inactive)
REMARK    1  A    between atoms: C_1  and  C_2
REMARK    2  A    between atoms: C_2  and  C_3
REMARK    3  A    between atoms: C_2  and  C_4
REMARK    4  A    between atoms: C_2  and  C_15
REMARK    5  A    between atoms: C_4  and  O_5
REMARK    6  A    between atoms: O_5  and  C_6
REMARK    7  A    between atoms: C_9  and  C_10
REMARK    8  A    between atoms: C_20  and  O_21
REMARK    9  A    between atoms: O_21  and  C_22
REMARK                            x       y       z     vdW  Elec       q    Type
REMARK                         _______ _______ _______ _____ _____    ______ ____
ROOT
ATOM      1  C   UNL     1      49.003  10.067  12.273  0.00  0.00    +0.000 C 
ATOM      2  C   UNL     1      48.653   8.623  12.701  0.00  0.00    +0.000 C 
ATOM      3  C   UNL     1      49.682   7.691  12.017  0.00  0.00    +0.000 C 
ENDROOT
BRANCH   2   4
ATOM      4  C   UNL     1      47.189   8.334  12.299  0.00  0.00    +0.000 A 
ATOM      5  C   UNL     1      46.201   9.327  12.459  0.00  0.00    +0.000 A 
ATOM      6  C   UNL     1      44.889   9.122  12.026  0.00  0.00    +0.000 A 
ATOM      7  C   UNL     1      44.531   7.915  11.439  0.00  0.00    +0.000 A 
ATOM      8  F   UNL     1      43.273   7.774  11.001  0.00  0.00    +0.000 F 
ATOM      9  C   UNL     1      45.468   6.896  11.303  0.00  0.00    +0.000 A 
ATOM     10  C   UNL     1      46.786   7.113  11.727  0.00  0.00    +0.000 A 
BRANCH   9  11
ATOM     11  O   UNL     1      45.243   5.664  10.736  0.00  0.00    +0.000 OA
BRANCH  11  12
ATOM     12  C   UNL     1      44.651   4.621  11.542  0.00  0.00    +0.000 C 
ATOM     13  C   UNL     1      44.578   3.204  10.955  0.00  0.00    +0.000 C 
ATOM     14  O   UNL     1      43.143   3.147  11.136  0.00  0.00    +0.000 OA
ATOM     15  C   UNL     1      43.118   4.550  11.488  0.00  0.00    +0.000 C 
ENDBRANCH  11  12
ENDBRANCH   9  11
ENDBRANCH   2   4
BRANCH   2  16
ATOM     16  C   UNL     1      48.810   8.473  14.241  0.00  0.00    +0.000 C 
BRANCH  16  17
ATOM     17  O   UNL     1      49.776   7.462  14.571  0.00  0.00    +0.000 OA
BRANCH  17  18
ATOM     18  C   UNL     1      49.238   6.459  15.351  0.00  0.00    +0.000 A 
ATOM     19  C   UNL     1      49.833   6.217  16.579  0.00  0.00    +0.000 A 
ATOM     20  C   UNL     1      49.289   5.221  17.392  0.00  0.00    +0.000 A 
ATOM     21  C   UNL     1      48.170   4.501  16.957  0.00  0.00    +0.000 A 
ATOM     22  C   UNL     1      47.658   4.818  15.709  0.00  0.00    +0.000 A 
ATOM     23  N   UNL     1      48.165   5.777  14.899  0.00  0.00    +0.000 NA
BRANCH  21  24
ATOM     24  C   UNL     1      47.587   3.454  17.829  0.00  0.00    +0.000 C 
ATOM     25  N   UNL     1      48.206   3.156  19.014  0.00  0.00    +0.000 N 
ATOM     26  O   UNL     1      46.572   2.851  17.500  0.00  0.00    +0.000 OA
ATOM     27  H   UNL     1      49.047   3.572  19.378  0.00  0.00    +0.000 HD
ATOM     28  H   UNL     1      47.778   2.427  19.570  0.00  0.00    +0.000 HD
ENDBRANCH  21  24
ENDBRANCH  17  18
ENDBRANCH  16  17
ENDBRANCH   2  16
TORSDOF 7
ENDMDL
MODEL 6
REMARK VINA RESULT:    -6.163      3.095      5.008
REMARK INTER + INTRA:          -9.866
REMARK INTER:                  -8.776
REMARK INTRA:                  -1.090
REMARK UNBOUND:                -1.182
REMARK  Name = 
REMARK  9 active torsions:
REMARK  status: ('A' for Active; 'I' for Inactive)
REMARK    1  A    between atoms: C_1  and  C_2
REMARK    2  A    between atoms: C_2  and  C_3
REMARK    3  A    between atoms: C_2  and  C_4
REMARK    4  A    between atoms: C_2  and  C_15
REMARK    5  A    between atoms: C_4  and  O_5
REMARK    6  A    between atoms: O_5  and  C_6
REMARK    7  A    between atoms: C_9  and  C_10
REMARK    8  A    between atoms: C_20  and  O_21
REMARK    9  A    between atoms: O_21  and  C_22
REMARK                            x       y       z     vdW  Elec       q    Type
REMARK                         _______ _______ _______ _____ _____    ______ ____
ROOT
ATOM      1  C   UNL     1      48.984   7.465  11.684  0.00  0.00    +0.000 C 
ATOM      2  C   UNL     1      48.247   8.557  12.495  0.00  0.00    +0.000 C 
ATOM      3  C   UNL     1      48.774   9.921  11.990  0.00  0.00    +0.000 C 
ENDROOT
BRANCH   2   4
ATOM      4  C   UNL     1      48.505   8.308  13.998  0.00  0.00    +0.000 A 
ATOM      5  C   UNL     1      48.438   9.376  14.915  0.00  0.00    +0.000 A 
ATOM      6  C   UNL     1      48.583   9.165  16.288  0.00  0.00    +0.000 A 
ATOM      7  C   UNL     1      48.817   7.884  16.773  0.00  0.00    +0.000 A 
ATOM      8  F   UNL     1      48.910   7.719  18.099  0.00  0.00    +0.000 F 
ATOM      9  C   UNL     1      48.932   6.811  15.896  0.00  0.00    +0.000 A 
ATOM     10  C   UNL     1      48.772   7.028  14.520  0.00  0.00    +0.000 A 
BRANCH   9  11
ATOM     11  O   UNL     1      49.155   5.502  16.248  0.00  0.00    +0.000 OA
BRANCH  11  12
ATOM     12  C   UNL     1      48.094   4.761  16.893  0.00  0.00    +0.000 C 
ATOM     13  C   UNL     1      48.473   3.767  18.000  0.00  0.00    +0.000 C 
ATOM     14  O   UNL     1      47.825   2.672  17.310  0.00  0.00    +0.000 OA
ATOM     15  C   UNL     1      47.632   3.503  16.142  0.00  0.00    +0.000 C 
ENDBRANCH  11  12
ENDBRANCH   9  11
ENDBRANCH   2   4
BRANCH   2  16
ATOM     16  C   UNL     1      46.720   8.490  12.209  0.00  0.00    +0.000 C 
BRANCH  16  17
ATOM     17  O   UNL     1      46.042   7.679  13.182  0.00  0.00    +0.000 OA
BRANCH  17  18
ATOM     18  C   UNL     1      45.539   6.516  12.636  0.00  0.00    +0.000 A 
ATOM     19  C   UNL     1      45.990   5.317  13.161  0.00  0.00    +0.000 A 
ATOM     20  C   UNL     1      45.476   4.129  12.636  0.00  0.00    +0.000 A 
ATOM     21  C   UNL     1      44.528   4.176  11.608  0.00  0.00    +0.000 A 
ATOM     22  C   UNL     1      44.150   5.430  11.150  0.00  0.00    +0.000 A 
ATOM     23  N   UNL     1      44.633   6.596  11.639  0.00  0.00    +0.000 NA
BRANCH  21  24
ATOM     24  C   UNL     1      43.973   2.916  11.062  0.00  0.00    +0.000 C 
ATOM     25  N   UNL     1      44.626   2.296  10.029  0.00  0.00    +0.000 N 
ATOM     26  O   UNL     1      42.943   2.430  11.514  0.00  0.00    +0.000 OA
ATOM     27  H   UNL     1      45.465   2.608   9.571  0.00  0.00    +0.000 HD
ATOM     28  H   UNL     1      44.204   1.443   9.682  0.00  0.00    +0.000 HD
ENDBRANCH  21  24
ENDBRANCH  17  18
ENDBRANCH  16  17
ENDBRANCH   2  16
TORSDOF 7
ENDMDL
MODEL 7
REMARK VINA RESULT:    -6.041      3.732      6.287
REMARK INTER + INTRA:          -9.695
REMARK INTER:                  -8.887
REMARK INTRA:                  -0.808
REMARK UNBOUND:                -1.182
REMARK  Name = 
REMARK  9 active torsions:
REMARK  status: ('A' for Active; 'I' for Inactive)
REMARK    1  A    between atoms: C_1  and  C_2
REMARK    2  A    between atoms: C_2  and  C_3
REMARK    3  A    between atoms: C_2  and  C_4
REMARK    4  A    between atoms: C_2  and  C_15
REMARK    5  A    between atoms: C_4  and  O_5
REMARK    6  A    between atoms: O_5  and  C_6
REMARK    7  A    between atoms: C_9  and  C_10
REMARK    8  A    between atoms: C_20  and  O_21
REMARK    9  A    between atoms: O_21  and  C_22
REMARK                            x       y       z     vdW  Elec       q    Type
REMARK                         _______ _______ _______ _____ _____    ______ ____
ROOT
ATOM      1  C   UNL     1      47.451   5.220  18.332  0.00  0.00    +0.000 C 
ATOM      2  C   UNL     1      48.125   4.472  17.157  0.00  0.00    +0.000 C 
ATOM      3  C   UNL     1      47.722   2.983  17.285  0.00  0.00    +0.000 C 
ENDROOT
BRANCH   2   4
ATOM      4  C   UNL     1      49.650   4.713  17.233  0.00  0.00    +0.000 A 
ATOM      5  C   UNL     1      50.213   5.871  16.661  0.00  0.00    +0.000 A 
ATOM      6  C   UNL     1      51.575   6.155  16.788  0.00  0.00    +0.000 A 
ATOM      7  C   UNL     1      52.406   5.279  17.475  0.00  0.00    +0.000 A 
ATOM      8  F   UNL     1      53.698   5.608  17.609  0.00  0.00    +0.000 F 
ATOM      9  C   UNL     1      51.894   4.104  18.016  0.00  0.00    +0.000 A 
ATOM     10  C   UNL     1      50.524   3.832  17.896  0.00  0.00    +0.000 A 
BRANCH   9  11
ATOM     11  O   UNL     1      52.607   3.164  18.720  0.00  0.00    +0.000 OA
BRANCH  11  12
ATOM     12  C   UNL     1      53.274   2.105  17.996  0.00  0.00    +0.000 C 
ATOM     13  C   UNL     1      52.546   0.762  17.842  0.00  0.00    +0.000 C 
ATOM     14  O   UNL     1      53.642   0.039  18.453  0.00  0.00    +0.000 OA
ATOM     15  C   UNL     1      54.276   1.286  18.823  0.00  0.00    +0.000 C 
ENDBRANCH  11  12
ENDBRANCH   9  11
ENDBRANCH   2   4
BRANCH   2  16
ATOM     16  C   UNL     1      47.579   5.008  15.804  0.00  0.00    +0.000 C 
BRANCH  16  17
ATOM     17  O   UNL     1      47.564   3.978  14.802  0.00  0.00    +0.000 OA
BRANCH  17  18
ATOM     18  C   UNL     1      46.630   4.220  13.816  0.00  0.00    +0.000 A 
ATOM     19  C   UNL     1      46.257   5.536  13.598  0.00  0.00    +0.000 A 
ATOM     20  C   UNL     1      45.329   5.803  12.589  0.00  0.00    +0.000 A 
ATOM     21  C   UNL     1      44.805   4.751  11.830  0.00  0.00    +0.000 A 
ATOM     22  C   UNL     1      45.240   3.470  12.135  0.00  0.00    +0.000 A 
ATOM     23  N   UNL     1      46.138   3.182  13.107  0.00  0.00    +0.000 NA
BRANCH  21  24
ATOM     24  C   UNL     1      43.831   5.038  10.751  0.00  0.00    +0.000 C 
ATOM     25  N   UNL     1      44.055   4.526   9.501  0.00  0.00    +0.000 N 
ATOM     26  O   UNL     1      42.842   5.730  10.961  0.00  0.00    +0.000 OA
ATOM     27  H   UNL     1      44.836   3.962   9.210  0.00  0.00    +0.000 HD
ATOM     28  H   UNL     1      43.369   4.759   8.794  0.00  0.00    +0.000 HD
ENDBRANCH  21  24
ENDBRANCH  17  18
ENDBRANCH  16  17
ENDBRANCH   2  16
TORSDOF 7
ENDMDL
MODEL 8
REMARK VINA RESULT:    -6.013      3.243      5.546
REMARK INTER + INTRA:          -9.655
REMARK INTER:                  -8.506
REMARK INTRA:                  -1.149
REMARK UNBOUND:                -1.182
REMARK  Name = 
REMARK  9 active torsions:
REMARK  status: ('A' for Active; 'I' for Inactive)
REMARK    1  A    between atoms: C_1  and  C_2
REMARK    2  A    between atoms: C_2  and  C_3
REMARK    3  A    between atoms: C_2  and  C_4
REMARK    4  A    between atoms: C_2  and  C_15
REMARK    5  A    between atoms: C_4  and  O_5
REMARK    6  A    between atoms: O_5  and  C_6
REMARK    7  A    between atoms: C_9  and  C_10
REMARK    8  A    between atoms: C_20  and  O_21
REMARK    9  A    between atoms: O_21  and  C_22
REMARK                            x       y       z     vdW  Elec       q    Type
REMARK                         _______ _______ _______ _____ _____    ______ ____
ROOT
ATOM      1  C   UNL     1      50.625   8.792  13.895  0.00  0.00    +0.000 C 
ATOM      2  C   UNL     1      49.168   8.326  14.122  0.00  0.00    +0.000 C 
ATOM      3  C   UNL     1      48.266   9.569  13.930  0.00  0.00    +0.000 C 
ENDROOT
BRANCH   2   4
ATOM      4  C   UNL     1      49.068   7.696  15.529  0.00  0.00    +0.000 A 
ATOM      5  C   UNL     1      48.578   8.454  16.612  0.00  0.00    +0.000 A 
ATOM      6  C   UNL     1      48.399   7.886  17.875  0.00  0.00    +0.000 A 
ATOM      7  C   UNL     1      48.721   6.552  18.088  0.00  0.00    +0.000 A 
ATOM      8  F   UNL     1      48.496   6.034  19.303  0.00  0.00    +0.000 F 
ATOM      9  C   UNL     1      49.248   5.783  17.055  0.00  0.00    +0.000 A 
ATOM     10  C   UNL     1      49.413   6.356  15.787  0.00  0.00    +0.000 A 
BRANCH   9  11
ATOM     11  O   UNL     1      49.600   4.457  17.136  0.00  0.00    +0.000 OA
BRANCH  11  12
ATOM     12  C   UNL     1      48.612   3.450  16.819  0.00  0.00    +0.000 C 
ATOM     13  C   UNL     1      47.232   3.915  16.334  0.00  0.00    +0.000 C 
ATOM     14  O   UNL     1      46.559   3.195  17.394  0.00  0.00    +0.000 OA
ATOM     15  C   UNL     1      47.829   2.908  18.024  0.00  0.00    +0.000 C 
ENDBRANCH  11  12
ENDBRANCH   9  11
ENDBRANCH   2   4
BRANCH   2  16
ATOM     16  C   UNL     1      48.775   7.271  13.049  0.00  0.00    +0.000 C 
BRANCH  16  17
ATOM     17  O   UNL     1      47.567   7.644  12.367  0.00  0.00    +0.000 OA
BRANCH  17  18
ATOM     18  C   UNL     1      46.731   6.567  12.155  0.00  0.00    +0.000 A 
ATOM     19  C   UNL     1      46.520   5.705  13.219  0.00  0.00    +0.000 A 
ATOM     20  C   UNL     1      45.659   4.621  13.030  0.00  0.00    +0.000 A 
ATOM     21  C   UNL     1      45.036   4.434  11.791  0.00  0.00    +0.000 A 
ATOM     22  C   UNL     1      45.323   5.353  10.792  0.00  0.00    +0.000 A 
ATOM     23  N   UNL     1      46.153   6.411  10.946  0.00  0.00    +0.000 NA
BRANCH  21  24
ATOM     24  C   UNL     1      44.113   3.292  11.598  0.00  0.00    +0.000 C 
ATOM     25  N   UNL     1      43.863   2.455  12.654  0.00  0.00    +0.000 N 
ATOM     26  O   UNL     1      43.583   3.083  10.514  0.00  0.00    +0.000 OA
ATOM     27  H   UNL     1      44.250   2.519  13.580  0.00  0.00    +0.000 HD
ATOM     28  H   UNL     1      43.235   1.682  12.472  0.00  0.00    +0.000 HD
ENDBRANCH  21  24
ENDBRANCH  17  18
ENDBRANCH  16  17
ENDBRANCH   2  16
TORSDOF 7
ENDMDL
MODEL 9
REMARK VINA RESULT:    -5.943      3.346      5.704
REMARK INTER + INTRA:          -9.557
REMARK INTER:                  -8.556
REMARK INTRA:                  -1.001
REMARK UNBOUND:                -1.182
REMARK  Name = 
REMARK  9 active torsions:
REMARK  status: ('A' for Active; 'I' for Inactive)
REMARK    1  A    between atoms: C_1  and  C_2
REMARK    2  A    between atoms: C_2  and  C_3
REMARK    3  A    between atoms: C_2  and  C_4
REMARK    4  A    between atoms: C_2  and  C_15
REMARK    5  A    between atoms: C_4  and  O_5
REMARK    6  A    between atoms: O_5  and  C_6
REMARK    7  A    between atoms: C_9  and  C_10
REMARK    8  A    between atoms: C_20  and  O_21
REMARK    9  A    between atoms: O_21  and  C_22
REMARK                            x       y       z     vdW  Elec       q    Type
REMARK                         _______ _______ _______ _____ _____    ______ ____
ROOT
ATOM      1  C   UNL     1      51.075   8.377  13.376  0.00  0.00    +0.000 C 
ATOM      2  C   UNL     1      49.720   7.860  13.915  0.00  0.00    +0.000 C 
ATOM      3  C   UNL     1      48.801   9.095  14.072  0.00  0.00    +0.000 C 
ENDROOT
BRANCH   2   4
ATOM      4  C   UNL     1      49.976   7.103  15.238  0.00  0.00    +0.000 A 
ATOM      5  C   UNL     1      51.234   7.183  15.868  0.00  0.00    +0.000 A 
ATOM      6  C   UNL     1      51.467   6.579  17.106  0.00  0.00    +0.000 A 
ATOM      7  C   UNL     1      50.451   5.867  17.732  0.00  0.00    +0.000 A 
ATOM      8  F   UNL     1      50.703   5.336  18.937  0.00  0.00    +0.000 F 
ATOM      9  C   UNL     1      49.210   5.729  17.121  0.00  0.00    +0.000 A 
ATOM     10  C   UNL     1      48.979   6.350  15.885  0.00  0.00    +0.000 A 
BRANCH   9  11
ATOM     11  O   UNL     1      48.127   5.059  17.638  0.00  0.00    +0.000 OA
BRANCH  11  12
ATOM     12  C   UNL     1      48.047   3.625  17.472  0.00  0.00    +0.000 C 
ATOM     13  C   UNL     1      49.354   2.843  17.280  0.00  0.00    +0.000 C 
ATOM     14  O   UNL     1      48.893   2.279  16.029  0.00  0.00    +0.000 OA
ATOM     15  C   UNL     1      47.742   3.154  16.043  0.00  0.00    +0.000 C 
ENDBRANCH  11  12
ENDBRANCH   9  11
ENDBRANCH   2   4
BRANCH   2  16
ATOM     16  C   UNL     1      49.070   6.898  12.881  0.00  0.00    +0.000 C 
BRANCH  16  17
ATOM     17  O   UNL     1      47.822   7.420  12.395  0.00  0.00    +0.000 OA
BRANCH  17  18
ATOM     18  C   UNL     1      46.882   6.429  12.201  0.00  0.00    +0.000 A 
ATOM     19  C   UNL     1      46.720   5.495  13.211  0.00  0.00    +0.000 A 
ATOM     20  C   UNL     1      45.756   4.498  13.041  0.00  0.00    +0.000 A 
ATOM     21  C   UNL     1      44.985   4.467  11.874  0.00  0.00    +0.000 A 
ATOM     22  C   UNL     1      45.234   5.445  10.923  0.00  0.00    +0.000 A 
ATOM     23  N   UNL     1      46.161   6.422  11.060  0.00  0.00    +0.000 NA
BRANCH  21  24
ATOM     24  C   UNL     1      43.955   3.416  11.703  0.00  0.00    +0.000 C 
ATOM     25  N   UNL     1      43.864   2.418  12.637  0.00  0.00    +0.000 N 
ATOM     26  O   UNL     1      43.196   3.425  10.741  0.00  0.00    +0.000 OA
ATOM     27  H   UNL     1      44.438   2.301  13.455  0.00  0.00    +0.000 HD
ATOM     28  H   UNL     1      43.152   1.717  12.473  0.00  0.00    +0.000 HD
ENDBRANCH  21  24
ENDBRANCH  17  18
ENDBRANCH  16  17
ENDBRANCH   2  16
TORSDOF 7
ENDMDL
