MODEL 1
REMARK VINA RESULT:    -8.503      0.000      0.000
REMARK INTER + INTRA:         -12.310
REMARK INTER:                 -11.485
REMARK INTRA:                  -0.825
REMARK UNBOUND:                -0.825
REMARK  Name = 
REMARK  6 active torsions:
REMARK  status: ('A' for Active; 'I' for Inactive)
REMARK    1  A    between atoms: C_2  and  C_25
REMARK    2  A    between atoms: N_3  and  C_4
REMARK    3  A    between atoms: C_4  and  C_5
REMARK    4  A    between atoms: C_9  and  C_10
REMARK    5  A    between atoms: C_10  and  N_11
REMARK    6  A    between atoms: C_12  and  C_14
REMARK                            x       y       z     vdW  Elec       q    Type
REMARK                         _______ _______ _______ _____ _____    ______ ____
ROOT
ATOM      1  C   UNL     1      44.852   5.436  11.050  0.00  0.00    +0.000 A 
ATOM      2  C   UNL     1      45.270   6.772  11.093  0.00  0.00    +0.000 A 
ATOM      3  C   UNL     1      45.969   7.260  12.197  0.00  0.00    +0.000 A 
ATOM      4  C   UNL     1      46.225   6.429  13.288  0.00  0.00    +0.000 A 
ATOM      5  C   UNL     1      45.770   5.105  13.293  0.00  0.00    +0.000 A 
ATOM      6  C   UNL     1      45.111   4.608  12.156  0.00  0.00    +0.000 A 
ENDROOT
BRANCH   1   7
ATOM      7  C   UNL     1      44.113   4.913   9.848  0.00  0.00    +0.000 C 
BRANCH   7  10
ATOM      8  O   UNL     1      44.907   2.261   9.441  0.00  0.00    +0.000 OA
ATOM      9  C   UNL     1      45.323   3.130   8.680  0.00  0.00    +0.000 C 
ATOM     10  N   UNL     1      45.003   4.464   8.806  0.00  0.00    +0.000 N 
ATOM     11  H   UNL     1      45.401   5.120   8.139  0.00  0.00    +0.000 HD
BRANCH   9  12
ATOM     12  C   UNL     1      46.220   2.780   7.542  0.00  0.00    +0.000 A 
ATOM     13  C   UNL     1      46.931   1.587   7.573  0.00  0.00    +0.000 A 
ATOM     14  N   UNL     1      47.747   1.200   6.559  0.00  0.00    +0.000 NA
ATOM     15  C   UNL     1      47.817   2.058   5.515  0.00  0.00    +0.000 A 
ATOM     16  C   UNL     1      47.109   3.253   5.487  0.00  0.00    +0.000 A 
ATOM     17  N   UNL     1      46.294   3.651   6.495  0.00  0.00    +0.000 NA
ENDBRANCH   9  12
ENDBRANCH   7  10
ENDBRANCH   1   7
BRANCH   5  18
ATOM     18  C   UNL     1      45.963   4.242  14.514  0.00  0.00    +0.000 C 
BRANCH  18  19
ATOM     19  N   UNL     1      47.168   4.560  15.235  0.00  0.00    +0.000 N 
ATOM     20  C   UNL     1      47.375   4.050  16.494  0.00  0.00    +0.000 C 
ATOM     21  O   UNL     1      46.585   3.266  17.013  0.00  0.00    +0.000 OA
ATOM     22  H   UNL     1      47.685   5.383  14.938  0.00  0.00    +0.000 HD
BRANCH  20  23
ATOM     23  C   UNL     1      48.619   4.436  17.171  0.00  0.00    +0.000 A 
ATOM     24  C   UNL     1      48.728   5.702  17.731  0.00  0.00    +0.000 A 
ATOM     25  S   UNL     1      50.213   5.973  18.525  0.00  0.00    +0.000 S 
ATOM     26  C   UNL     1      50.783   4.428  18.103  0.00  0.00    +0.000 A 
ATOM     27  N   UNL     1      52.030   4.021  18.463  0.00  0.00    +0.000 NA
ATOM     28  C   UNL     1      52.343   2.838  18.052  0.00  0.00    +0.000 A 
ATOM     29  N   UNL     1      51.522   2.023  17.316  0.00  0.00    +0.000 N 
ATOM     30  C   UNL     1      50.248   2.384  16.944  0.00  0.00    +0.000 A 
ATOM     31  O   UNL     1      49.530   1.622  16.306  0.00  0.00    +0.000 OA
ATOM     32  C   UNL     1      49.848   3.708  17.379  0.00  0.00    +0.000 A 
ATOM     33  H   UNL     1      51.827   1.105  17.027  0.00  0.00    +0.000 HD
ENDBRANCH  20  23
ENDBRANCH  18  19
ENDBRANCH   5  18
TORSDOF 6
ENDMDL
MODEL 2
REMARK VINA RESULT:    -8.323      2.005      2.871
REMARK INTER + INTRA:         -12.066
REMARK INTER:                 -10.932
REMARK INTRA:                  -1.135
REMARK UNBOUND:                -0.825
REMARK  Name = 
REMARK  6 active torsions:
REMARK  status: ('A' for Active; 'I' for Inactive)
REMARK    1  A    between atoms: C_2  and  C_25
REMARK    2  A    between atoms: N_3  and  C_4
REMARK    3  A    between atoms: C_4  and  C_5
REMARK    4  A    between atoms: C_9  and  C_10
REMARK    5  A    between atoms: C_10  and  N_11
REMARK    6  A    between atoms: C_12  and  C_14
REMARK                            x       y       z     vdW  Elec       q    Type
REMARK                         _______ _______ _______ _____ _____    ______ ____
ROOT
ATOM      1  C   UNL     1      45.108   6.389  11.211  0.00  0.00    +0.000 A 
ATOM      2  C   UNL     1      44.410   7.578  11.458  0.00  0.00    +0.000 A 
ATOM      3  C   UNL     1      45.077   8.703  11.943  0.00  0.00    +0.000 A 
ATOM      4  C   UNL     1      46.443   8.641  12.223  0.00  0.00    +0.000 A 
ATOM      5  C   UNL     1      47.153   7.449  12.036  0.00  0.00    +0.000 A 
ATOM      6  C   UNL     1      46.483   6.336  11.499  0.00  0.00    +0.000 A 
ENDROOT
BRANCH   1   7
ATOM      7  C   UNL     1      44.384   5.186  10.671  0.00  0.00    +0.000 C 
BRANCH   7  10
ATOM      8  O   UNL     1      43.989   2.520   9.916  0.00  0.00    +0.000 OA
ATOM      9  C   UNL     1      44.865   3.174   9.357  0.00  0.00    +0.000 C 
ATOM     10  N   UNL     1      45.147   4.486   9.668  0.00  0.00    +0.000 N 
ATOM     11  H   UNL     1      45.898   4.949   9.164  0.00  0.00    +0.000 HD
BRANCH   9  12
ATOM     12  C   UNL     1      45.694   2.568   8.276  0.00  0.00    +0.000 A 
ATOM     13  C   UNL     1      46.034   3.329   7.165  0.00  0.00    +0.000 A 
ATOM     14  N   UNL     1      46.805   2.843   6.158  0.00  0.00    +0.000 NA
ATOM     15  C   UNL     1      47.219   1.565   6.315  0.00  0.00    +0.000 A 
ATOM     16  C   UNL     1      46.875   0.803   7.423  0.00  0.00    +0.000 A 
ATOM     17  N   UNL     1      46.104   1.276   8.433  0.00  0.00    +0.000 NA
ENDBRANCH   9  12
ENDBRANCH   7  10
ENDBRANCH   1   7
BRANCH   5  18
ATOM     18  C   UNL     1      48.604   7.360  12.431  0.00  0.00    +0.000 C 
BRANCH  18  19
ATOM     19  N   UNL     1      48.805   6.610  13.644  0.00  0.00    +0.000 N 
ATOM     20  C   UNL     1      48.877   7.259  14.854  0.00  0.00    +0.000 C 
ATOM     21  O   UNL     1      48.711   8.473  14.949  0.00  0.00    +0.000 OA
ATOM     22  H   UNL     1      49.191   5.675  13.555  0.00  0.00    +0.000 HD
BRANCH  20  23
ATOM     23  C   UNL     1      49.103   6.427  16.042  0.00  0.00    +0.000 A 
ATOM     24  C   UNL     1      50.097   6.779  16.945  0.00  0.00    +0.000 A 
ATOM     25  S   UNL     1      50.195   5.741  18.294  0.00  0.00    +0.000 S 
ATOM     26  C   UNL     1      48.947   4.754  17.693  0.00  0.00    +0.000 A 
ATOM     27  N   UNL     1      48.544   3.647  18.373  0.00  0.00    +0.000 NA
ATOM     28  C   UNL     1      47.610   2.974  17.788  0.00  0.00    +0.000 A 
ATOM     29  N   UNL     1      47.039   3.310  16.587  0.00  0.00    +0.000 N 
ATOM     30  C   UNL     1      47.402   4.429  15.874  0.00  0.00    +0.000 A 
ATOM     31  O   UNL     1      46.855   4.714  14.814  0.00  0.00    +0.000 OA
ATOM     32  C   UNL     1      48.452   5.218  16.487  0.00  0.00    +0.000 A 
ATOM     33  H   UNL     1      46.309   2.741  16.184  0.00  0.00    +0.000 HD
ENDBRANCH  20  23
ENDBRANCH  18  19
ENDBRANCH   5  18
TORSDOF 6
ENDMDL
MODEL 3
REMARK VINA RESULT:    -7.652      2.637      3.401
REMARK INTER + INTRA:         -11.161
REMARK INTER:                 -10.288
REMARK INTRA:                  -0.873
REMARK UNBOUND:                -0.825
REMARK  Name = 
REMARK  6 active torsions:
REMARK  status: ('A' for Active; 'I' for Inactive)
REMARK    1  A    between atoms: C_2  and  C_25
REMARK    2  A    between atoms: N_3  and  C_4
REMARK    3  A    between atoms: C_4  and  C_5
REMARK    4  A    between atoms: C_9  and  C_10
REMARK    5  A    between atoms: C_10  and  N_11
REMARK    6  A    between atoms: C_12  and  C_14
REMARK                            x       y       z     vdW  Elec       q    Type
REMARK                         _______ _______ _______ _____ _____    ______ ____
ROOT
ATOM      1  C   UNL     1      44.899   7.828  11.779  0.00  0.00    +0.000 A 
ATOM      2  C   UNL     1      44.509   9.085  11.301  0.00  0.00    +0.000 A 
ATOM      3  C   UNL     1      45.253  10.223  11.612  0.00  0.00    +0.000 A 
ATOM      4  C   UNL     1      46.374  10.123  12.436  0.00  0.00    +0.000 A 
ATOM      5  C   UNL     1      46.754   8.886  12.972  0.00  0.00    +0.000 A 
ATOM      6  C   UNL     1      46.028   7.739  12.612  0.00  0.00    +0.000 A 
ENDROOT
BRANCH   1   7
ATOM      7  C   UNL     1      44.100   6.603  11.425  0.00  0.00    +0.000 C 
BRANCH   7  10
ATOM      8  O   UNL     1      43.227   4.063  10.641  0.00  0.00    +0.000 OA
ATOM      9  C   UNL     1      44.285   4.494  10.190  0.00  0.00    +0.000 C 
ATOM     10  N   UNL     1      44.807   5.724  10.527  0.00  0.00    +0.000 N 
ATOM     11  H   UNL     1      45.695   5.998  10.117  0.00  0.00    +0.000 HD
BRANCH   9  12
ATOM     12  C   UNL     1      45.085   3.690   9.223  0.00  0.00    +0.000 A 
ATOM     13  C   UNL     1      45.166   2.313   9.381  0.00  0.00    +0.000 A 
ATOM     14  N   UNL     1      45.860   1.521   8.522  0.00  0.00    +0.000 NA
ATOM     15  C   UNL     1      46.464   2.170   7.501  0.00  0.00    +0.000 A 
ATOM     16  C   UNL     1      46.387   3.548   7.346  0.00  0.00    +0.000 A 
ATOM     17  N   UNL     1      45.700   4.348   8.198  0.00  0.00    +0.000 NA
ENDBRANCH   9  12
ENDBRANCH   7  10
ENDBRANCH   1   7
BRANCH   5  18
ATOM     18  C   UNL     1      47.906   8.800  13.939  0.00  0.00    +0.000 C 
BRANCH  18  19
ATOM     19  N   UNL     1      47.721   7.778  14.936  0.00  0.00    +0.000 N 
ATOM     20  C   UNL     1      48.671   6.798  15.105  0.00  0.00    +0.000 C 
ATOM     21  O   UNL     1      49.722   6.798  14.469  0.00  0.00    +0.000 OA
ATOM     22  H   UNL     1      46.776   7.620  15.272  0.00  0.00    +0.000 HD
BRANCH  20  23
ATOM     23  C   UNL     1      48.400   5.781  16.128  0.00  0.00    +0.000 A 
ATOM     24  C   UNL     1      47.630   4.671  15.802  0.00  0.00    +0.000 A 
ATOM     25  S   UNL     1      47.455   3.560  17.084  0.00  0.00    +0.000 S 
ATOM     26  C   UNL     1      48.356   4.548  18.135  0.00  0.00    +0.000 A 
ATOM     27  N   UNL     1      48.568   4.181  19.427  0.00  0.00    +0.000 NA
ATOM     28  C   UNL     1      49.243   5.037  20.120  0.00  0.00    +0.000 A 
ATOM     29  N   UNL     1      49.729   6.224  19.636  0.00  0.00    +0.000 N 
ATOM     30  C   UNL     1      49.556   6.628  18.333  0.00  0.00    +0.000 A 
ATOM     31  O   UNL     1      50.024   7.685  17.926  0.00  0.00    +0.000 OA
ATOM     32  C   UNL     1      48.799   5.702  17.513  0.00  0.00    +0.000 A 
ATOM     33  H   UNL     1      50.253   6.849  20.231  0.00  0.00    +0.000 HD
ENDBRANCH  20  23
ENDBRANCH  18  19
ENDBRANCH   5  18
TORSDOF 6
ENDMDL
MODEL 4
REMARK VINA RESULT:    -7.511      3.905      9.180
REMARK INTER + INTRA:         -10.970
REMARK INTER:                  -9.910
REMARK INTRA:                  -1.060
REMARK UNBOUND:                -0.825
REMARK  Name = 
REMARK  6 active torsions:
REMARK  status: ('A' for Active; 'I' for Inactive)
REMARK    1  A    between atoms: C_2  and  C_25
REMARK    2  A    between atoms: N_3  and  C_4
REMARK    3  A    between atoms: C_4  and  C_5
REMARK    4  A    between atoms: C_9  and  C_10
REMARK    5  A    between atoms: C_10  and  N_11
REMARK    6  A    between atoms: C_12  and  C_14
REMARK                            x       y       z     vdW  Elec       q    Type
REMARK                         _______ _______ _______ _____ _____    ______ ____
ROOT
ATOM      1  C   UNL     1      48.867   5.018  17.540  0.00  0.00    +0.000 A 
ATOM      2  C   UNL     1      49.206   6.008  18.471  0.00  0.00    +0.000 A 
ATOM      3  C   UNL     1      49.198   7.354  18.108  0.00  0.00    +0.000 A 
ATOM      4  C   UNL     1      48.888   7.725  16.799  0.00  0.00    +0.000 A 
ATOM      5  C   UNL     1      48.599   6.752  15.835  0.00  0.00    +0.000 A 
ATOM      6  C   UNL     1      48.560   5.402  16.223  0.00  0.00    +0.000 A 
ENDROOT
BRANCH   1   7
ATOM      7  C   UNL     1      48.861   3.569  17.944  0.00  0.00    +0.000 C 
BRANCH   7  10
ATOM      8  O   UNL     1      50.340   1.794  16.365  0.00  0.00    +0.000 OA
ATOM      9  C   UNL     1      50.833   2.216  17.408  0.00  0.00    +0.000 C 
ATOM     10  N   UNL     1      50.180   3.079  18.260  0.00  0.00    +0.000 N 
ATOM     11  H   UNL     1      50.657   3.370  19.110  0.00  0.00    +0.000 HD
BRANCH   9  12
ATOM     12  C   UNL     1      52.207   1.809  17.820  0.00  0.00    +0.000 A 
ATOM     13  C   UNL     1      52.679   0.549  17.477  0.00  0.00    +0.000 A 
ATOM     14  N   UNL     1      53.928   0.126  17.802  0.00  0.00    +0.000 NA
ATOM     15  C   UNL     1      54.680   1.021  18.483  0.00  0.00    +0.000 A 
ATOM     16  C   UNL     1      54.206   2.279  18.830  0.00  0.00    +0.000 A 
ATOM     17  N   UNL     1      52.960   2.710  18.513  0.00  0.00    +0.000 NA
ENDBRANCH   9  12
ENDBRANCH   7  10
ENDBRANCH   1   7
BRANCH   5  18
ATOM     18  C   UNL     1      48.362   7.151  14.401  0.00  0.00    +0.000 C 
BRANCH  18  19
ATOM     19  N   UNL     1      47.106   6.666  13.889  0.00  0.00    +0.000 N 
ATOM     20  C   UNL     1      46.852   6.699  12.539  0.00  0.00    +0.000 C 
ATOM     21  O   UNL     1      47.696   7.076  11.730  0.00  0.00    +0.000 OA
ATOM     22  H   UNL     1      46.331   6.600  14.542  0.00  0.00    +0.000 HD
BRANCH  20  23
ATOM     23  C   UNL     1      45.542   6.205  12.098  0.00  0.00    +0.000 A 
ATOM     24  C   UNL     1      44.630   7.090  11.538  0.00  0.00    +0.000 A 
ATOM     25  S   UNL     1      43.180   6.349  11.030  0.00  0.00    +0.000 S 
ATOM     26  C   UNL     1      43.699   4.828  11.588  0.00  0.00    +0.000 A 
ATOM     27  N   UNL     1      42.899   3.734  11.477  0.00  0.00    +0.000 NA
ATOM     28  C   UNL     1      43.406   2.652  11.968  0.00  0.00    +0.000 A 
ATOM     29  N   UNL     1      44.642   2.565  12.556  0.00  0.00    +0.000 N 
ATOM     30  C   UNL     1      45.491   3.639  12.674  0.00  0.00    +0.000 A 
ATOM     31  O   UNL     1      46.600   3.522  13.184  0.00  0.00    +0.000 OA
ATOM     32  C   UNL     1      44.967   4.881  12.141  0.00  0.00    +0.000 A 
ATOM     33  H   UNL     1      44.981   1.686  12.919  0.00  0.00    +0.000 HD
ENDBRANCH  20  23
ENDBRANCH  18  19
ENDBRANCH   5  18
TORSDOF 6
ENDMDL
MODEL 5
REMARK VINA RESULT:    -7.499      3.850      8.553
REMARK INTER + INTRA:         -10.954
REMARK INTER:                  -9.742
REMARK INTRA:                  -1.212
REMARK UNBOUND:                -0.825
REMARK  Name = 
REMARK  6 active torsions:
REMARK  status: ('A' for Active; 'I' for Inactive)
REMARK    1  A    between atoms: C_2  and  C_25
REMARK    2  A    between atoms: N_3  and  C_4
REMARK    3  A    between atoms: C_4  and  C_5
REMARK    4  A    between atoms: C_9  and  C_10
REMARK    5  A    between atoms: C_10  and  N_11
REMARK    6  A    between atoms: C_12  and  C_14
REMARK                            x       y       z     vdW  Elec       q    Type
REMARK                         _______ _______ _______ _____ _____    ______ ____
ROOT
ATOM      1  C   UNL     1      47.718   8.043  19.088  0.00  0.00    +0.000 A 
ATOM      2  C   UNL     1      47.753   9.210  19.862  0.00  0.00    +0.000 A 
ATOM      3  C   UNL     1      47.920  10.456  19.258  0.00  0.00    +0.000 A 
ATOM      4  C   UNL     1      48.093  10.547  17.877  0.00  0.00    +0.000 A 
ATOM      5  C   UNL     1      48.117   9.391  17.087  0.00  0.00    +0.000 A 
ATOM      6  C   UNL     1      47.897   8.145  17.699  0.00  0.00    +0.000 A 
ENDROOT
BRANCH   1   7
ATOM      7  C   UNL     1      47.521   6.705  19.747  0.00  0.00    +0.000 C 
BRANCH   7  10
ATOM      8  O   UNL     1      46.749   4.658  18.002  0.00  0.00    +0.000 OA
ATOM      9  C   UNL     1      47.925   4.733  18.348  0.00  0.00    +0.000 C 
ATOM     10  N   UNL     1      48.400   5.693  19.215  0.00  0.00    +0.000 N 
ATOM     11  H   UNL     1      49.386   5.675  19.460  0.00  0.00    +0.000 HD
BRANCH   9  12
ATOM     12  C   UNL     1      48.934   3.764  17.833  0.00  0.00    +0.000 A 
ATOM     13  C   UNL     1      48.539   2.773  16.944  0.00  0.00    +0.000 A 
ATOM     14  N   UNL     1      49.413   1.875  16.421  0.00  0.00    +0.000 NA
ATOM     15  C   UNL     1      50.695   2.014  16.828  0.00  0.00    +0.000 A 
ATOM     16  C   UNL     1      51.089   3.002  17.721  0.00  0.00    +0.000 A 
ATOM     17  N   UNL     1      50.225   3.902  18.251  0.00  0.00    +0.000 NA
ENDBRANCH   9  12
ENDBRANCH   7  10
ENDBRANCH   1   7
BRANCH   5  18
ATOM     18  C   UNL     1      48.402   9.488  15.610  0.00  0.00    +0.000 C 
BRANCH  18  19
ATOM     19  N   UNL     1      47.403   8.832  14.807  0.00  0.00    +0.000 N 
ATOM     20  C   UNL     1      47.773   7.892  13.875  0.00  0.00    +0.000 C 
ATOM     21  O   UNL     1      48.941   7.536  13.743  0.00  0.00    +0.000 OA
ATOM     22  H   UNL     1      46.499   9.288  14.725  0.00  0.00    +0.000 HD
BRANCH  20  23
ATOM     23  C   UNL     1      46.698   7.283  13.082  0.00  0.00    +0.000 A 
ATOM     24  C   UNL     1      45.884   8.091  12.299  0.00  0.00    +0.000 A 
ATOM     25  S   UNL     1      44.721   7.226  11.401  0.00  0.00    +0.000 S 
ATOM     26  C   UNL     1      45.229   5.746  12.068  0.00  0.00    +0.000 A 
ATOM     27  N   UNL     1      44.615   4.581  11.729  0.00  0.00    +0.000 NA
ATOM     28  C   UNL     1      45.082   3.538  12.332  0.00  0.00    +0.000 A 
ATOM     29  N   UNL     1      46.110   3.555  13.240  0.00  0.00    +0.000 N 
ATOM     30  C   UNL     1      46.771   4.706  13.599  0.00  0.00    +0.000 A 
ATOM     31  O   UNL     1      47.702   4.683  14.396  0.00  0.00    +0.000 OA
ATOM     32  C   UNL     1      46.281   5.907  12.952  0.00  0.00    +0.000 A 
ATOM     33  H   UNL     1      46.430   2.702  13.674  0.00  0.00    +0.000 HD
ENDBRANCH  20  23
ENDBRANCH  18  19
ENDBRANCH   5  18
TORSDOF 6
ENDMDL
MODEL 6
REMARK VINA RESULT:    -7.286      4.025      7.188
REMARK INTER + INTRA:         -10.666
REMARK INTER:                  -8.585
REMARK INTRA:                  -2.082
REMARK UNBOUND:                -0.825
REMARK  Name = 
REMARK  6 active torsions:
REMARK  status: ('A' for Active; 'I' for Inactive)
REMARK    1  A    between atoms: C_2  and  C_25
REMARK    2  A    between atoms: N_3  and  C_4
REMARK    3  A    between atoms: C_4  and  C_5
REMARK    4  A    between atoms: C_9  and  C_10
REMARK    5  A    between atoms: C_10  and  N_11
REMARK    6  A    between atoms: C_12  and  C_14
REMARK                            x       y       z     vdW  Elec       q    Type
REMARK                         _______ _______ _______ _____ _____    ______ ____
ROOT
ATOM      1  C   UNL     1      46.007   4.679  12.923  0.00  0.00    +0.000 A 
ATOM      2  C   UNL     1      45.230   4.302  11.820  0.00  0.00    +0.000 A 
ATOM      3  C   UNL     1      44.635   5.268  11.009  0.00  0.00    +0.000 A 
ATOM      4  C   UNL     1      44.778   6.622  11.313  0.00  0.00    +0.000 A 
ATOM      5  C   UNL     1      45.504   7.024  12.441  0.00  0.00    +0.000 A 
ATOM      6  C   UNL     1      46.142   6.046  13.222  0.00  0.00    +0.000 A 
ENDROOT
BRANCH   1   7
ATOM      7  C   UNL     1      46.660   3.631  13.783  0.00  0.00    +0.000 C 
BRANCH   7  10
ATOM      8  O   UNL     1      48.467   2.415  15.540  0.00  0.00    +0.000 OA
ATOM      9  C   UNL     1      47.920   3.462  15.878  0.00  0.00    +0.000 C 
ATOM     10  N   UNL     1      47.005   4.127  15.092  0.00  0.00    +0.000 N 
ATOM     11  H   UNL     1      46.590   4.981  15.454  0.00  0.00    +0.000 HD
BRANCH   9  12
ATOM     12  C   UNL     1      48.227   4.090  17.194  0.00  0.00    +0.000 A 
ATOM     13  C   UNL     1      47.248   4.833  17.843  0.00  0.00    +0.000 A 
ATOM     14  N   UNL     1      47.457   5.411  19.054  0.00  0.00    +0.000 NA
ATOM     15  C   UNL     1      48.685   5.212  19.583  0.00  0.00    +0.000 A 
ATOM     16  C   UNL     1      49.665   4.474  18.932  0.00  0.00    +0.000 A 
ATOM     17  N   UNL     1      49.469   3.895  17.723  0.00  0.00    +0.000 NA
ENDBRANCH   9  12
ENDBRANCH   7  10
ENDBRANCH   1   7
BRANCH   5  18
ATOM     18  C   UNL     1      45.572   8.481  12.819  0.00  0.00    +0.000 C 
BRANCH  18  19
ATOM     19  N   UNL     1      46.571   8.750  13.820  0.00  0.00    +0.000 N 
ATOM     20  C   UNL     1      47.775   9.309  13.463  0.00  0.00    +0.000 C 
ATOM     21  O   UNL     1      48.011   9.653  12.307  0.00  0.00    +0.000 OA
ATOM     22  H   UNL     1      46.495   8.249  14.700  0.00  0.00    +0.000 HD
BRANCH  20  23
ATOM     23  C   UNL     1      48.748   9.534  14.538  0.00  0.00    +0.000 A 
ATOM     24  C   UNL     1      49.044  10.832  14.933  0.00  0.00    +0.000 A 
ATOM     25  S   UNL     1      50.151  10.919  16.227  0.00  0.00    +0.000 S 
ATOM     26  C   UNL     1      50.315   9.227  16.271  0.00  0.00    +0.000 A 
ATOM     27  N   UNL     1      51.154   8.630  17.159  0.00  0.00    +0.000 NA
ATOM     28  C   UNL     1      51.203   7.343  17.063  0.00  0.00    +0.000 A 
ATOM     29  N   UNL     1      50.486   6.598  16.161  0.00  0.00    +0.000 N 
ATOM     30  C   UNL     1      49.613   7.157  15.257  0.00  0.00    +0.000 A 
ATOM     31  O   UNL     1      48.969   6.461  14.480  0.00  0.00    +0.000 OA
ATOM     32  C   UNL     1      49.524   8.602  15.322  0.00  0.00    +0.000 A 
ATOM     33  H   UNL     1      50.568   5.593  16.140  0.00  0.00    +0.000 HD
ENDBRANCH  20  23
ENDBRANCH  18  19
ENDBRANCH   5  18
TORSDOF 6
ENDMDL
MODEL 7
REMARK VINA RESULT:    -7.255      4.190      8.549
REMARK INTER + INTRA:         -10.624
REMARK INTER:                  -9.274
REMARK INTRA:                  -1.349
REMARK UNBOUND:                -0.825
REMARK  Name = 
REMARK  6 active torsions:
REMARK  status: ('A' for Active; 'I' for Inactive)
REMARK    1  A    between atoms: C_2  and  C_25
REMARK    2  A    between atoms: N_3  and  C_4
REMARK    3  A    between atoms: C_4  and  C_5
REMARK    4  A    between atoms: C_9  and  C_10
REMARK    5  A    between atoms: C_10  and  N_11
REMARK    6  A    between atoms: C_12  and  C_14
REMARK                            x       y       z     vdW  Elec       q    Type
REMARK                         _______ _______ _______ _____ _____    ______ ____
ROOT
ATOM      1  C   UNL     1      50.626   5.354  17.385  0.00  0.00    +0.000 A 
ATOM      2  C   UNL     1      51.435   4.274  17.758  0.00  0.00    +0.000 A 
ATOM      3  C   UNL     1      50.942   2.970  17.711  0.00  0.00    +0.000 A 
ATOM      4  C   UNL     1      49.622   2.734  17.326  0.00  0.00    +0.000 A 
ATOM      5  C   UNL     1      48.775   3.801  17.001  0.00  0.00    +0.000 A 
ATOM      6  C   UNL     1      49.296   5.106  17.003  0.00  0.00    +0.000 A 
ENDROOT
BRANCH   1   7
ATOM      7  C   UNL     1      51.171   6.757  17.422  0.00  0.00    +0.000 C 
BRANCH   7  10
ATOM      8  O   UNL     1      52.232   7.658  14.995  0.00  0.00    +0.000 OA
ATOM      9  C   UNL     1      51.101   8.012  15.319  0.00  0.00    +0.000 C 
ATOM     10  N   UNL     1      50.498   7.635  16.499  0.00  0.00    +0.000 N 
ATOM     11  H   UNL     1      49.563   7.984  16.694  0.00  0.00    +0.000 HD
BRANCH   9  12
ATOM     12  C   UNL     1      50.293   8.891  14.426  0.00  0.00    +0.000 A 
ATOM     13  C   UNL     1      49.603   9.968  14.967  0.00  0.00    +0.000 A 
ATOM     14  N   UNL     1      48.868  10.818  14.205  0.00  0.00    +0.000 NA
ATOM     15  C   UNL     1      48.857  10.543  12.881  0.00  0.00    +0.000 A 
ATOM     16  C   UNL     1      49.543   9.463  12.341  0.00  0.00    +0.000 A 
ATOM     17  N   UNL     1      50.277   8.606  13.092  0.00  0.00    +0.000 NA
ENDBRANCH   9  12
ENDBRANCH   7  10
ENDBRANCH   1   7
BRANCH   5  18
ATOM     18  C   UNL     1      47.325   3.548  16.682  0.00  0.00    +0.000 C 
BRANCH  18  19
ATOM     19  N   UNL     1      46.787   4.498  15.743  0.00  0.00    +0.000 N 
ATOM     20  C   UNL     1      46.841   4.242  14.394  0.00  0.00    +0.000 C 
ATOM     21  O   UNL     1      47.281   3.184  13.953  0.00  0.00    +0.000 OA
ATOM     22  H   UNL     1      46.665   5.453  16.066  0.00  0.00    +0.000 HD
BRANCH  20  23
ATOM     23  C   UNL     1      46.290   5.268  13.500  0.00  0.00    +0.000 A 
ATOM     24  C   UNL     1      47.056   6.381  13.182  0.00  0.00    +0.000 A 
ATOM     25  S   UNL     1      46.293   7.449  12.094  0.00  0.00    +0.000 S 
ATOM     26  C   UNL     1      44.890   6.488  12.050  0.00  0.00    +0.000 A 
ATOM     27  N   UNL     1      43.814   6.857  11.305  0.00  0.00    +0.000 NA
ATOM     28  C   UNL     1      42.808   6.052  11.387  0.00  0.00    +0.000 A 
ATOM     29  N   UNL     1      42.782   4.908  12.144  0.00  0.00    +0.000 N 
ATOM     30  C   UNL     1      43.852   4.486  12.898  0.00  0.00    +0.000 A 
ATOM     31  O   UNL     1      43.805   3.446  13.545  0.00  0.00    +0.000 OA
ATOM     32  C   UNL     1      45.007   5.360  12.843  0.00  0.00    +0.000 A 
ATOM     33  H   UNL     1      41.963   4.319  12.162  0.00  0.00    +0.000 HD
ENDBRANCH  20  23
ENDBRANCH  18  19
ENDBRANCH   5  18
TORSDOF 6
ENDMDL
MODEL 8
REMARK VINA RESULT:    -7.194      4.103      9.895
REMARK INTER + INTRA:         -10.541
REMARK INTER:                  -9.445
REMARK INTRA:                  -1.096
REMARK UNBOUND:                -0.825
REMARK  Name = 
REMARK  6 active torsions:
REMARK  status: ('A' for Active; 'I' for Inactive)
REMARK    1  A    between atoms: C_2  and  C_25
REMARK    2  A    between atoms: N_3  and  C_4
REMARK    3  A    between atoms: C_4  and  C_5
REMARK    4  A    between atoms: C_9  and  C_10
REMARK    5  A    between atoms: C_10  and  N_11
REMARK    6  A    between atoms: C_12  and  C_14
REMARK                            x       y       z     vdW  Elec       q    Type
REMARK                         _______ _______ _______ _____ _____    ______ ____
ROOT
ATOM      1  C   UNL     1      50.689   4.866  17.802  0.00  0.00    +0.000 A 
ATOM      2  C   UNL     1      51.499   3.723  17.778  0.00  0.00    +0.000 A 
ATOM      3  C   UNL     1      50.979   2.495  17.371  0.00  0.00    +0.000 A 
ATOM      4  C   UNL     1      49.633   2.386  17.021  0.00  0.00    +0.000 A 
ATOM      5  C   UNL     1      48.789   3.500  17.089  0.00  0.00    +0.000 A 
ATOM      6  C   UNL     1      49.334   4.744  17.451  0.00  0.00    +0.000 A 
ENDROOT
BRANCH   1   7
ATOM      7  C   UNL     1      51.263   6.191  18.225  0.00  0.00    +0.000 C 
BRANCH   7  10
ATOM      8  O   UNL     1      50.691   8.709  17.147  0.00  0.00    +0.000 OA
ATOM      9  C   UNL     1      50.040   8.311  18.109  0.00  0.00    +0.000 C 
ATOM     10  N   UNL     1      50.255   7.096  18.720  0.00  0.00    +0.000 N 
ATOM     11  H   UNL     1      49.678   6.849  19.520  0.00  0.00    +0.000 HD
BRANCH   9  12
ATOM     12  C   UNL     1      48.946   9.145  18.685  0.00  0.00    +0.000 A 
ATOM     13  C   UNL     1      48.410  10.184  17.935  0.00  0.00    +0.000 A 
ATOM     14  N   UNL     1      47.397  10.965  18.392  0.00  0.00    +0.000 NA
ATOM     15  C   UNL     1      46.947  10.657  19.630  0.00  0.00    +0.000 A 
ATOM     16  C   UNL     1      47.486   9.621  20.381  0.00  0.00    +0.000 A 
ATOM     17  N   UNL     1      48.498   8.837  19.936  0.00  0.00    +0.000 NA
ENDBRANCH   9  12
ENDBRANCH   7  10
ENDBRANCH   1   7
BRANCH   5  18
ATOM     18  C   UNL     1      47.316   3.355  16.805  0.00  0.00    +0.000 C 
BRANCH  18  19
ATOM     19  N   UNL     1      46.820   4.367  15.909  0.00  0.00    +0.000 N 
ATOM     20  C   UNL     1      46.843   4.160  14.551  0.00  0.00    +0.000 C 
ATOM     21  O   UNL     1      47.220   3.097  14.064  0.00  0.00    +0.000 OA
ATOM     22  H   UNL     1      46.753   5.315  16.269  0.00  0.00    +0.000 HD
BRANCH  20  23
ATOM     23  C   UNL     1      46.337   5.248  13.704  0.00  0.00    +0.000 A 
ATOM     24  C   UNL     1      47.081   6.413  13.570  0.00  0.00    +0.000 A 
ATOM     25  S   UNL     1      46.382   7.553  12.513  0.00  0.00    +0.000 S 
ATOM     26  C   UNL     1      45.035   6.552  12.237  0.00  0.00    +0.000 A 
ATOM     27  N   UNL     1      44.022   6.953  11.423  0.00  0.00    +0.000 NA
ATOM     28  C   UNL     1      43.050   6.108  11.326  0.00  0.00    +0.000 A 
ATOM     29  N   UNL     1      43.000   4.897  11.968  0.00  0.00    +0.000 N 
ATOM     30  C   UNL     1      44.008   4.442  12.785  0.00  0.00    +0.000 A 
ATOM     31  O   UNL     1      43.944   3.343  13.325  0.00  0.00    +0.000 OA
ATOM     32  C   UNL     1      45.124   5.357  12.930  0.00  0.00    +0.000 A 
ATOM     33  H   UNL     1      42.211   4.281  11.848  0.00  0.00    +0.000 HD
ENDBRANCH  20  23
ENDBRANCH  18  19
ENDBRANCH   5  18
TORSDOF 6
ENDMDL
MODEL 9
REMARK VINA RESULT:    -7.192      3.396      8.843
REMARK INTER + INTRA:         -10.539
REMARK INTER:                  -9.445
REMARK INTRA:                  -1.094
REMARK UNBOUND:                -0.825
REMARK  Name = 
REMARK  6 active torsions:
REMARK  status: ('A' for Active; 'I' for Inactive)
REMARK    1  A    between atoms: C_2  and  C_25
REMARK    2  A    between atoms: N_3  and  C_4
REMARK    3  A    between atoms: C_4  and  C_5
REMARK    4  A    between atoms: C_9  and  C_10
REMARK    5  A    between atoms: C_10  and  N_11
REMARK    6  A    between atoms: C_12  and  C_14
REMARK                            x       y       z     vdW  Elec       q    Type
REMARK                         _______ _______ _______ _____ _____    ______ ____
ROOT
ATOM      1  C   UNL     1      49.915   8.334  13.995  0.00  0.00    +0.000 A 
ATOM      2  C   UNL     1      50.860   8.798  13.071  0.00  0.00    +0.000 A 
ATOM      3  C   UNL     1      50.459   9.251  11.815  0.00  0.00    +0.000 A 
ATOM      4  C   UNL     1      49.113   9.209  11.452  0.00  0.00    +0.000 A 
ATOM      5  C   UNL     1      48.155   8.698  12.336  0.00  0.00    +0.000 A 
ATOM      6  C   UNL     1      48.562   8.292  13.618  0.00  0.00    +0.000 A 
ENDROOT
BRANCH   1   7
ATOM      7  C   UNL     1      50.355   7.863  15.355  0.00  0.00    +0.000 C 
BRANCH   7  10
ATOM      8  O   UNL     1      49.167   7.158  17.789  0.00  0.00    +0.000 OA
ATOM      9  C   UNL     1      49.259   6.311  16.903  0.00  0.00    +0.000 C 
ATOM     10  N   UNL     1      49.841   6.555  15.679  0.00  0.00    +0.000 N 
ATOM     11  H   UNL     1      49.887   5.794  15.008  0.00  0.00    +0.000 HD
BRANCH   9  12
ATOM     12  C   UNL     1      48.729   4.933  17.110  0.00  0.00    +0.000 A 
ATOM     13  C   UNL     1      47.359   4.737  17.229  0.00  0.00    +0.000 A 
ATOM     14  N   UNL     1      46.812   3.506  17.395  0.00  0.00    +0.000 NA
ATOM     15  C   UNL     1      47.696   2.483  17.436  0.00  0.00    +0.000 A 
ATOM     16  C   UNL     1      49.066   2.680  17.322  0.00  0.00    +0.000 A 
ATOM     17  N   UNL     1      49.623   3.904  17.158  0.00  0.00    +0.000 NA
ENDBRANCH   9  12
ENDBRANCH   7  10
ENDBRANCH   1   7
BRANCH   5  18
ATOM     18  C   UNL     1      46.718   8.565  11.903  0.00  0.00    +0.000 C 
BRANCH  18  19
ATOM     19  N   UNL     1      46.307   7.192  11.756  0.00  0.00    +0.000 N 
ATOM     20  C   UNL     1      44.989   6.888  11.510  0.00  0.00    +0.000 C 
ATOM     21  O   UNL     1      44.142   7.763  11.346  0.00  0.00    +0.000 OA
ATOM     22  H   UNL     1      46.922   6.479  12.135  0.00  0.00    +0.000 HD
BRANCH  20  23
ATOM     23  C   UNL     1      44.646   5.466  11.392  0.00  0.00    +0.000 A 
ATOM     24  C   UNL     1      43.948   4.843  12.419  0.00  0.00    +0.000 A 
ATOM     25  S   UNL     1      43.583   3.207  12.103  0.00  0.00    +0.000 S 
ATOM     26  C   UNL     1      44.390   3.259  10.607  0.00  0.00    +0.000 A 
ATOM     27  N   UNL     1      44.473   2.153   9.820  0.00  0.00    +0.000 NA
ATOM     28  C   UNL     1      45.138   2.327   8.727  0.00  0.00    +0.000 A 
ATOM     29  N   UNL     1      45.726   3.506   8.348  0.00  0.00    +0.000 N 
ATOM     30  C   UNL     1      45.653   4.654   9.102  0.00  0.00    +0.000 A 
ATOM     31  O   UNL     1      46.169   5.700   8.723  0.00  0.00    +0.000 OA
ATOM     32  C   UNL     1      44.918   4.511  10.344  0.00  0.00    +0.000 A 
ATOM     33  H   UNL     1      46.231   3.576   7.477  0.00  0.00    +0.000 HD
ENDBRANCH  20  23
ENDBRANCH  18  19
ENDBRANCH   5  18
TORSDOF 6
ENDMDL
