MODEL 1
REMARK VINA RESULT:    -8.655      0.000      0.000
REMARK INTER + INTRA:         -13.939
REMARK INTER:                 -12.703
REMARK INTRA:                  -1.235
REMARK UNBOUND:                -1.235
REMARK  Name = 
REMARK  10 active torsions:
REMARK  status: ('A' for Active; 'I' for Inactive)
REMARK    1  A    between atoms: C_1  and  O_2
REMARK    2  A    between atoms: O_2  and  C_3
REMARK    3  A    between atoms: C_6  and  N_7
REMARK    4  A    between atoms: N_7  and  C_8
REMARK    5  A    between atoms: C_8  and  C_9
REMARK    6  A    between atoms: C_9  and  C_10
REMARK    7  A    between atoms: C_13  and  C_14
REMARK    8  A    between atoms: C_21  and  O_22
REMARK    9  A    between atoms: O_22  and  C_23
REMARK   10  A    between atoms: N_25  and  C_26
REMARK                            x       y       z     vdW  Elec       q    Type
REMARK                         _______ _______ _______ _____ _____    ______ ____
ROOT
ATOM      1  N   UNL     1      43.530   5.451  12.225  0.00  0.00    +0.000 N 
ATOM      2  H   UNL     1      43.034   6.325  12.399  0.00  0.00    +0.000 HD
ENDROOT
BRANCH   1   6
ATOM      3  C   UNL     1      47.642   6.081  13.068  0.00  0.00    +0.000 A 
ATOM      4  C   UNL     1      46.918   6.920  12.206  0.00  0.00    +0.000 A 
ATOM      5  C   UNL     1      45.563   6.693  11.939  0.00  0.00    +0.000 A 
ATOM      6  C   UNL     1      44.879   5.643  12.547  0.00  0.00    +0.000 A 
ATOM      7  C   UNL     1      45.617   4.781  13.365  0.00  0.00    +0.000 A 
ATOM      8  C   UNL     1      46.978   4.987  13.637  0.00  0.00    +0.000 A 
BRANCH   3  10
ATOM      9  C   UNL     1      49.589   7.400  12.749  0.00  0.00    +0.000 C 
ATOM     10  O   UNL     1      48.962   6.280  13.372  0.00  0.00    +0.000 OA
ENDBRANCH   3  10
BRANCH   8  11
ATOM     11  O   UNL     1      47.460   4.082  14.551  0.00  0.00    +0.000 OA
BRANCH  11  12
ATOM     12  C   UNL     1      47.399   4.338  15.971  0.00  0.00    +0.000 C 
ATOM     13  C   UNL     1      48.524   5.152  16.638  0.00  0.00    +0.000 C 
ATOM     14  N   UNL     1      48.868   4.014  17.514  0.00  0.00    +0.000 NA
ATOM     15  C   UNL     1      48.444   4.264  18.890  0.00  0.00    +0.000 C 
ATOM     16  C   UNL     1      47.897   3.151  16.830  0.00  0.00    +0.000 C 
ENDBRANCH  11  12
ENDBRANCH   8  11
ENDBRANCH   1   6
BRANCH   1  17
ATOM     17  C   UNL     1      43.226   4.942  10.883  0.00  0.00    +0.000 C 
BRANCH  17  18
ATOM     18  C   UNL     1      43.575   3.452  10.766  0.00  0.00    +0.000 C 
BRANCH  18  19
ATOM     19  C   UNL     1      44.571   3.192   9.666  0.00  0.00    +0.000 A 
ATOM     20  C   UNL     1      45.139   4.253   8.952  0.00  0.00    +0.000 A 
ATOM     21  C   UNL     1      46.060   4.002   7.929  0.00  0.00    +0.000 A 
ATOM     22  C   UNL     1      46.421   2.684   7.606  0.00  0.00    +0.000 A 
ATOM     23  C   UNL     1      45.843   1.635   8.318  0.00  0.00    +0.000 A 
ATOM     24  F   UNL     1      46.150   0.357   8.049  0.00  0.00    +0.000 F 
ATOM     25  C   UNL     1      44.922   1.878   9.336  0.00  0.00    +0.000 A 
BRANCH  22  26
ATOM     26  C   UNL     1      47.408   2.471   6.518  0.00  0.00    +0.000 C 
ATOM     27  N   UNL     1      47.222   3.127   5.338  0.00  0.00    +0.000 N 
ATOM     28  O   UNL     1      48.372   1.728   6.666  0.00  0.00    +0.000 OA
ATOM     29  H   UNL     1      46.440   3.749   5.167  0.00  0.00    +0.000 HD
ATOM     30  H   UNL     1      47.894   2.975   4.598  0.00  0.00    +0.000 HD
ENDBRANCH  22  26
ENDBRANCH  18  19
ENDBRANCH  17  18
ENDBRANCH   1  17
TORSDOF 8
ENDMDL
MODEL 2
REMARK VINA RESULT:    -7.366      2.840      4.867
REMARK INTER + INTRA:         -12.047
REMARK INTER:                 -11.151
REMARK INTRA:                  -0.895
REMARK UNBOUND:                -1.235
REMARK  Name = 
REMARK  10 active torsions:
REMARK  status: ('A' for Active; 'I' for Inactive)
REMARK    1  A    between atoms: C_1  and  O_2
REMARK    2  A    between atoms: O_2  and  C_3
REMARK    3  A    between atoms: C_6  and  N_7
REMARK    4  A    between atoms: N_7  and  C_8
REMARK    5  A    between atoms: C_8  and  C_9
REMARK    6  A    between atoms: C_9  and  C_10
REMARK    7  A    between atoms: C_13  and  C_14
REMARK    8  A    between atoms: C_21  and  O_22
REMARK    9  A    between atoms: O_22  and  C_23
REMARK   10  A    between atoms: N_25  and  C_26
REMARK                            x       y       z     vdW  Elec       q    Type
REMARK                         _______ _______ _______ _____ _____    ______ ____
ROOT
ATOM      1  N   UNL     1      44.091   4.998  12.870  0.00  0.00    +0.000 N 
ATOM      2  H   UNL     1      43.160   5.402  12.769  0.00  0.00    +0.000 HD
ENDROOT
BRANCH   1   6
ATOM      3  C   UNL     1      47.047   7.960  12.162  0.00  0.00    +0.000 A 
ATOM      4  C   UNL     1      47.338   6.587  12.118  0.00  0.00    +0.000 A 
ATOM      5  C   UNL     1      46.349   5.626  12.358  0.00  0.00    +0.000 A 
ATOM      6  C   UNL     1      45.033   6.002  12.616  0.00  0.00    +0.000 A 
ATOM      7  C   UNL     1      44.759   7.370  12.708  0.00  0.00    +0.000 A 
ATOM      8  C   UNL     1      45.739   8.348  12.480  0.00  0.00    +0.000 A 
BRANCH   3  10
ATOM      9  C   UNL     1      48.776   9.338  13.025  0.00  0.00    +0.000 C 
ATOM     10  O   UNL     1      47.979   8.931  11.913  0.00  0.00    +0.000 OA
ENDBRANCH   3  10
BRANCH   8  11
ATOM     11  O   UNL     1      45.213   9.617  12.514  0.00  0.00    +0.000 OA
BRANCH  11  12
ATOM     12  C   UNL     1      44.714  10.259  11.321  0.00  0.00    +0.000 C 
ATOM     13  C   UNL     1      43.554  11.267  11.437  0.00  0.00    +0.000 C 
ATOM     14  N   UNL     1      42.704  10.433  10.564  0.00  0.00    +0.000 NA
ATOM     15  C   UNL     1      42.547  11.044   9.246  0.00  0.00    +0.000 C 
ATOM     16  C   UNL     1      43.725   9.379  10.519  0.00  0.00    +0.000 C 
ENDBRANCH  11  12
ENDBRANCH   8  11
ENDBRANCH   1   6
BRANCH   1  17
ATOM     17  C   UNL     1      44.204   3.758  12.093  0.00  0.00    +0.000 C 
BRANCH  17  18
ATOM     18  C   UNL     1      43.641   3.942  10.677  0.00  0.00    +0.000 C 
BRANCH  18  19
ATOM     19  C   UNL     1      44.628   3.521   9.620  0.00  0.00    +0.000 A 
ATOM     20  C   UNL     1      45.308   4.476   8.857  0.00  0.00    +0.000 A 
ATOM     21  C   UNL     1      46.219   4.075   7.874  0.00  0.00    +0.000 A 
ATOM     22  C   UNL     1      46.459   2.712   7.642  0.00  0.00    +0.000 A 
ATOM     23  C   UNL     1      45.772   1.769   8.403  0.00  0.00    +0.000 A 
ATOM     24  F   UNL     1      45.961   0.453   8.221  0.00  0.00    +0.000 F 
ATOM     25  C   UNL     1      44.859   2.161   9.381  0.00  0.00    +0.000 A 
BRANCH  22  26
ATOM     26  C   UNL     1      47.443   2.338   6.594  0.00  0.00    +0.000 C 
ATOM     27  N   UNL     1      47.351   2.943   5.376  0.00  0.00    +0.000 N 
ATOM     28  O   UNL     1      48.320   1.510   6.807  0.00  0.00    +0.000 OA
ATOM     29  H   UNL     1      46.641   3.631   5.151  0.00  0.00    +0.000 HD
ATOM     30  H   UNL     1      48.019   2.682   4.663  0.00  0.00    +0.000 HD
ENDBRANCH  22  26
ENDBRANCH  18  19
ENDBRANCH  17  18
ENDBRANCH   1  17
TORSDOF 8
ENDMDL
MODEL 3
REMARK VINA RESULT:    -7.275      2.101      4.201
REMARK INTER + INTRA:         -11.912
REMARK INTER:                 -11.499
REMARK INTRA:                  -0.413
REMARK UNBOUND:                -1.235
REMARK  Name = 
REMARK  10 active torsions:
REMARK  status: ('A' for Active; 'I' for Inactive)
REMARK    1  A    between atoms: C_1  and  O_2
REMARK    2  A    between atoms: O_2  and  C_3
REMARK    3  A    between atoms: C_6  and  N_7
REMARK    4  A    between atoms: N_7  and  C_8
REMARK    5  A    between atoms: C_8  and  C_9
REMARK    6  A    between atoms: C_9  and  C_10
REMARK    7  A    between atoms: C_13  and  C_14
REMARK    8  A    between atoms: C_21  and  O_22
REMARK    9  A    between atoms: O_22  and  C_23
REMARK   10  A    between atoms: N_25  and  C_26
REMARK                            x       y       z     vdW  Elec       q    Type
REMARK                         _______ _______ _______ _____ _____    ______ ____
ROOT
ATOM      1  N   UNL     1      45.223   3.276  12.105  0.00  0.00    +0.000 N 
ATOM      2  H   UNL     1      45.332   2.437  12.676  0.00  0.00    +0.000 HD
ENDROOT
BRANCH   1   6
ATOM      3  C   UNL     1      47.478   6.328  14.005  0.00  0.00    +0.000 A 
ATOM      4  C   UNL     1      47.460   5.006  14.479  0.00  0.00    +0.000 A 
ATOM      5  C   UNL     1      46.707   4.015  13.839  0.00  0.00    +0.000 A 
ATOM      6  C   UNL     1      45.975   4.301  12.689  0.00  0.00    +0.000 A 
ATOM      7  C   UNL     1      45.957   5.630  12.251  0.00  0.00    +0.000 A 
ATOM      8  C   UNL     1      46.698   6.638  12.885  0.00  0.00    +0.000 A 
BRANCH   3  10
ATOM      9  C   UNL     1      48.923   6.967  15.777  0.00  0.00    +0.000 C 
ATOM     10  O   UNL     1      48.217   7.322  14.589  0.00  0.00    +0.000 OA
ENDBRANCH   3  10
BRANCH   8  11
ATOM     11  O   UNL     1      46.613   7.834  12.213  0.00  0.00    +0.000 OA
BRANCH  11  12
ATOM     12  C   UNL     1      45.461   8.694  12.345  0.00  0.00    +0.000 C 
ATOM     13  C   UNL     1      44.368   8.662  11.259  0.00  0.00    +0.000 C 
ATOM     14  N   UNL     1      44.590  10.088  10.952  0.00  0.00    +0.000 NA
ATOM     15  C   UNL     1      43.486  10.910  11.445  0.00  0.00    +0.000 C 
ATOM     16  C   UNL     1      45.724  10.148  11.882  0.00  0.00    +0.000 C 
ENDBRANCH  11  12
ENDBRANCH   8  11
ENDBRANCH   1   6
BRANCH   1  17
ATOM     17  C   UNL     1      43.804   3.546  11.847  0.00  0.00    +0.000 C 
BRANCH  17  18
ATOM     18  C   UNL     1      43.598   4.106  10.432  0.00  0.00    +0.000 C 
BRANCH  18  19
ATOM     19  C   UNL     1      44.612   3.564   9.460  0.00  0.00    +0.000 A 
ATOM     20  C   UNL     1      45.392   4.429   8.685  0.00  0.00    +0.000 A 
ATOM     21  C   UNL     1      46.329   3.917   7.780  0.00  0.00    +0.000 A 
ATOM     22  C   UNL     1      46.494   2.530   7.639  0.00  0.00    +0.000 A 
ATOM     23  C   UNL     1      45.707   1.677   8.409  0.00  0.00    +0.000 A 
ATOM     24  F   UNL     1      45.821   0.344   8.312  0.00  0.00    +0.000 F 
ATOM     25  C   UNL     1      44.769   2.181   9.310  0.00  0.00    +0.000 A 
BRANCH  22  26
ATOM     26  C   UNL     1      47.507   2.037   6.672  0.00  0.00    +0.000 C 
ATOM     27  N   UNL     1      48.624   2.790   6.464  0.00  0.00    +0.000 N 
ATOM     28  O   UNL     1      47.355   0.979   6.071  0.00  0.00    +0.000 OA
ATOM     29  H   UNL     1      48.792   3.672   6.934  0.00  0.00    +0.000 HD
ATOM     30  H   UNL     1      49.308   2.452   5.801  0.00  0.00    +0.000 HD
ENDBRANCH  22  26
ENDBRANCH  18  19
ENDBRANCH  17  18
ENDBRANCH   1  17
TORSDOF 8
ENDMDL
MODEL 4
REMARK VINA RESULT:    -6.741      2.330      2.798
REMARK INTER + INTRA:         -11.128
REMARK INTER:                 -10.129
REMARK INTRA:                  -1.000
REMARK UNBOUND:                -1.235
REMARK  Name = 
REMARK  10 active torsions:
REMARK  status: ('A' for Active; 'I' for Inactive)
REMARK    1  A    between atoms: C_1  and  O_2
REMARK    2  A    between atoms: O_2  and  C_3
REMARK    3  A    between atoms: C_6  and  N_7
REMARK    4  A    between atoms: N_7  and  C_8
REMARK    5  A    between atoms: C_8  and  C_9
REMARK    6  A    between atoms: C_9  and  C_10
REMARK    7  A    between atoms: C_13  and  C_14
REMARK    8  A    between atoms: C_21  and  O_22
REMARK    9  A    between atoms: O_22  and  C_23
REMARK   10  A    between atoms: N_25  and  C_26
REMARK                            x       y       z     vdW  Elec       q    Type
REMARK                         _______ _______ _______ _____ _____    ______ ____
ROOT
ATOM      1  N   UNL     1      44.098   6.309  12.095  0.00  0.00    +0.000 N 
ATOM      2  H   UNL     1      43.302   6.730  12.575  0.00  0.00    +0.000 HD
ENDROOT
BRANCH   1   6
ATOM      3  C   UNL     1      47.214   9.190  11.998  0.00  0.00    +0.000 A 
ATOM      4  C   UNL     1      45.870   9.533  11.775  0.00  0.00    +0.000 A 
ATOM      5  C   UNL     1      44.858   8.566  11.808  0.00  0.00    +0.000 A 
ATOM      6  C   UNL     1      45.148   7.235  12.098  0.00  0.00    +0.000 A 
ATOM      7  C   UNL     1      46.493   6.891  12.269  0.00  0.00    +0.000 A 
ATOM      8  C   UNL     1      47.521   7.844  12.230  0.00  0.00    +0.000 A 
BRANCH   3  10
ATOM      9  C   UNL     1      48.129  11.163  12.949  0.00  0.00    +0.000 C 
ATOM     10  O   UNL     1      48.231  10.106  11.995  0.00  0.00    +0.000 OA
ENDBRANCH   3  10
BRANCH   8  11
ATOM     11  O   UNL     1      48.742   7.291  12.536  0.00  0.00    +0.000 OA
BRANCH  11  12
ATOM     12  C   UNL     1      49.190   7.162  13.902  0.00  0.00    +0.000 C 
ATOM     13  C   UNL     1      48.570   8.064  14.987  0.00  0.00    +0.000 C 
ATOM     14  N   UNL     1      49.889   8.653  15.292  0.00  0.00    +0.000 NA
ATOM     15  C   UNL     1      50.395   8.172  16.576  0.00  0.00    +0.000 C 
ATOM     16  C   UNL     1      50.513   7.913  14.188  0.00  0.00    +0.000 C 
ENDBRANCH  11  12
ENDBRANCH   8  11
ENDBRANCH   1   6
BRANCH   1  17
ATOM     17  C   UNL     1      43.689   5.760  10.797  0.00  0.00    +0.000 C 
BRANCH  17  18
ATOM     18  C   UNL     1      43.800   4.229  10.786  0.00  0.00    +0.000 C 
BRANCH  18  19
ATOM     19  C   UNL     1      44.718   3.739   9.697  0.00  0.00    +0.000 A 
ATOM     20  C   UNL     1      45.403   4.645   8.880  0.00  0.00    +0.000 A 
ATOM     21  C   UNL     1      46.250   4.181   7.868  0.00  0.00    +0.000 A 
ATOM     22  C   UNL     1      46.419   2.803   7.660  0.00  0.00    +0.000 A 
ATOM     23  C   UNL     1      45.727   1.910   8.474  0.00  0.00    +0.000 A 
ATOM     24  F   UNL     1      45.849   0.583   8.317  0.00  0.00    +0.000 F 
ATOM     25  C   UNL     1      44.878   2.366   9.482  0.00  0.00    +0.000 A 
BRANCH  22  26
ATOM     26  C   UNL     1      47.336   2.361   6.579  0.00  0.00    +0.000 C 
ATOM     27  N   UNL     1      47.301   3.026   5.389  0.00  0.00    +0.000 N 
ATOM     28  O   UNL     1      48.111   1.425   6.740  0.00  0.00    +0.000 OA
ATOM     29  H   UNL     1      46.676   3.802   5.207  0.00  0.00    +0.000 HD
ATOM     30  H   UNL     1      47.923   2.718   4.654  0.00  0.00    +0.000 HD
ENDBRANCH  22  26
ENDBRANCH  18  19
ENDBRANCH  17  18
ENDBRANCH   1  17
TORSDOF 8
ENDMDL
MODEL 5
REMARK VINA RESULT:    -6.698      2.797      3.697
REMARK INTER + INTRA:         -11.066
REMARK INTER:                 -10.076
REMARK INTRA:                  -0.990
REMARK UNBOUND:                -1.235
REMARK  Name = 
REMARK  10 active torsions:
REMARK  status: ('A' for Active; 'I' for Inactive)
REMARK    1  A    between atoms: C_1  and  O_2
REMARK    2  A    between atoms: O_2  and  C_3
REMARK    3  A    between atoms: C_6  and  N_7
REMARK    4  A    between atoms: N_7  and  C_8
REMARK    5  A    between atoms: C_8  and  C_9
REMARK    6  A    between atoms: C_9  and  C_10
REMARK    7  A    between atoms: C_13  and  C_14
REMARK    8  A    between atoms: C_21  and  O_22
REMARK    9  A    between atoms: O_22  and  C_23
REMARK   10  A    between atoms: N_25  and  C_26
REMARK                            x       y       z     vdW  Elec       q    Type
REMARK                         _______ _______ _______ _____ _____    ______ ____
ROOT
ATOM      1  N   UNL     1      43.779   4.732  12.614  0.00  0.00    +0.000 N 
ATOM      2  H   UNL     1      42.841   4.830  12.226  0.00  0.00    +0.000 HD
ENDROOT
BRANCH   1   6
ATOM      3  C   UNL     1      45.726   8.468  12.095  0.00  0.00    +0.000 A 
ATOM      4  C   UNL     1      44.535   8.145  11.423  0.00  0.00    +0.000 A 
ATOM      5  C   UNL     1      43.911   6.905  11.607  0.00  0.00    +0.000 A 
ATOM      6  C   UNL     1      44.434   5.963  12.489  0.00  0.00    +0.000 A 
ATOM      7  C   UNL     1      45.646   6.270  13.115  0.00  0.00    +0.000 A 
ATOM      8  C   UNL     1      46.291   7.503  12.937  0.00  0.00    +0.000 A 
BRANCH   3  10
ATOM      9  C   UNL     1      45.569  10.742  11.433  0.00  0.00    +0.000 C 
ATOM     10  O   UNL     1      46.357   9.675  11.960  0.00  0.00    +0.000 OA
ENDBRANCH   3  10
BRANCH   8  11
ATOM     11  O   UNL     1      47.402   7.619  13.738  0.00  0.00    +0.000 OA
BRANCH  11  12
ATOM     12  C   UNL     1      48.734   7.434  13.213  0.00  0.00    +0.000 C 
ATOM     13  C   UNL     1      49.619   8.668  12.950  0.00  0.00    +0.000 C 
ATOM     14  N   UNL     1      49.705   8.337  11.514  0.00  0.00    +0.000 NA
ATOM     15  C   UNL     1      51.034   7.834  11.170  0.00  0.00    +0.000 C 
ATOM     16  C   UNL     1      48.765   7.221  11.679  0.00  0.00    +0.000 C 
ENDBRANCH  11  12
ENDBRANCH   8  11
ENDBRANCH   1   6
BRANCH   1  17
ATOM     17  C   UNL     1      44.450   3.553  12.054  0.00  0.00    +0.000 C 
BRANCH  17  18
ATOM     18  C   UNL     1      43.756   3.083  10.769  0.00  0.00    +0.000 C 
BRANCH  18  19
ATOM     19  C   UNL     1      44.733   2.902   9.636  0.00  0.00    +0.000 A 
ATOM     20  C   UNL     1      45.016   1.627   9.134  0.00  0.00    +0.000 A 
ATOM     21  C   UNL     1      45.928   1.468   8.085  0.00  0.00    +0.000 A 
ATOM     22  C   UNL     1      46.570   2.585   7.527  0.00  0.00    +0.000 A 
ATOM     23  C   UNL     1      46.287   3.849   8.040  0.00  0.00    +0.000 A 
ATOM     24  F   UNL     1      46.874   4.950   7.547  0.00  0.00    +0.000 F 
ATOM     25  C   UNL     1      45.382   4.014   9.088  0.00  0.00    +0.000 A 
BRANCH  22  26
ATOM     26  C   UNL     1      47.523   2.365   6.410  0.00  0.00    +0.000 C 
ATOM     27  N   UNL     1      47.312   3.030   5.239  0.00  0.00    +0.000 N 
ATOM     28  O   UNL     1      48.480   1.608   6.526  0.00  0.00    +0.000 OA
ATOM     29  H   UNL     1      46.534   3.663   5.095  0.00  0.00    +0.000 HD
ATOM     30  H   UNL     1      47.960   2.873   4.479  0.00  0.00    +0.000 HD
ENDBRANCH  22  26
ENDBRANCH  18  19
ENDBRANCH  17  18
ENDBRANCH   1  17
TORSDOF 8
ENDMDL
MODEL 6
REMARK VINA RESULT:    -6.540      2.450      7.586
REMARK INTER + INTRA:         -10.834
REMARK INTER:                  -9.818
REMARK INTRA:                  -1.017
REMARK UNBOUND:                -1.235
REMARK  Name = 
REMARK  10 active torsions:
REMARK  status: ('A' for Active; 'I' for Inactive)
REMARK    1  A    between atoms: C_1  and  O_2
REMARK    2  A    between atoms: O_2  and  C_3
REMARK    3  A    between atoms: C_6  and  N_7
REMARK    4  A    between atoms: N_7  and  C_8
REMARK    5  A    between atoms: C_8  and  C_9
REMARK    6  A    between atoms: C_9  and  C_10
REMARK    7  A    between atoms: C_13  and  C_14
REMARK    8  A    between atoms: C_21  and  O_22
REMARK    9  A    between atoms: O_22  and  C_23
REMARK   10  A    between atoms: N_25  and  C_26
REMARK                            x       y       z     vdW  Elec       q    Type
REMARK                         _______ _______ _______ _____ _____    ______ ____
ROOT
ATOM      1  N   UNL     1      46.427   7.839  11.706  0.00  0.00    +0.000 N 
ATOM      2  H   UNL     1      46.118   8.418  12.487  0.00  0.00    +0.000 HD
ENDROOT
BRANCH   1   6
ATOM      3  C   UNL     1      43.706   4.594  11.425  0.00  0.00    +0.000 A 
ATOM      4  C   UNL     1      43.752   5.437  12.547  0.00  0.00    +0.000 A 
ATOM      5  C   UNL     1      44.659   6.501  12.621  0.00  0.00    +0.000 A 
ATOM      6  C   UNL     1      45.526   6.777  11.566  0.00  0.00    +0.000 A 
ATOM      7  C   UNL     1      45.511   5.904  10.474  0.00  0.00    +0.000 A 
ATOM      8  C   UNL     1      44.615   4.828  10.386  0.00  0.00    +0.000 A 
BRANCH   3  10
ATOM      9  C   UNL     1      43.263   2.292  11.794  0.00  0.00    +0.000 C 
ATOM     10  O   UNL     1      42.821   3.557  11.304  0.00  0.00    +0.000 OA
ENDBRANCH   3  10
BRANCH   8  11
ATOM     11  O   UNL     1      44.709   4.182   9.177  0.00  0.00    +0.000 OA
BRANCH  11  12
ATOM     12  C   UNL     1      45.947   3.588   8.732  0.00  0.00    +0.000 C 
ATOM     13  C   UNL     1      46.343   3.692   7.246  0.00  0.00    +0.000 C 
ATOM     14  N   UNL     1      46.341   2.222   7.113  0.00  0.00    +0.000 NA
ATOM     15  C   UNL     1      47.704   1.703   7.006  0.00  0.00    +0.000 C 
ATOM     16  C   UNL     1      45.843   2.063   8.486  0.00  0.00    +0.000 C 
ENDBRANCH  11  12
ENDBRANCH   8  11
ENDBRANCH   1   6
BRANCH   1  17
ATOM     17  C   UNL     1      47.848   7.502  11.842  0.00  0.00    +0.000 C 
BRANCH  17  18
ATOM     18  C   UNL     1      48.350   7.793  13.263  0.00  0.00    +0.000 C 
BRANCH  18  19
ATOM     19  C   UNL     1      48.149   6.617  14.183  0.00  0.00    +0.000 A 
ATOM     20  C   UNL     1      48.519   6.692  15.530  0.00  0.00    +0.000 A 
ATOM     21  C   UNL     1      48.333   5.594  16.376  0.00  0.00    +0.000 A 
ATOM     22  C   UNL     1      47.776   4.404  15.882  0.00  0.00    +0.000 A 
ATOM     23  C   UNL     1      47.417   4.337  14.537  0.00  0.00    +0.000 A 
ATOM     24  F   UNL     1      46.884   3.223  14.012  0.00  0.00    +0.000 F 
ATOM     25  C   UNL     1      47.604   5.427  13.688  0.00  0.00    +0.000 A 
BRANCH  22  26
ATOM     26  C   UNL     1      47.591   3.270  16.821  0.00  0.00    +0.000 C 
ATOM     27  N   UNL     1      48.632   2.410  17.011  0.00  0.00    +0.000 N 
ATOM     28  O   UNL     1      46.534   3.100  17.419  0.00  0.00    +0.000 OA
ATOM     29  H   UNL     1      49.522   2.506  16.537  0.00  0.00    +0.000 HD
ATOM     30  H   UNL     1      48.500   1.636  17.647  0.00  0.00    +0.000 HD
ENDBRANCH  22  26
ENDBRANCH  18  19
ENDBRANCH  17  18
ENDBRANCH   1  17
TORSDOF 8
ENDMDL
MODEL 7
REMARK VINA RESULT:    -6.338      3.657      8.464
REMARK INTER + INTRA:         -10.538
REMARK INTER:                 -10.193
REMARK INTRA:                  -0.345
REMARK UNBOUND:                -1.235
REMARK  Name = 
REMARK  10 active torsions:
REMARK  status: ('A' for Active; 'I' for Inactive)
REMARK    1  A    between atoms: C_1  and  O_2
REMARK    2  A    between atoms: O_2  and  C_3
REMARK    3  A    between atoms: C_6  and  N_7
REMARK    4  A    between atoms: N_7  and  C_8
REMARK    5  A    between atoms: C_8  and  C_9
REMARK    6  A    between atoms: C_9  and  C_10
REMARK    7  A    between atoms: C_13  and  C_14
REMARK    8  A    between atoms: C_21  and  O_22
REMARK    9  A    between atoms: O_22  and  C_23
REMARK   10  A    between atoms: N_25  and  C_26
REMARK                            x       y       z     vdW  Elec       q    Type
REMARK                         _______ _______ _______ _____ _____    ______ ____
ROOT
ATOM      1  N   UNL     1      46.955   3.786  14.846  0.00  0.00    +0.000 N 
ATOM      2  H   UNL     1      47.629   3.215  14.334  0.00  0.00    +0.000 HD
ENDROOT
BRANCH   1   6
ATOM      3  C   UNL     1      45.558   6.883  12.303  0.00  0.00    +0.000 A 
ATOM      4  C   UNL     1      46.793   6.961  12.968  0.00  0.00    +0.000 A 
ATOM      5  C   UNL     1      47.234   5.929  13.805  0.00  0.00    +0.000 A 
ATOM      6  C   UNL     1      46.475   4.774  13.979  0.00  0.00    +0.000 A 
ATOM      7  C   UNL     1      45.225   4.725  13.355  0.00  0.00    +0.000 A 
ATOM      8  C   UNL     1      44.762   5.753  12.520  0.00  0.00    +0.000 A 
BRANCH   3  10
ATOM      9  C   UNL     1      45.142   9.195  11.961  0.00  0.00    +0.000 C 
ATOM     10  O   UNL     1      45.100   7.860  11.460  0.00  0.00    +0.000 OA
ENDBRANCH   3  10
BRANCH   8  11
ATOM     11  O   UNL     1      43.562   5.433  11.931  0.00  0.00    +0.000 OA
BRANCH  11  12
ATOM     12  C   UNL     1      43.492   4.539  10.799  0.00  0.00    +0.000 C 
ATOM     13  C   UNL     1      43.748   3.034  11.009  0.00  0.00    +0.000 C 
ATOM     14  N   UNL     1      44.900   3.071  10.087  0.00  0.00    +0.000 NA
ATOM     15  C   UNL     1      44.581   2.411   8.822  0.00  0.00    +0.000 C 
ATOM     16  C   UNL     1      44.783   4.528   9.945  0.00  0.00    +0.000 C 
ENDBRANCH  11  12
ENDBRANCH   8  11
ENDBRANCH   1   6
BRANCH   1  17
ATOM     17  C   UNL     1      47.520   4.230  16.125  0.00  0.00    +0.000 C 
BRANCH  17  18
ATOM     18  C   UNL     1      47.845   3.033  17.030  0.00  0.00    +0.000 C 
BRANCH  18  19
ATOM     19  C   UNL     1      49.308   2.977  17.384  0.00  0.00    +0.000 A 
ATOM     20  C   UNL     1      49.924   4.045  18.045  0.00  0.00    +0.000 A 
ATOM     21  C   UNL     1      51.284   3.987  18.367  0.00  0.00    +0.000 A 
ATOM     22  C   UNL     1      52.045   2.857  18.027  0.00  0.00    +0.000 A 
ATOM     23  C   UNL     1      51.424   1.803  17.362  0.00  0.00    +0.000 A 
ATOM     24  F   UNL     1      52.105   0.701  17.011  0.00  0.00    +0.000 F 
ATOM     25  C   UNL     1      50.070   1.856  17.036  0.00  0.00    +0.000 A 
BRANCH  22  26
ATOM     26  C   UNL     1      53.483   2.840  18.398  0.00  0.00    +0.000 C 
ATOM     27  N   UNL     1      53.825   2.402  19.643  0.00  0.00    +0.000 N 
ATOM     28  O   UNL     1      54.350   3.204  17.612  0.00  0.00    +0.000 OA
ATOM     29  H   UNL     1      53.144   2.094  20.328  0.00  0.00    +0.000 HD
ATOM     30  H   UNL     1      54.805   2.397  19.893  0.00  0.00    +0.000 HD
ENDBRANCH  22  26
ENDBRANCH  18  19
ENDBRANCH  17  18
ENDBRANCH   1  17
TORSDOF 8
ENDMDL
MODEL 8
REMARK VINA RESULT:    -6.294      4.048      7.142
REMARK INTER + INTRA:         -10.473
REMARK INTER:                  -9.191
REMARK INTRA:                  -1.282
REMARK UNBOUND:                -1.235
REMARK  Name = 
REMARK  10 active torsions:
REMARK  status: ('A' for Active; 'I' for Inactive)
REMARK    1  A    between atoms: C_1  and  O_2
REMARK    2  A    between atoms: O_2  and  C_3
REMARK    3  A    between atoms: C_6  and  N_7
REMARK    4  A    between atoms: N_7  and  C_8
REMARK    5  A    between atoms: C_8  and  C_9
REMARK    6  A    between atoms: C_9  and  C_10
REMARK    7  A    between atoms: C_13  and  C_14
REMARK    8  A    between atoms: C_21  and  O_22
REMARK    9  A    between atoms: O_22  and  C_23
REMARK   10  A    between atoms: N_25  and  C_26
REMARK                            x       y       z     vdW  Elec       q    Type
REMARK                         _______ _______ _______ _____ _____    ______ ____
ROOT
ATOM      1  N   UNL     1      49.214   7.554  13.749  0.00  0.00    +0.000 N 
ATOM      2  H   UNL     1      50.124   7.186  13.473  0.00  0.00    +0.000 HD
ENDROOT
BRANCH   1   6
ATOM      3  C   UNL     1      47.354   4.560  16.113  0.00  0.00    +0.000 A 
ATOM      4  C   UNL     1      48.378   5.381  16.614  0.00  0.00    +0.000 A 
ATOM      5  C   UNL     1      48.980   6.360  15.816  0.00  0.00    +0.000 A 
ATOM      6  C   UNL     1      48.559   6.576  14.506  0.00  0.00    +0.000 A 
ATOM      7  C   UNL     1      47.575   5.723  13.997  0.00  0.00    +0.000 A 
ATOM      8  C   UNL     1      46.966   4.729  14.779  0.00  0.00    +0.000 A 
BRANCH   3  10
ATOM      9  C   UNL     1      47.562   2.813  17.706  0.00  0.00    +0.000 C 
ATOM     10  O   UNL     1      46.725   3.605  16.866  0.00  0.00    +0.000 OA
ENDBRANCH   3  10
BRANCH   8  11
ATOM     11  O   UNL     1      45.953   4.095  14.101  0.00  0.00    +0.000 OA
BRANCH  11  12
ATOM     12  C   UNL     1      45.457   4.597  12.842  0.00  0.00    +0.000 C 
ATOM     13  C   UNL     1      44.012   5.125  12.757  0.00  0.00    +0.000 C 
ATOM     14  N   UNL     1      43.667   4.106  11.747  0.00  0.00    +0.000 NA
ATOM     15  C   UNL     1      43.518   4.708  10.423  0.00  0.00    +0.000 C 
ATOM     16  C   UNL     1      44.990   3.481  11.876  0.00  0.00    +0.000 C 
ENDBRANCH  11  12
ENDBRANCH   8  11
ENDBRANCH   1   6
BRANCH   1  17
ATOM     17  C   UNL     1      48.499   8.093  12.585  0.00  0.00    +0.000 C 
BRANCH  17  18
ATOM     18  C   UNL     1      47.837   9.437  12.919  0.00  0.00    +0.000 C 
BRANCH  18  19
ATOM     19  C   UNL     1      46.488   9.577  12.264  0.00  0.00    +0.000 A 
ATOM     20  C   UNL     1      45.693   8.452  12.018  0.00  0.00    +0.000 A 
ATOM     21  C   UNL     1      44.444   8.591  11.404  0.00  0.00    +0.000 A 
ATOM     22  C   UNL     1      43.976   9.859  11.027  0.00  0.00    +0.000 A 
ATOM     23  C   UNL     1      44.778  10.972  11.269  0.00  0.00    +0.000 A 
ATOM     24  F   UNL     1      44.381  12.207  10.926  0.00  0.00    +0.000 F 
ATOM     25  C   UNL     1      46.026  10.840  11.877  0.00  0.00    +0.000 A 
BRANCH  22  26
ATOM     26  C   UNL     1      42.639   9.955  10.386  0.00  0.00    +0.000 C 
ATOM     27  N   UNL     1      41.566   9.440  11.050  0.00  0.00    +0.000 N 
ATOM     28  O   UNL     1      42.492  10.483   9.290  0.00  0.00    +0.000 OA
ATOM     29  H   UNL     1      41.638   8.991  11.956  0.00  0.00    +0.000 HD
ATOM     30  H   UNL     1      40.658   9.503  10.608  0.00  0.00    +0.000 HD
ENDBRANCH  22  26
ENDBRANCH  18  19
ENDBRANCH  17  18
ENDBRANCH   1  17
TORSDOF 8
ENDMDL
MODEL 9
REMARK VINA RESULT:    -6.084      1.806      2.368
REMARK INTER + INTRA:         -10.165
REMARK INTER:                  -9.578
REMARK INTRA:                  -0.587
REMARK UNBOUND:                -1.235
REMARK  Name = 
REMARK  10 active torsions:
REMARK  status: ('A' for Active; 'I' for Inactive)
REMARK    1  A    between atoms: C_1  and  O_2
REMARK    2  A    between atoms: O_2  and  C_3
REMARK    3  A    between atoms: C_6  and  N_7
REMARK    4  A    between atoms: N_7  and  C_8
REMARK    5  A    between atoms: C_8  and  C_9
REMARK    6  A    between atoms: C_9  and  C_10
REMARK    7  A    between atoms: C_13  and  C_14
REMARK    8  A    between atoms: C_21  and  O_22
REMARK    9  A    between atoms: O_22  and  C_23
REMARK   10  A    between atoms: N_25  and  C_26
REMARK                            x       y       z     vdW  Elec       q    Type
REMARK                         _______ _______ _______ _____ _____    ______ ____
ROOT
ATOM      1  N   UNL     1      45.950   5.510  12.107  0.00  0.00    +0.000 N 
ATOM      2  H   UNL     1      45.704   4.873  12.864  0.00  0.00    +0.000 HD
ENDROOT
BRANCH   1   6
ATOM      3  C   UNL     1      49.106   8.058  13.356  0.00  0.00    +0.000 A 
ATOM      4  C   UNL     1      48.638   8.040  12.032  0.00  0.00    +0.000 A 
ATOM      5  C   UNL     1      47.598   7.190  11.640  0.00  0.00    +0.000 A 
ATOM      6  C   UNL     1      46.969   6.355  12.561  0.00  0.00    +0.000 A 
ATOM      7  C   UNL     1      47.473   6.340  13.865  0.00  0.00    +0.000 A 
ATOM      8  C   UNL     1      48.520   7.178  14.275  0.00  0.00    +0.000 A 
BRANCH   3  10
ATOM      9  C   UNL     1      51.436   8.385  13.669  0.00  0.00    +0.000 C 
ATOM     10  O   UNL     1      50.106   8.888  13.786  0.00  0.00    +0.000 OA
ENDBRANCH   3  10
BRANCH   8  11
ATOM     11  O   UNL     1      48.767   7.069  15.623  0.00  0.00    +0.000 OA
BRANCH  11  12
ATOM     12  C   UNL     1      48.711   5.794  16.298  0.00  0.00    +0.000 C 
ATOM     13  C   UNL     1      47.998   5.694  17.661  0.00  0.00    +0.000 C 
ATOM     14  N   UNL     1      49.247   5.256  18.315  0.00  0.00    +0.000 NA
ATOM     15  C   UNL     1      49.191   3.835  18.655  0.00  0.00    +0.000 C 
ATOM     16  C   UNL     1      50.007   5.453  17.074  0.00  0.00    +0.000 C 
ENDBRANCH  11  12
ENDBRANCH   8  11
ENDBRANCH   1   6
BRANCH   1  17
ATOM     17  C   UNL     1      44.748   6.143  11.552  0.00  0.00    +0.000 C 
BRANCH  17  18
ATOM     18  C   UNL     1      43.821   5.101  10.912  0.00  0.00    +0.000 C 
BRANCH  18  19
ATOM     19  C   UNL     1      44.554   4.222   9.933  0.00  0.00    +0.000 A 
ATOM     20  C   UNL     1      44.329   2.841   9.906  0.00  0.00    +0.000 A 
ATOM     21  C   UNL     1      45.018   2.031   8.997  0.00  0.00    +0.000 A 
ATOM     22  C   UNL     1      45.943   2.594   8.105  0.00  0.00    +0.000 A 
ATOM     23  C   UNL     1      46.166   3.969   8.145  0.00  0.00    +0.000 A 
ATOM     24  F   UNL     1      47.042   4.559   7.318  0.00  0.00    +0.000 F 
ATOM     25  C   UNL     1      45.486   4.781   9.051  0.00  0.00    +0.000 A 
BRANCH  22  26
ATOM     26  C   UNL     1      46.643   1.694   7.153  0.00  0.00    +0.000 C 
ATOM     27  N   UNL     1      47.002   0.451   7.584  0.00  0.00    +0.000 N 
ATOM     28  O   UNL     1      46.894   2.046   6.007  0.00  0.00    +0.000 OA
ATOM     29  H   UNL     1      46.819   0.116   8.523  0.00  0.00    +0.000 HD
ATOM     30  H   UNL     1      47.482  -0.157   6.934  0.00  0.00    +0.000 HD
ENDBRANCH  22  26
ENDBRANCH  18  19
ENDBRANCH  17  18
ENDBRANCH   1  17
TORSDOF 8
ENDMDL
