MODEL 1
REMARK VINA RESULT:    -7.145      0.000      0.000
REMARK INTER + INTRA:          -9.888
REMARK INTER:                  -9.233
REMARK INTRA:                  -0.655
REMARK UNBOUND:                -0.655
REMARK  Name = 
REMARK  5 active torsions:
REMARK  status: ('A' for Active; 'I' for Inactive)
REMARK    1  A    between atoms: C_2  and  C_4
REMARK    2  A    between atoms: C_9  and  C_10
REMARK    3  A    between atoms: C_10  and  S_11
REMARK    4  A    between atoms: S_11  and  C_12
REMARK    5  A    between atoms: C_16  and  N_17
REMARK                            x       y       z     vdW  Elec       q    Type
REMARK                         _______ _______ _______ _____ _____    ______ ____
ROOT
ATOM      1  C   UNL     1      46.921   6.274  12.565  0.00  0.00    +0.000 C 
ENDROOT
BRANCH   1   7
ATOM      2  C   UNL     1      47.830   4.751  15.929  0.00  0.00    +0.000 A 
ATOM      3  C   UNL     1      48.664   5.721  16.486  0.00  0.00    +0.000 A 
ATOM      4  C   UNL     1      48.898   6.914  15.796  0.00  0.00    +0.000 A 
ATOM      5  C   UNL     1      48.316   7.136  14.541  0.00  0.00    +0.000 A 
ATOM      6 BR   UNL     1      48.695   8.793  13.695  0.00  0.00    +0.000 Br
ATOM      7  C   UNL     1      47.509   6.154  13.948  0.00  0.00    +0.000 A 
ATOM      8  C   UNL     1      47.266   4.965  14.666  0.00  0.00    +0.000 A 
BRANCH   2  10
ATOM      9  N   UNL     1      48.485   2.485  16.521  0.00  0.00    +0.000 N 
ATOM     10  C   UNL     1      47.542   3.469  16.623  0.00  0.00    +0.000 C 
ATOM     11  O   UNL     1      46.525   3.311  17.289  0.00  0.00    +0.000 OA
ATOM     12  H   UNL     1      48.336   1.665  17.096  0.00  0.00    +0.000 HD
ATOM     13  H   UNL     1      49.427   2.670  16.209  0.00  0.00    +0.000 HD
ENDBRANCH   2  10
ENDBRANCH   1   7
BRANCH   1  14
ATOM     14  S   UNL     1      45.101   6.290  12.553  0.00  0.00    +0.000 S 
BRANCH  14  15
ATOM     15  C   UNL     1      44.702   4.791  11.645  0.00  0.00    +0.000 A 
ATOM     16  C   UNL     1      43.660   4.000  12.135  0.00  0.00    +0.000 A 
ATOM     17  C   UNL     1      43.319   2.804  11.498  0.00  0.00    +0.000 A 
ATOM     18  C   UNL     1      44.025   2.394  10.368  0.00  0.00    +0.000 A 
ATOM     19  C   UNL     1      45.064   3.167   9.836  0.00  0.00    +0.000 A 
ATOM     20  C   UNL     1      45.377   4.366  10.489  0.00  0.00    +0.000 A 
BRANCH  19  21
ATOM     21  N   UNL     1      45.696   2.756   8.671  0.00  0.00    +0.000 N 
ATOM     22  C   UNL     1      45.874   1.328   8.361  0.00  0.00    +0.000 C 
ATOM     23  C   UNL     1      47.054   1.194   7.382  0.00  0.00    +0.000 C 
ATOM     24  O   UNL     1      46.843   1.966   6.186  0.00  0.00    +0.000 OA
ATOM     25  C   UNL     1      46.656   3.358   6.510  0.00  0.00    +0.000 C 
ATOM     26  C   UNL     1      45.460   3.558   7.454  0.00  0.00    +0.000 C 
ENDBRANCH  19  21
ENDBRANCH  14  15
ENDBRANCH   1  14
TORSDOF 5
ENDMDL
MODEL 2
REMARK VINA RESULT:    -6.855      3.248      3.903
REMARK INTER + INTRA:          -9.513
REMARK INTER:                  -8.490
REMARK INTRA:                  -1.023
REMARK UNBOUND:                -0.655
REMARK  Name = 
REMARK  5 active torsions:
REMARK  status: ('A' for Active; 'I' for Inactive)
REMARK    1  A    between atoms: C_2  and  C_4
REMARK    2  A    between atoms: C_9  and  C_10
REMARK    3  A    between atoms: C_10  and  S_11
REMARK    4  A    between atoms: S_11  and  C_12
REMARK    5  A    between atoms: C_16  and  N_17
REMARK                            x       y       z     vdW  Elec       q    Type
REMARK                         _______ _______ _______ _____ _____    ______ ____
ROOT
ATOM      1  C   UNL     1      44.993   7.097  12.865  0.00  0.00    +0.000 C 
ENDROOT
BRANCH   1   7
ATOM      2  C   UNL     1      48.415   8.554  12.070  0.00  0.00    +0.000 A 
ATOM      3  C   UNL     1      49.278   7.525  12.451  0.00  0.00    +0.000 A 
ATOM      4  C   UNL     1      48.754   6.318  12.921  0.00  0.00    +0.000 A 
ATOM      5  C   UNL     1      47.369   6.137  13.030  0.00  0.00    +0.000 A 
ATOM      6 BR   UNL     1      46.765   4.456  13.674  0.00  0.00    +0.000 Br
ATOM      7  C   UNL     1      46.488   7.176  12.692  0.00  0.00    +0.000 A 
ATOM      8  C   UNL     1      47.032   8.380  12.199  0.00  0.00    +0.000 A 
BRANCH   2  10
ATOM      9  N   UNL     1      50.211   9.887  11.114  0.00  0.00    +0.000 N 
ATOM     10  C   UNL     1      48.918   9.854  11.557  0.00  0.00    +0.000 C 
ATOM     11  O   UNL     1      48.198  10.845  11.496  0.00  0.00    +0.000 OA
ATOM     12  H   UNL     1      50.502  10.741  10.655  0.00  0.00    +0.000 HD
ATOM     13  H   UNL     1      50.733   9.046  10.911  0.00  0.00    +0.000 HD
ENDBRANCH   2  10
ENDBRANCH   1   7
BRANCH   1  14
ATOM     14  S   UNL     1      44.087   6.990  11.290  0.00  0.00    +0.000 S 
BRANCH  14  15
ATOM     15  C   UNL     1      44.146   5.231  10.923  0.00  0.00    +0.000 A 
ATOM     16  C   UNL     1      43.384   4.380  11.729  0.00  0.00    +0.000 A 
ATOM     17  C   UNL     1      43.410   2.999  11.521  0.00  0.00    +0.000 A 
ATOM     18  C   UNL     1      44.203   2.464  10.507  0.00  0.00    +0.000 A 
ATOM     19  C   UNL     1      44.966   3.284   9.667  0.00  0.00    +0.000 A 
ATOM     20  C   UNL     1      44.913   4.666   9.891  0.00  0.00    +0.000 A 
BRANCH  19  21
ATOM     21  N   UNL     1      45.688   2.717   8.627  0.00  0.00    +0.000 N 
ATOM     22  C   UNL     1      45.670   1.264   8.387  0.00  0.00    +0.000 C 
ATOM     23  C   UNL     1      46.945   0.891   7.610  0.00  0.00    +0.000 C 
ATOM     24  O   UNL     1      47.048   1.624   6.374  0.00  0.00    +0.000 OA
ATOM     25  C   UNL     1      47.048   3.042   6.627  0.00  0.00    +0.000 C 
ATOM     26  C   UNL     1      45.774   3.481   7.366  0.00  0.00    +0.000 C 
ENDBRANCH  19  21
ENDBRANCH  14  15
ENDBRANCH   1  14
TORSDOF 5
ENDMDL
MODEL 3
REMARK VINA RESULT:    -6.787      2.914      4.453
REMARK INTER + INTRA:          -9.425
REMARK INTER:                  -8.708
REMARK INTRA:                  -0.717
REMARK UNBOUND:                -0.655
REMARK  Name = 
REMARK  5 active torsions:
REMARK  status: ('A' for Active; 'I' for Inactive)
REMARK    1  A    between atoms: C_2  and  C_4
REMARK    2  A    between atoms: C_9  and  C_10
REMARK    3  A    between atoms: C_10  and  S_11
REMARK    4  A    between atoms: S_11  and  C_12
REMARK    5  A    between atoms: C_16  and  N_17
REMARK                            x       y       z     vdW  Elec       q    Type
REMARK                         _______ _______ _______ _____ _____    ______ ____
ROOT
ATOM      1  C   UNL     1      48.838   7.369  16.267  0.00  0.00    +0.000 C 
ENDROOT
BRANCH   1   7
ATOM      2  C   UNL     1      49.140   3.810  17.574  0.00  0.00    +0.000 A 
ATOM      3  C   UNL     1      48.671   3.928  18.883  0.00  0.00    +0.000 A 
ATOM      4  C   UNL     1      48.197   5.159  19.343  0.00  0.00    +0.000 A 
ATOM      5  C   UNL     1      48.204   6.282  18.506  0.00  0.00    +0.000 A 
ATOM      6 BR   UNL     1      47.530   7.904  19.228  0.00  0.00    +0.000 Br
ATOM      7  C   UNL     1      48.710   6.192  17.200  0.00  0.00    +0.000 A 
ATOM      8  C   UNL     1      49.166   4.938  16.745  0.00  0.00    +0.000 A 
BRANCH   2  10
ATOM      9  N   UNL     1      50.675   1.929  17.712  0.00  0.00    +0.000 N 
ATOM     10  C   UNL     1      49.649   2.524  17.032  0.00  0.00    +0.000 C 
ATOM     11  O   UNL     1      49.149   1.997  16.045  0.00  0.00    +0.000 OA
ATOM     12  H   UNL     1      50.929   0.998  17.407  0.00  0.00    +0.000 HD
ATOM     13  H   UNL     1      50.926   2.196  18.653  0.00  0.00    +0.000 HD
ENDBRANCH   2  10
ENDBRANCH   1   7
BRANCH   1  14
ATOM     14  S   UNL     1      49.225   6.895  14.553  0.00  0.00    +0.000 S 
BRANCH  14  15
ATOM     15  C   UNL     1      47.631   7.044  13.736  0.00  0.00    +0.000 A 
ATOM     16  C   UNL     1      47.103   8.329  13.586  0.00  0.00    +0.000 A 
ATOM     17  C   UNL     1      45.853   8.515  12.990  0.00  0.00    +0.000 A 
ATOM     18  C   UNL     1      45.124   7.412  12.547  0.00  0.00    +0.000 A 
ATOM     19  C   UNL     1      45.627   6.110  12.663  0.00  0.00    +0.000 A 
ATOM     20  C   UNL     1      46.887   5.954  13.254  0.00  0.00    +0.000 A 
BRANCH  19  21
ATOM     21  N   UNL     1      44.900   5.047  12.147  0.00  0.00    +0.000 N 
ATOM     22  C   UNL     1      43.795   4.437  12.905  0.00  0.00    +0.000 C 
ATOM     23  C   UNL     1      43.592   3.003  12.385  0.00  0.00    +0.000 C 
ATOM     24  O   UNL     1      43.328   2.982  10.970  0.00  0.00    +0.000 OA
ATOM     25  C   UNL     1      44.412   3.597  10.246  0.00  0.00    +0.000 C 
ATOM     26  C   UNL     1      44.634   5.050  10.694  0.00  0.00    +0.000 C 
ENDBRANCH  19  21
ENDBRANCH  14  15
ENDBRANCH   1  14
TORSDOF 5
ENDMDL
MODEL 4
REMARK VINA RESULT:    -6.652      2.712      4.117
REMARK INTER + INTRA:          -9.252
REMARK INTER:                  -8.501
REMARK INTRA:                  -0.751
REMARK UNBOUND:                -0.655
REMARK  Name = 
REMARK  5 active torsions:
REMARK  status: ('A' for Active; 'I' for Inactive)
REMARK    1  A    between atoms: C_2  and  C_4
REMARK    2  A    between atoms: C_9  and  C_10
REMARK    3  A    between atoms: C_10  and  S_11
REMARK    4  A    between atoms: S_11  and  C_12
REMARK    5  A    between atoms: C_16  and  N_17
REMARK                            x       y       z     vdW  Elec       q    Type
REMARK                         _______ _______ _______ _____ _____    ______ ____
ROOT
ATOM      1  C   UNL     1      49.173   7.663  15.306  0.00  0.00    +0.000 C 
ENDROOT
BRANCH   1   7
ATOM      2  C   UNL     1      48.752   4.443  17.286  0.00  0.00    +0.000 A 
ATOM      3  C   UNL     1      50.060   4.156  17.679  0.00  0.00    +0.000 A 
ATOM      4  C   UNL     1      51.093   5.039  17.352  0.00  0.00    +0.000 A 
ATOM      5  C   UNL     1      50.829   6.202  16.617  0.00  0.00    +0.000 A 
ATOM      6 BR   UNL     1      52.303   7.336  16.233  0.00  0.00    +0.000 Br
ATOM      7  C   UNL     1      49.527   6.485  16.177  0.00  0.00    +0.000 A 
ATOM      8  C   UNL     1      48.493   5.594  16.533  0.00  0.00    +0.000 A 
BRANCH   2  10
ATOM      9  N   UNL     1      47.738   2.778  18.739  0.00  0.00    +0.000 N 
ATOM     10  C   UNL     1      47.617   3.542  17.613  0.00  0.00    +0.000 C 
ATOM     11  O   UNL     1      46.600   3.513  16.928  0.00  0.00    +0.000 OA
ATOM     12  H   UNL     1      46.912   2.263  19.017  0.00  0.00    +0.000 HD
ATOM     13  H   UNL     1      48.430   2.968  19.449  0.00  0.00    +0.000 HD
ENDBRANCH   2  10
ENDBRANCH   1   7
BRANCH   1  14
ATOM     14  S   UNL     1      49.273   7.302  13.525  0.00  0.00    +0.000 S 
BRANCH  14  15
ATOM     15  C   UNL     1      47.545   7.280  13.030  0.00  0.00    +0.000 A 
ATOM     16  C   UNL     1      46.864   8.500  13.019  0.00  0.00    +0.000 A 
ATOM     17  C   UNL     1      45.510   8.551  12.678  0.00  0.00    +0.000 A 
ATOM     18  C   UNL     1      44.832   7.377  12.351  0.00  0.00    +0.000 A 
ATOM     19  C   UNL     1      45.484   6.138  12.334  0.00  0.00    +0.000 A 
ATOM     20  C   UNL     1      46.844   6.118  12.670  0.00  0.00    +0.000 A 
BRANCH  19  21
ATOM     21  N   UNL     1      44.789   5.004  11.937  0.00  0.00    +0.000 N 
ATOM     22  C   UNL     1      43.763   4.396  12.799  0.00  0.00    +0.000 C 
ATOM     23  C   UNL     1      43.610   2.919  12.394  0.00  0.00    +0.000 C 
ATOM     24  O   UNL     1      43.271   2.782  11.002  0.00  0.00    +0.000 OA
ATOM     25  C   UNL     1      44.279   3.396  10.174  0.00  0.00    +0.000 C 
ATOM     26  C   UNL     1      44.445   4.888  10.506  0.00  0.00    +0.000 C 
ENDBRANCH  19  21
ENDBRANCH  14  15
ENDBRANCH   1  14
TORSDOF 5
ENDMDL
MODEL 5
REMARK VINA RESULT:    -6.465      2.512      8.312
REMARK INTER + INTRA:          -9.010
REMARK INTER:                  -8.376
REMARK INTRA:                  -0.633
REMARK UNBOUND:                -0.655
REMARK  Name = 
REMARK  5 active torsions:
REMARK  status: ('A' for Active; 'I' for Inactive)
REMARK    1  A    between atoms: C_2  and  C_4
REMARK    2  A    between atoms: C_9  and  C_10
REMARK    3  A    between atoms: C_10  and  S_11
REMARK    4  A    between atoms: S_11  and  C_12
REMARK    5  A    between atoms: C_16  and  N_17
REMARK                            x       y       z     vdW  Elec       q    Type
REMARK                         _______ _______ _______ _____ _____    ______ ____
ROOT
ATOM      1  C   UNL     1      45.445   6.727  11.464  0.00  0.00    +0.000 C 
ENDROOT
BRANCH   1   7
ATOM      2  C   UNL     1      45.381   3.843   8.987  0.00  0.00    +0.000 A 
ATOM      3  C   UNL     1      44.426   2.989   9.540  0.00  0.00    +0.000 A 
ATOM      4  C   UNL     1      43.747   3.367  10.701  0.00  0.00    +0.000 A 
ATOM      5  C   UNL     1      44.029   4.589  11.325  0.00  0.00    +0.000 A 
ATOM      6 BR   UNL     1      43.043   5.008  12.893  0.00  0.00    +0.000 Br
ATOM      7  C   UNL     1      45.016   5.441  10.806  0.00  0.00    +0.000 A 
ATOM      8  C   UNL     1      45.678   5.054   9.622  0.00  0.00    +0.000 A 
BRANCH   2  10
ATOM      9  N   UNL     1      46.490   2.184   7.596  0.00  0.00    +0.000 N 
ATOM     10  C   UNL     1      46.127   3.493   7.750  0.00  0.00    +0.000 C 
ATOM     11  O   UNL     1      46.373   4.328   6.888  0.00  0.00    +0.000 OA
ATOM     12  H   UNL     1      46.886   1.936   6.698  0.00  0.00    +0.000 HD
ATOM     13  H   UNL     1      46.083   1.442   8.147  0.00  0.00    +0.000 HD
ENDBRANCH   2  10
ENDBRANCH   1   7
BRANCH   1  14
ATOM     14  S   UNL     1      47.242   6.839  11.731  0.00  0.00    +0.000 S 
BRANCH  14  15
ATOM     15  C   UNL     1      47.451   6.048  13.332  0.00  0.00    +0.000 A 
ATOM     16  C   UNL     1      46.880   4.784  13.504  0.00  0.00    +0.000 A 
ATOM     17  C   UNL     1      46.975   4.127  14.733  0.00  0.00    +0.000 A 
ATOM     18  C   UNL     1      47.638   4.737  15.797  0.00  0.00    +0.000 A 
ATOM     19  C   UNL     1      48.238   5.995  15.659  0.00  0.00    +0.000 A 
ATOM     20  C   UNL     1      48.137   6.626  14.413  0.00  0.00    +0.000 A 
BRANCH  19  21
ATOM     21  N   UNL     1      48.947   6.536  16.723  0.00  0.00    +0.000 N 
ATOM     22  C   UNL     1      48.489   6.366  18.111  0.00  0.00    +0.000 C 
ATOM     23  C   UNL     1      49.092   7.501  18.957  0.00  0.00    +0.000 C 
ATOM     24  O   UNL     1      50.530   7.517  18.878  0.00  0.00    +0.000 OA
ATOM     25  C   UNL     1      50.959   7.669  17.511  0.00  0.00    +0.000 C 
ATOM     26  C   UNL     1      50.420   6.535  16.624  0.00  0.00    +0.000 C 
ENDBRANCH  19  21
ENDBRANCH  14  15
ENDBRANCH   1  14
TORSDOF 5
ENDMDL
MODEL 6
REMARK VINA RESULT:    -6.056      3.554      5.182
REMARK INTER + INTRA:          -8.481
REMARK INTER:                  -7.903
REMARK INTRA:                  -0.578
REMARK UNBOUND:                -0.655
REMARK  Name = 
REMARK  5 active torsions:
REMARK  status: ('A' for Active; 'I' for Inactive)
REMARK    1  A    between atoms: C_2  and  C_4
REMARK    2  A    between atoms: C_9  and  C_10
REMARK    3  A    between atoms: C_10  and  S_11
REMARK    4  A    between atoms: S_11  and  C_12
REMARK    5  A    between atoms: C_16  and  N_17
REMARK                            x       y       z     vdW  Elec       q    Type
REMARK                         _______ _______ _______ _____ _____    ______ ____
ROOT
ATOM      1  C   UNL     1      49.369   5.800  17.335  0.00  0.00    +0.000 C 
ENDROOT
BRANCH   1   7
ATOM      2  C   UNL     1      51.977   3.062  17.741  0.00  0.00    +0.000 A 
ATOM      3  C   UNL     1      53.164   3.788  17.850  0.00  0.00    +0.000 A 
ATOM      4  C   UNL     1      53.126   5.185  17.849  0.00  0.00    +0.000 A 
ATOM      5  C   UNL     1      51.907   5.864  17.721  0.00  0.00    +0.000 A 
ATOM      6 BR   UNL     1      51.968   7.761  17.739  0.00  0.00    +0.000 Br
ATOM      7  C   UNL     1      50.709   5.150  17.568  0.00  0.00    +0.000 A 
ATOM      8  C   UNL     1      50.762   3.741  17.592  0.00  0.00    +0.000 A 
BRANCH   2  10
ATOM      9  N   UNL     1      52.942   0.947  18.456  0.00  0.00    +0.000 N 
ATOM     10  C   UNL     1      51.960   1.576  17.743  0.00  0.00    +0.000 C 
ATOM     11  O   UNL     1      51.085   0.941  17.166  0.00  0.00    +0.000 OA
ATOM     12  H   UNL     1      52.848  -0.056  18.552  0.00  0.00    +0.000 HD
ATOM     13  H   UNL     1      53.506   1.430  19.141  0.00  0.00    +0.000 HD
ENDBRANCH   2  10
ENDBRANCH   1   7
BRANCH   1  14
ATOM     14  S   UNL     1      48.065   4.620  16.866  0.00  0.00    +0.000 S 
BRANCH  14  15
ATOM     15  C   UNL     1      47.577   5.201  15.236  0.00  0.00    +0.000 A 
ATOM     16  C   UNL     1      48.302   6.262  14.688  0.00  0.00    +0.000 A 
ATOM     17  C   UNL     1      47.955   6.785  13.440  0.00  0.00    +0.000 A 
ATOM     18  C   UNL     1      46.876   6.250  12.739  0.00  0.00    +0.000 A 
ATOM     19  C   UNL     1      46.136   5.175  13.246  0.00  0.00    +0.000 A 
ATOM     20  C   UNL     1      46.512   4.663  14.495  0.00  0.00    +0.000 A 
BRANCH  19  21
ATOM     21  N   UNL     1      45.112   4.628  12.485  0.00  0.00    +0.000 N 
ATOM     22  C   UNL     1      45.172   3.235  12.012  0.00  0.00    +0.000 C 
ATOM     23  C   UNL     1      44.260   3.108  10.779  0.00  0.00    +0.000 C 
ATOM     24  O   UNL     1      42.907   3.503  11.075  0.00  0.00    +0.000 OA
ATOM     25  C   UNL     1      42.871   4.863  11.551  0.00  0.00    +0.000 C 
ATOM     26  C   UNL     1      43.732   5.040  12.811  0.00  0.00    +0.000 C 
ENDBRANCH  19  21
ENDBRANCH  14  15
ENDBRANCH   1  14
TORSDOF 5
ENDMDL
MODEL 7
REMARK VINA RESULT:    -5.872      2.213      8.265
REMARK INTER + INTRA:          -8.243
REMARK INTER:                  -7.637
REMARK INTRA:                  -0.606
REMARK UNBOUND:                -0.655
REMARK  Name = 
REMARK  5 active torsions:
REMARK  status: ('A' for Active; 'I' for Inactive)
REMARK    1  A    between atoms: C_2  and  C_4
REMARK    2  A    between atoms: C_9  and  C_10
REMARK    3  A    between atoms: C_10  and  S_11
REMARK    4  A    between atoms: S_11  and  C_12
REMARK    5  A    between atoms: C_16  and  N_17
REMARK                            x       y       z     vdW  Elec       q    Type
REMARK                         _______ _______ _______ _____ _____    ______ ____
ROOT
ATOM      1  C   UNL     1      45.691   6.287  11.916  0.00  0.00    +0.000 C 
ENDROOT
BRANCH   1   7
ATOM      2  C   UNL     1      45.377   3.726   9.122  0.00  0.00    +0.000 A 
ATOM      3  C   UNL     1      44.367   2.886   9.593  0.00  0.00    +0.000 A 
ATOM      4  C   UNL     1      43.733   3.175  10.805  0.00  0.00    +0.000 A 
ATOM      5  C   UNL     1      44.115   4.291  11.560  0.00  0.00    +0.000 A 
ATOM      6 BR   UNL     1      43.184   4.594  13.187  0.00  0.00    +0.000 Br
ATOM      7  C   UNL     1      45.158   5.122  11.122  0.00  0.00    +0.000 A 
ATOM      8  C   UNL     1      45.773   4.829   9.888  0.00  0.00    +0.000 A 
BRANCH   2  10
ATOM      9  N   UNL     1      46.472   2.184   7.593  0.00  0.00    +0.000 N 
ATOM     10  C   UNL     1      46.079   3.470   7.838  0.00  0.00    +0.000 C 
ATOM     11  O   UNL     1      46.264   4.360   7.016  0.00  0.00    +0.000 OA
ATOM     12  H   UNL     1      46.836   1.999   6.667  0.00  0.00    +0.000 HD
ATOM     13  H   UNL     1      46.110   1.400   8.117  0.00  0.00    +0.000 HD
ENDBRANCH   2  10
ENDBRANCH   1   7
BRANCH   1  14
ATOM     14  S   UNL     1      47.277   6.923  11.290  0.00  0.00    +0.000 S 
BRANCH  14  15
ATOM     15  C   UNL     1      48.265   7.056  12.787  0.00  0.00    +0.000 A 
ATOM     16  C   UNL     1      49.472   7.754  12.701  0.00  0.00    +0.000 A 
ATOM     17  C   UNL     1      50.305   7.867  13.816  0.00  0.00    +0.000 A 
ATOM     18  C   UNL     1      49.933   7.274  15.022  0.00  0.00    +0.000 A 
ATOM     19  C   UNL     1      48.724   6.581  15.154  0.00  0.00    +0.000 A 
ATOM     20  C   UNL     1      47.903   6.493  14.022  0.00  0.00    +0.000 A 
BRANCH  19  21
ATOM     21  N   UNL     1      48.361   6.065  16.390  0.00  0.00    +0.000 N 
ATOM     22  C   UNL     1      48.152   4.621  16.584  0.00  0.00    +0.000 C 
ATOM     23  C   UNL     1      47.236   4.429  17.805  0.00  0.00    +0.000 C 
ATOM     24  O   UNL     1      47.787   5.041  18.985  0.00  0.00    +0.000 OA
ATOM     25  C   UNL     1      47.999   6.451  18.771  0.00  0.00    +0.000 C 
ATOM     26  C   UNL     1      48.944   6.703  17.587  0.00  0.00    +0.000 C 
ENDBRANCH  19  21
ENDBRANCH  14  15
ENDBRANCH   1  14
TORSDOF 5
ENDMDL
MODEL 8
REMARK VINA RESULT:    -5.801      3.189      8.620
REMARK INTER + INTRA:          -8.151
REMARK INTER:                  -7.630
REMARK INTRA:                  -0.521
REMARK UNBOUND:                -0.655
REMARK  Name = 
REMARK  5 active torsions:
REMARK  status: ('A' for Active; 'I' for Inactive)
REMARK    1  A    between atoms: C_2  and  C_4
REMARK    2  A    between atoms: C_9  and  C_10
REMARK    3  A    between atoms: C_10  and  S_11
REMARK    4  A    between atoms: S_11  and  C_12
REMARK    5  A    between atoms: C_16  and  N_17
REMARK                            x       y       z     vdW  Elec       q    Type
REMARK                         _______ _______ _______ _____ _____    ______ ____
ROOT
ATOM      1  C   UNL     1      47.037   5.356  13.918  0.00  0.00    +0.000 C 
ENDROOT
BRANCH   1   7
ATOM      2  C   UNL     1      44.387   4.166  11.464  0.00  0.00    +0.000 A 
ATOM      3  C   UNL     1      43.811   5.364  11.036  0.00  0.00    +0.000 A 
ATOM      4  C   UNL     1      44.316   6.581  11.499  0.00  0.00    +0.000 A 
ATOM      5  C   UNL     1      45.385   6.610  12.404  0.00  0.00    +0.000 A 
ATOM      6 BR   UNL     1      45.998   8.318  12.963  0.00  0.00    +0.000 Br
ATOM      7  C   UNL     1      45.948   5.416  12.877  0.00  0.00    +0.000 A 
ATOM      8  C   UNL     1      45.441   4.196  12.384  0.00  0.00    +0.000 A 
BRANCH   2  10
ATOM      9  N   UNL     1      44.531   2.290   9.923  0.00  0.00    +0.000 N 
ATOM     10  C   UNL     1      43.893   2.845  10.997  0.00  0.00    +0.000 C 
ATOM     11  O   UNL     1      42.982   2.258  11.571  0.00  0.00    +0.000 OA
ATOM     12  H   UNL     1      44.269   1.339   9.694  0.00  0.00    +0.000 HD
ATOM     13  H   UNL     1      45.431   2.616   9.602  0.00  0.00    +0.000 HD
ENDBRANCH   2  10
ENDBRANCH   1   7
BRANCH   1  14
ATOM     14  S   UNL     1      47.204   3.720  14.697  0.00  0.00    +0.000 S 
BRANCH  14  15
ATOM     15  C   UNL     1      47.834   4.125  16.331  0.00  0.00    +0.000 A 
ATOM     16  C   UNL     1      47.778   3.128  17.308  0.00  0.00    +0.000 A 
ATOM     17  C   UNL     1      48.219   3.385  18.608  0.00  0.00    +0.000 A 
ATOM     18  C   UNL     1      48.714   4.646  18.936  0.00  0.00    +0.000 A 
ATOM     19  C   UNL     1      48.803   5.667  17.981  0.00  0.00    +0.000 A 
ATOM     20  C   UNL     1      48.364   5.378  16.683  0.00  0.00    +0.000 A 
BRANCH  19  21
ATOM     21  N   UNL     1      49.365   6.886  18.332  0.00  0.00    +0.000 N 
ATOM     22  C   UNL     1      49.324   7.376  19.720  0.00  0.00    +0.000 C 
ATOM     23  C   UNL     1      49.472   8.907  19.692  0.00  0.00    +0.000 C 
ATOM     24  O   UNL     1      50.686   9.312  19.031  0.00  0.00    +0.000 OA
ATOM     25  C   UNL     1      50.716   8.811  17.680  0.00  0.00    +0.000 C 
ATOM     26  C   UNL     1      50.614   7.278  17.647  0.00  0.00    +0.000 C 
ENDBRANCH  19  21
ENDBRANCH  14  15
ENDBRANCH   1  14
TORSDOF 5
ENDMDL
MODEL 9
REMARK VINA RESULT:    -5.670      3.721      5.306
REMARK INTER + INTRA:          -7.982
REMARK INTER:                  -7.125
REMARK INTRA:                  -0.857
REMARK UNBOUND:                -0.655
REMARK  Name = 
REMARK  5 active torsions:
REMARK  status: ('A' for Active; 'I' for Inactive)
REMARK    1  A    between atoms: C_2  and  C_4
REMARK    2  A    between atoms: C_9  and  C_10
REMARK    3  A    between atoms: C_10  and  S_11
REMARK    4  A    between atoms: S_11  and  C_12
REMARK    5  A    between atoms: C_16  and  N_17
REMARK                            x       y       z     vdW  Elec       q    Type
REMARK                         _______ _______ _______ _____ _____    ______ ____
ROOT
ATOM      1  C   UNL     1      50.719   7.070  16.413  0.00  0.00    +0.000 C 
ENDROOT
BRANCH   1   7
ATOM      2  C   UNL     1      48.477   4.325  17.794  0.00  0.00    +0.000 A 
ATOM      3  C   UNL     1      48.493   4.583  19.166  0.00  0.00    +0.000 A 
ATOM      4  C   UNL     1      49.190   5.690  19.656  0.00  0.00    +0.000 A 
ATOM      5  C   UNL     1      49.889   6.535  18.784  0.00  0.00    +0.000 A 
ATOM      6 BR   UNL     1      50.797   8.014  19.554  0.00  0.00    +0.000 Br
ATOM      7  C   UNL     1      49.919   6.267  17.407  0.00  0.00    +0.000 A 
ATOM      8  C   UNL     1      49.193   5.157  16.926  0.00  0.00    +0.000 A 
BRANCH   2  10
ATOM      9  N   UNL     1      48.482   2.263  16.505  0.00  0.00    +0.000 N 
ATOM     10  C   UNL     1      47.746   3.167  17.219  0.00  0.00    +0.000 C 
ATOM     11  O   UNL     1      46.546   3.004  17.408  0.00  0.00    +0.000 OA
ATOM     12  H   UNL     1      47.999   1.419  16.226  0.00  0.00    +0.000 HD
ATOM     13  H   UNL     1      49.491   2.229  16.554  0.00  0.00    +0.000 HD
ENDBRANCH   2  10
ENDBRANCH   1   7
BRANCH   1  14
ATOM     14  S   UNL     1      49.851   8.554  15.818  0.00  0.00    +0.000 S 
BRANCH  14  15
ATOM     15  C   UNL     1      49.169   8.007  14.247  0.00  0.00    +0.000 A 
ATOM     16  C   UNL     1      49.799   8.450  13.082  0.00  0.00    +0.000 A 
ATOM     17  C   UNL     1      49.302   8.091  11.827  0.00  0.00    +0.000 A 
ATOM     18  C   UNL     1      48.165   7.289  11.736  0.00  0.00    +0.000 A 
ATOM     19  C   UNL     1      47.515   6.809  12.879  0.00  0.00    +0.000 A 
ATOM     20  C   UNL     1      48.042   7.177  14.124  0.00  0.00    +0.000 A 
BRANCH  19  21
ATOM     21  N   UNL     1      46.427   5.958  12.743  0.00  0.00    +0.000 N 
ATOM     22  C   UNL     1      46.372   4.669  13.452  0.00  0.00    +0.000 C 
ATOM     23  C   UNL     1      45.407   3.744  12.690  0.00  0.00    +0.000 C 
ATOM     24  O   UNL     1      44.097   4.329  12.565  0.00  0.00    +0.000 OA
ATOM     25  C   UNL     1      44.173   5.596  11.883  0.00  0.00    +0.000 C 
ATOM     26  C   UNL     1      45.093   6.579  12.625  0.00  0.00    +0.000 C 
ENDBRANCH  19  21
ENDBRANCH  14  15
ENDBRANCH   1  14
TORSDOF 5
ENDMDL
