MODEL 1
REMARK VINA RESULT:    -8.140      0.000      0.000
REMARK INTER + INTRA:         -10.084
REMARK INTER:                  -9.568
REMARK INTRA:                  -0.516
REMARK UNBOUND:                -0.516
REMARK  Name = 
REMARK  4 active torsions:
REMARK  status: ('A' for Active; 'I' for Inactive)
REMARK    1  A    between atoms: C_1  and  C_2
REMARK    2  A    between atoms: C_6  and  C_7
REMARK    3  A    between atoms: C_7  and  N_8
REMARK    4  A    between atoms: C_9  and  C_11
REMARK                            x       y       z     vdW  Elec       q    Type
REMARK                         _______ _______ _______ _____ _____    ______ ____
ROOT
ATOM      1  N   UNL     1      45.528   4.783   9.915  0.00  0.00    +0.000 N 
ATOM      2  C   UNL     1      44.944   5.542  10.897  0.00  0.00    +0.000 C 
ATOM      3  O   UNL     1      43.737   5.767  10.920  0.00  0.00    +0.000 OA
ATOM      4  H   UNL     1      46.537   4.788   9.809  0.00  0.00    +0.000 HD
ENDROOT
BRANCH   2   5
ATOM      5  C   UNL     1      45.828   6.019  11.966  0.00  0.00    +0.000 A 
ATOM      6  C   UNL     1      46.234   7.348  11.976  0.00  0.00    +0.000 A 
ATOM      7  S   UNL     1      47.220   7.754  13.306  0.00  0.00    +0.000 S 
ATOM      8  C   UNL     1      47.182   6.156  13.889  0.00  0.00    +0.000 A 
ATOM      9  N   UNL     1      47.862   5.807  15.014  0.00  0.00    +0.000 NA
ATOM     10  C   UNL     1      47.776   4.557  15.324  0.00  0.00    +0.000 A 
ATOM     11  N   UNL     1      47.065   3.625  14.614  0.00  0.00    +0.000 N 
ATOM     12  C   UNL     1      46.335   3.937  13.492  0.00  0.00    +0.000 A 
ATOM     13  O   UNL     1      45.666   3.089  12.909  0.00  0.00    +0.000 OA
ATOM     14  C   UNL     1      46.412   5.329  13.093  0.00  0.00    +0.000 A 
ATOM     15  H   UNL     1      47.032   2.661  14.915  0.00  0.00    +0.000 HD
ENDBRANCH   2   5
BRANCH   1  16
ATOM     16  C   UNL     1      44.768   4.242   8.814  0.00  0.00    +0.000 C 
BRANCH  16  22
ATOM     17  C   UNL     1      47.696   2.666   5.027  0.00  0.00    +0.000 C 
ATOM     18  C   UNL     1      46.954   2.370   6.298  0.00  0.00    +0.000 A 
ATOM     19  C   UNL     1      46.995   1.096   6.874  0.00  0.00    +0.000 A 
ATOM     20  C   UNL     1      46.307   0.837   8.059  0.00  0.00    +0.000 A 
ATOM     21  C   UNL     1      45.574   1.848   8.683  0.00  0.00    +0.000 A 
ATOM     22  C   UNL     1      45.524   3.132   8.127  0.00  0.00    +0.000 A 
ATOM     23  C   UNL     1      46.218   3.381   6.931  0.00  0.00    +0.000 A 
ENDBRANCH  16  22
ENDBRANCH   1  16
TORSDOF 3
ENDMDL
MODEL 2
REMARK VINA RESULT:    -7.943      1.503      2.285
REMARK INTER + INTRA:          -9.851
REMARK INTER:                  -9.217
REMARK INTRA:                  -0.635
REMARK UNBOUND:                -0.516
REMARK  Name = 
REMARK  4 active torsions:
REMARK  status: ('A' for Active; 'I' for Inactive)
REMARK    1  A    between atoms: C_1  and  C_2
REMARK    2  A    between atoms: C_6  and  C_7
REMARK    3  A    between atoms: C_7  and  N_8
REMARK    4  A    between atoms: C_9  and  C_11
REMARK                            x       y       z     vdW  Elec       q    Type
REMARK                         _______ _______ _______ _____ _____    ______ ____
ROOT
ATOM      1  N   UNL     1      44.947   4.945  10.446  0.00  0.00    +0.000 N 
ATOM      2  C   UNL     1      44.160   5.839  11.125  0.00  0.00    +0.000 C 
ATOM      3  O   UNL     1      42.957   5.659  11.290  0.00  0.00    +0.000 OA
ATOM      4  H   UNL     1      45.880   5.217  10.152  0.00  0.00    +0.000 HD
ENDROOT
BRANCH   2   5
ATOM      5  C   UNL     1      44.844   6.998  11.711  0.00  0.00    +0.000 A 
ATOM      6  C   UNL     1      44.450   8.280  11.349  0.00  0.00    +0.000 A 
ATOM      7  S   UNL     1      45.311   9.513  12.150  0.00  0.00    +0.000 S 
ATOM      8  C   UNL     1      46.277   8.379  12.971  0.00  0.00    +0.000 A 
ATOM      9  N   UNL     1      47.258   8.784  13.822  0.00  0.00    +0.000 NA
ATOM     10  C   UNL     1      47.937   7.821  14.349  0.00  0.00    +0.000 A 
ATOM     11  N   UNL     1      47.718   6.489  14.110  0.00  0.00    +0.000 N 
ATOM     12  C   UNL     1      46.717   6.033  13.287  0.00  0.00    +0.000 A 
ATOM     13  O   UNL     1      46.514   4.832  13.133  0.00  0.00    +0.000 OA
ATOM     14  C   UNL     1      45.934   7.077  12.655  0.00  0.00    +0.000 A 
ATOM     15  H   UNL     1      48.282   5.784  14.562  0.00  0.00    +0.000 HD
ENDBRANCH   2   5
BRANCH   1  16
ATOM     16  C   UNL     1      44.402   3.758   9.833  0.00  0.00    +0.000 C 
BRANCH  16  22
ATOM     17  C   UNL     1      46.719  -0.176   7.701  0.00  0.00    +0.000 C 
ATOM     18  C   UNL     1      46.451   1.300   7.742  0.00  0.00    +0.000 A 
ATOM     19  C   UNL     1      47.018   2.160   6.796  0.00  0.00    +0.000 A 
ATOM     20  C   UNL     1      46.755   3.529   6.843  0.00  0.00    +0.000 A 
ATOM     21  C   UNL     1      45.920   4.052   7.831  0.00  0.00    +0.000 A 
ATOM     22  C   UNL     1      45.337   3.208   8.785  0.00  0.00    +0.000 A 
ATOM     23  C   UNL     1      45.612   1.832   8.731  0.00  0.00    +0.000 A 
ENDBRANCH  16  22
ENDBRANCH   1  16
TORSDOF 3
ENDMDL
MODEL 3
REMARK VINA RESULT:    -7.577      4.219      7.450
REMARK INTER + INTRA:          -9.422
REMARK INTER:                  -8.893
REMARK INTRA:                  -0.529
REMARK UNBOUND:                -0.516
REMARK  Name = 
REMARK  4 active torsions:
REMARK  status: ('A' for Active; 'I' for Inactive)
REMARK    1  A    between atoms: C_1  and  C_2
REMARK    2  A    between atoms: C_6  and  C_7
REMARK    3  A    between atoms: C_7  and  N_8
REMARK    4  A    between atoms: C_9  and  C_11
REMARK                            x       y       z     vdW  Elec       q    Type
REMARK                         _______ _______ _______ _____ _____    ______ ____
ROOT
ATOM      1  N   UNL     1      46.882   4.423  15.885  0.00  0.00    +0.000 N 
ATOM      2  C   UNL     1      46.916   4.171  14.537  0.00  0.00    +0.000 C 
ATOM      3  O   UNL     1      47.259   3.083  14.083  0.00  0.00    +0.000 OA
ATOM      4  H   UNL     1      46.795   5.378  16.217  0.00  0.00    +0.000 HD
ENDROOT
BRANCH   2   5
ATOM      5  C   UNL     1      46.451   5.250  13.659  0.00  0.00    +0.000 A 
ATOM      6  C   UNL     1      47.271   6.349  13.434  0.00  0.00    +0.000 A 
ATOM      7  S   UNL     1      46.606   7.491  12.358  0.00  0.00    +0.000 S 
ATOM      8  C   UNL     1      45.177   6.583  12.193  0.00  0.00    +0.000 A 
ATOM      9  N   UNL     1      44.156   7.024  11.411  0.00  0.00    +0.000 NA
ATOM     10  C   UNL     1      43.118   6.257  11.404  0.00  0.00    +0.000 A 
ATOM     11  N   UNL     1      43.012   5.083  12.104  0.00  0.00    +0.000 N 
ATOM     12  C   UNL     1      44.029   4.580  12.880  0.00  0.00    +0.000 A 
ATOM     13  O   UNL     1      43.922   3.500  13.453  0.00  0.00    +0.000 OA
ATOM     14  C   UNL     1      45.214   5.415  12.933  0.00  0.00    +0.000 A 
ATOM     15  H   UNL     1      42.173   4.524  12.050  0.00  0.00    +0.000 HD
ENDBRANCH   2   5
BRANCH   1  16
ATOM     16  C   UNL     1      47.300   3.441  16.857  0.00  0.00    +0.000 C 
BRANCH  16  22
ATOM     17  C   UNL     1      51.791   1.225  17.419  0.00  0.00    +0.000 C 
ATOM     18  C   UNL     1      50.959   2.474  17.394  0.00  0.00    +0.000 A 
ATOM     19  C   UNL     1      51.545   3.731  17.577  0.00  0.00    +0.000 A 
ATOM     20  C   UNL     1      50.760   4.885  17.545  0.00  0.00    +0.000 A 
ATOM     21  C   UNL     1      49.385   4.794  17.326  0.00  0.00    +0.000 A 
ATOM     22  C   UNL     1      48.778   3.546  17.135  0.00  0.00    +0.000 A 
ATOM     23  C   UNL     1      49.577   2.392  17.172  0.00  0.00    +0.000 A 
ENDBRANCH  16  22
ENDBRANCH   1  16
TORSDOF 3
ENDMDL
MODEL 4
REMARK VINA RESULT:    -7.559      1.707      3.083
REMARK INTER + INTRA:          -9.401
REMARK INTER:                  -8.769
REMARK INTRA:                  -0.632
REMARK UNBOUND:                -0.516
REMARK  Name = 
REMARK  4 active torsions:
REMARK  status: ('A' for Active; 'I' for Inactive)
REMARK    1  A    between atoms: C_1  and  C_2
REMARK    2  A    between atoms: C_6  and  C_7
REMARK    3  A    between atoms: C_7  and  N_8
REMARK    4  A    between atoms: C_9  and  C_11
REMARK                            x       y       z     vdW  Elec       q    Type
REMARK                         _______ _______ _______ _____ _____    ______ ____
ROOT
ATOM      1  N   UNL     1      45.086   4.423  10.520  0.00  0.00    +0.000 N 
ATOM      2  C   UNL     1      45.338   4.253  11.857  0.00  0.00    +0.000 C 
ATOM      3  O   UNL     1      45.049   3.218  12.451  0.00  0.00    +0.000 OA
ATOM      4  H   UNL     1      45.146   5.350  10.111  0.00  0.00    +0.000 HD
ENDROOT
BRANCH   2   5
ATOM      5  C   UNL     1      46.037   5.350  12.535  0.00  0.00    +0.000 A 
ATOM      6  C   UNL     1      47.124   5.067  13.352  0.00  0.00    +0.000 A 
ATOM      7  S   UNL     1      47.852   6.451  14.029  0.00  0.00    +0.000 S 
ATOM      8  C   UNL     1      46.710   7.476  13.296  0.00  0.00    +0.000 A 
ATOM      9  N   UNL     1      46.750   8.821  13.493  0.00  0.00    +0.000 NA
ATOM     10  C   UNL     1      45.804   9.475  12.908  0.00  0.00    +0.000 A 
ATOM     11  N   UNL     1      44.824   8.906  12.135  0.00  0.00    +0.000 N 
ATOM     12  C   UNL     1      44.764   7.557  11.879  0.00  0.00    +0.000 A 
ATOM     13  O   UNL     1      43.904   7.085  11.141  0.00  0.00    +0.000 OA
ATOM     14  C   UNL     1      45.797   6.774  12.529  0.00  0.00    +0.000 A 
ATOM     15  H   UNL     1      44.115   9.477  11.698  0.00  0.00    +0.000 HD
ENDBRANCH   2   5
BRANCH   1  16
ATOM     16  C   UNL     1      44.417   3.415   9.733  0.00  0.00    +0.000 C 
BRANCH  16  22
ATOM     17  C   UNL     1      46.822  -0.497   7.659  0.00  0.00    +0.000 C 
ATOM     18  C   UNL     1      46.487   0.965   7.652  0.00  0.00    +0.000 A 
ATOM     19  C   UNL     1      46.970   1.809   6.646  0.00  0.00    +0.000 A 
ATOM     20  C   UNL     1      46.644   3.165   6.649  0.00  0.00    +0.000 A 
ATOM     21  C   UNL     1      45.830   3.691   7.652  0.00  0.00    +0.000 A 
ATOM     22  C   UNL     1      45.331   2.864   8.667  0.00  0.00    +0.000 A 
ATOM     23  C   UNL     1      45.667   1.501   8.656  0.00  0.00    +0.000 A 
ENDBRANCH  16  22
ENDBRANCH   1  16
TORSDOF 3
ENDMDL
MODEL 5
REMARK VINA RESULT:    -7.123      2.060      2.989
REMARK INTER + INTRA:          -8.889
REMARK INTER:                  -8.119
REMARK INTRA:                  -0.769
REMARK UNBOUND:                -0.516
REMARK  Name = 
REMARK  4 active torsions:
REMARK  status: ('A' for Active; 'I' for Inactive)
REMARK    1  A    between atoms: C_1  and  C_2
REMARK    2  A    between atoms: C_6  and  C_7
REMARK    3  A    between atoms: C_7  and  N_8
REMARK    4  A    between atoms: C_9  and  C_11
REMARK                            x       y       z     vdW  Elec       q    Type
REMARK                         _______ _______ _______ _____ _____    ______ ____
ROOT
ATOM      1  N   UNL     1      45.743   6.473  12.513  0.00  0.00    +0.000 N 
ATOM      2  C   UNL     1      47.100   6.672  12.517  0.00  0.00    +0.000 C 
ATOM      3  O   UNL     1      47.717   6.998  11.507  0.00  0.00    +0.000 OA
ATOM      4  H   UNL     1      45.300   6.011  13.300  0.00  0.00    +0.000 HD
ENDROOT
BRANCH   2   5
ATOM      5  C   UNL     1      47.776   6.542  13.813  0.00  0.00    +0.000 A 
ATOM      6  C   UNL     1      48.676   7.520  14.216  0.00  0.00    +0.000 A 
ATOM      7  S   UNL     1      49.339   7.246  15.762  0.00  0.00    +0.000 S 
ATOM      8  C   UNL     1      48.486   5.784  15.927  0.00  0.00    +0.000 A 
ATOM      9  N   UNL     1      48.627   5.016  17.041  0.00  0.00    +0.000 NA
ATOM     10  C   UNL     1      47.950   3.917  17.020  0.00  0.00    +0.000 A 
ATOM     11  N   UNL     1      47.139   3.520  15.989  0.00  0.00    +0.000 N 
ATOM     12  C   UNL     1      46.938   4.279  14.861  0.00  0.00    +0.000 A 
ATOM     13  O   UNL     1      46.165   3.919  13.978  0.00  0.00    +0.000 OA
ATOM     14  C   UNL     1      47.690   5.518  14.828  0.00  0.00    +0.000 A 
ATOM     15  H   UNL     1      46.629   2.649  16.039  0.00  0.00    +0.000 HD
ENDBRANCH   2   5
BRANCH   1  16
ATOM     16  C   UNL     1      44.958   6.584  11.307  0.00  0.00    +0.000 C 
BRANCH  16  22
ATOM     17  C   UNL     1      46.010   3.563   7.413  0.00  0.00    +0.000 C 
ATOM     18  C   UNL     1      45.344   3.776   8.741  0.00  0.00    +0.000 A 
ATOM     19  C   UNL     1      44.645   2.741   9.369  0.00  0.00    +0.000 A 
ATOM     20  C   UNL     1      44.036   2.951  10.606  0.00  0.00    +0.000 A 
ATOM     21  C   UNL     1      44.124   4.196  11.230  0.00  0.00    +0.000 A 
ATOM     22  C   UNL     1      44.823   5.246  10.623  0.00  0.00    +0.000 A 
ATOM     23  C   UNL     1      45.430   5.024   9.375  0.00  0.00    +0.000 A 
ENDBRANCH  16  22
ENDBRANCH   1  16
TORSDOF 3
ENDMDL
MODEL 6
REMARK VINA RESULT:    -7.119      3.778      7.251
REMARK INTER + INTRA:          -8.884
REMARK INTER:                  -8.238
REMARK INTRA:                  -0.646
REMARK UNBOUND:                -0.516
REMARK  Name = 
REMARK  4 active torsions:
REMARK  status: ('A' for Active; 'I' for Inactive)
REMARK    1  A    between atoms: C_1  and  C_2
REMARK    2  A    between atoms: C_6  and  C_7
REMARK    3  A    between atoms: C_7  and  N_8
REMARK    4  A    between atoms: C_9  and  C_11
REMARK                            x       y       z     vdW  Elec       q    Type
REMARK                         _______ _______ _______ _____ _____    ______ ____
ROOT
ATOM      1  N   UNL     1      47.724   6.862  14.768  0.00  0.00    +0.000 N 
ATOM      2  C   UNL     1      47.798   6.395  13.480  0.00  0.00    +0.000 C 
ATOM      3  O   UNL     1      48.866   6.098  12.952  0.00  0.00    +0.000 OA
ATOM      4  H   UNL     1      46.865   7.288  15.100  0.00  0.00    +0.000 HD
ENDROOT
BRANCH   2   5
ATOM      5  C   UNL     1      46.522   6.200  12.782  0.00  0.00    +0.000 A 
ATOM      6  C   UNL     1      45.879   7.293  12.215  0.00  0.00    +0.000 A 
ATOM      7  S   UNL     1      44.435   6.893  11.403  0.00  0.00    +0.000 S 
ATOM      8  C   UNL     1      44.591   5.252  11.823  0.00  0.00    +0.000 A 
ATOM      9  N   UNL     1      43.650   4.343  11.451  0.00  0.00    +0.000 NA
ATOM     10  C   UNL     1      43.873   3.142  11.866  0.00  0.00    +0.000 A 
ATOM     11  N   UNL     1      44.958   2.765  12.615  0.00  0.00    +0.000 N 
ATOM     12  C   UNL     1      45.952   3.640  12.985  0.00  0.00    +0.000 A 
ATOM     13  O   UNL     1      46.936   3.260  13.611  0.00  0.00    +0.000 OA
ATOM     14  C   UNL     1      45.738   5.008  12.556  0.00  0.00    +0.000 A 
ATOM     15  H   UNL     1      45.078   1.804  12.902  0.00  0.00    +0.000 HD
ENDBRANCH   2   5
BRANCH   1  16
ATOM     16  C   UNL     1      48.903   7.085  15.569  0.00  0.00    +0.000 C 
BRANCH  16  22
ATOM     17  C   UNL     1      47.409   2.770  17.700  0.00  0.00    +0.000 C 
ATOM     18  C   UNL     1      48.484   3.790  17.462  0.00  0.00    +0.000 A 
ATOM     19  C   UNL     1      49.766   3.621  17.994  0.00  0.00    +0.000 A 
ATOM     20  C   UNL     1      50.757   4.574  17.758  0.00  0.00    +0.000 A 
ATOM     21  C   UNL     1      50.479   5.703  16.986  0.00  0.00    +0.000 A 
ATOM     22  C   UNL     1      49.203   5.890  16.438  0.00  0.00    +0.000 A 
ATOM     23  C   UNL     1      48.212   4.925  16.684  0.00  0.00    +0.000 A 
ENDBRANCH  16  22
ENDBRANCH   1  16
TORSDOF 3
ENDMDL
MODEL 7
REMARK VINA RESULT:    -6.887      4.515      7.597
REMARK INTER + INTRA:          -8.611
REMARK INTER:                  -7.850
REMARK INTRA:                  -0.761
REMARK UNBOUND:                -0.516
REMARK  Name = 
REMARK  4 active torsions:
REMARK  status: ('A' for Active; 'I' for Inactive)
REMARK    1  A    between atoms: C_1  and  C_2
REMARK    2  A    between atoms: C_6  and  C_7
REMARK    3  A    between atoms: C_7  and  N_8
REMARK    4  A    between atoms: C_9  and  C_11
REMARK                            x       y       z     vdW  Elec       q    Type
REMARK                         _______ _______ _______ _____ _____    ______ ____
ROOT
ATOM      1  N   UNL     1      47.041   4.588  15.933  0.00  0.00    +0.000 N 
ATOM      2  C   UNL     1      47.039   4.278  14.597  0.00  0.00    +0.000 C 
ATOM      3  O   UNL     1      47.272   3.144  14.189  0.00  0.00    +0.000 OA
ATOM      4  H   UNL     1      47.049   5.560  16.224  0.00  0.00    +0.000 HD
ENDROOT
BRANCH   2   5
ATOM      5  C   UNL     1      46.674   5.360  13.676  0.00  0.00    +0.000 A 
ATOM      6  C   UNL     1      45.477   5.286  12.975  0.00  0.00    +0.000 A 
ATOM      7  S   UNL     1      45.178   6.639  11.983  0.00  0.00    +0.000 S 
ATOM      8  C   UNL     1      46.663   7.349  12.415  0.00  0.00    +0.000 A 
ATOM      9  N   UNL     1      47.047   8.542  11.885  0.00  0.00    +0.000 NA
ATOM     10  C   UNL     1      48.209   8.947  12.271  0.00  0.00    +0.000 A 
ATOM     11  N   UNL     1      49.021   8.272  13.146  0.00  0.00    +0.000 N 
ATOM     12  C   UNL     1      48.661   7.083  13.733  0.00  0.00    +0.000 A 
ATOM     13  O   UNL     1      49.388   6.529  14.552  0.00  0.00    +0.000 OA
ATOM     14  C   UNL     1      47.367   6.575  13.319  0.00  0.00    +0.000 A 
ATOM     15  H   UNL     1      49.918   8.650  13.413  0.00  0.00    +0.000 HD
ENDBRANCH   2   5
BRANCH   1  16
ATOM     16  C   UNL     1      47.370   3.613  16.944  0.00  0.00    +0.000 C 
BRANCH  16  22
ATOM     17  C   UNL     1      51.750   1.170  17.441  0.00  0.00    +0.000 C 
ATOM     18  C   UNL     1      50.972   2.452  17.489  0.00  0.00    +0.000 A 
ATOM     19  C   UNL     1      51.605   3.667  17.774  0.00  0.00    +0.000 A 
ATOM     20  C   UNL     1      50.870   4.852  17.808  0.00  0.00    +0.000 A 
ATOM     21  C   UNL     1      49.498   4.837  17.554  0.00  0.00    +0.000 A 
ATOM     22  C   UNL     1      48.844   3.634  17.261  0.00  0.00    +0.000 A 
ATOM     23  C   UNL     1      49.593   2.446  17.232  0.00  0.00    +0.000 A 
ENDBRANCH  16  22
ENDBRANCH   1  16
TORSDOF 3
ENDMDL
MODEL 8
REMARK VINA RESULT:    -6.126      4.219      8.472
REMARK INTER + INTRA:          -7.717
REMARK INTER:                  -7.080
REMARK INTRA:                  -0.637
REMARK UNBOUND:                -0.516
REMARK  Name = 
REMARK  4 active torsions:
REMARK  status: ('A' for Active; 'I' for Inactive)
REMARK    1  A    between atoms: C_1  and  C_2
REMARK    2  A    between atoms: C_6  and  C_7
REMARK    3  A    between atoms: C_7  and  N_8
REMARK    4  A    between atoms: C_9  and  C_11
REMARK                            x       y       z     vdW  Elec       q    Type
REMARK                         _______ _______ _______ _____ _____    ______ ____
ROOT
ATOM      1  N   UNL     1      46.967   4.864  15.482  0.00  0.00    +0.000 N 
ATOM      2  C   UNL     1      46.792   4.240  14.274  0.00  0.00    +0.000 C 
ATOM      3  O   UNL     1      47.334   3.172  14.004  0.00  0.00    +0.000 OA
ATOM      4  H   UNL     1      46.677   5.830  15.596  0.00  0.00    +0.000 HD
ENDROOT
BRANCH   2   5
ATOM      5  C   UNL     1      45.862   4.880  13.337  0.00  0.00    +0.000 A 
ATOM      6  C   UNL     1      44.869   4.120  12.732  0.00  0.00    +0.000 A 
ATOM      7  S   UNL     1      43.846   5.018  11.707  0.00  0.00    +0.000 S 
ATOM      8  C   UNL     1      44.724   6.447  11.995  0.00  0.00    +0.000 A 
ATOM      9  N   UNL     1      44.379   7.613  11.387  0.00  0.00    +0.000 NA
ATOM     10  C   UNL     1      45.150   8.610  11.667  0.00  0.00    +0.000 A 
ATOM     11  N   UNL     1      46.232   8.547  12.507  0.00  0.00    +0.000 N 
ATOM     12  C   UNL     1      46.598   7.400  13.170  0.00  0.00    +0.000 A 
ATOM     13  O   UNL     1      47.541   7.390  13.955  0.00  0.00    +0.000 OA
ATOM     14  C   UNL     1      45.771   6.246  12.876  0.00  0.00    +0.000 A 
ATOM     15  H   UNL     1      46.791   9.368  12.689  0.00  0.00    +0.000 HD
ENDBRANCH   2   5
BRANCH   1  16
ATOM     16  C   UNL     1      47.844   4.332  16.498  0.00  0.00    +0.000 C 
BRANCH  16  22
ATOM     17  C   UNL     1      47.314   6.143  21.170  0.00  0.00    +0.000 C 
ATOM     18  C   UNL     1      47.925   6.250  19.804  0.00  0.00    +0.000 A 
ATOM     19  C   UNL     1      48.828   7.274  19.498  0.00  0.00    +0.000 A 
ATOM     20  C   UNL     1      49.394   7.357  18.226  0.00  0.00    +0.000 A 
ATOM     21  C   UNL     1      49.068   6.416  17.249  0.00  0.00    +0.000 A 
ATOM     22  C   UNL     1      48.171   5.378  17.534  0.00  0.00    +0.000 A 
ATOM     23  C   UNL     1      47.605   5.306  18.818  0.00  0.00    +0.000 A 
ENDBRANCH  16  22
ENDBRANCH   1  16
TORSDOF 3
ENDMDL
MODEL 9
REMARK VINA RESULT:    -6.016      2.596      4.160
REMARK INTER + INTRA:          -7.587
REMARK INTER:                  -7.038
REMARK INTRA:                  -0.549
REMARK UNBOUND:                -0.516
REMARK  Name = 
REMARK  4 active torsions:
REMARK  status: ('A' for Active; 'I' for Inactive)
REMARK    1  A    between atoms: C_1  and  C_2
REMARK    2  A    between atoms: C_6  and  C_7
REMARK    3  A    between atoms: C_7  and  N_8
REMARK    4  A    between atoms: C_9  and  C_11
REMARK                            x       y       z     vdW  Elec       q    Type
REMARK                         _______ _______ _______ _____ _____    ______ ____
ROOT
ATOM      1  N   UNL     1      45.541   6.033  13.347  0.00  0.00    +0.000 N 
ATOM      2  C   UNL     1      46.541   5.378  14.019  0.00  0.00    +0.000 C 
ATOM      3  O   UNL     1      46.428   4.212  14.386  0.00  0.00    +0.000 OA
ATOM      4  H   UNL     1      45.583   7.041  13.241  0.00  0.00    +0.000 HD
ENDROOT
BRANCH   2   5
ATOM      5  C   UNL     1      47.791   6.121  14.218  0.00  0.00    +0.000 A 
ATOM      6  C   UNL     1      48.400   6.112  15.466  0.00  0.00    +0.000 A 
ATOM      7  S   UNL     1      49.863   6.985  15.522  0.00  0.00    +0.000 S 
ATOM      8  C   UNL     1      49.709   7.449  13.892  0.00  0.00    +0.000 A 
ATOM      9  N   UNL     1      50.639   8.247  13.302  0.00  0.00    +0.000 NA
ATOM     10  C   UNL     1      50.381   8.551  12.075  0.00  0.00    +0.000 A 
ATOM     11  N   UNL     1      49.279   8.122  11.380  0.00  0.00    +0.000 N 
ATOM     12  C   UNL     1      48.332   7.287  11.923  0.00  0.00    +0.000 A 
ATOM     13  O   UNL     1      47.384   6.880  11.258  0.00  0.00    +0.000 OA
ATOM     14  C   UNL     1      48.568   6.929  13.308  0.00  0.00    +0.000 A 
ATOM     15  H   UNL     1      49.140   8.391  10.417  0.00  0.00    +0.000 HD
ENDBRANCH   2   5
BRANCH   1  16
ATOM     16  C   UNL     1      44.268   5.410  13.074  0.00  0.00    +0.000 C 
BRANCH  16  22
ATOM     17  C   UNL     1      45.830   4.590   8.353  0.00  0.00    +0.000 C 
ATOM     18  C   UNL     1      45.121   4.104   9.583  0.00  0.00    +0.000 A 
ATOM     19  C   UNL     1      44.583   2.814   9.641  0.00  0.00    +0.000 A 
ATOM     20  C   UNL     1      43.933   2.373  10.794  0.00  0.00    +0.000 A 
ATOM     21  C   UNL     1      43.817   3.214  11.901  0.00  0.00    +0.000 A 
ATOM     22  C   UNL     1      44.353   4.508  11.868  0.00  0.00    +0.000 A 
ATOM     23  C   UNL     1      45.003   4.943  10.701  0.00  0.00    +0.000 A 
ENDBRANCH  16  22
ENDBRANCH   1  16
TORSDOF 3
ENDMDL
