MODEL 1
REMARK VINA RESULT:    -8.900      0.000      0.000
REMARK INTER + INTRA:         -11.131
REMARK INTER:                 -11.502
REMARK INTRA:                   0.371
REMARK UNBOUND:                 0.371
REMARK  Name = 
REMARK  6 active torsions:
REMARK  status: ('A' for Active; 'I' for Inactive)
REMARK    1  A    between atoms: C_1  and  C_2
REMARK    2  A    between atoms: C_2  and  N_3
REMARK    3  A    between atoms: C_2  and  C_16
REMARK    4  A    between atoms: C_4  and  C_6
REMARK    5  A    between atoms: C_19  and  C_20
REMARK    6  A    between atoms: C_20  and  N_21
REMARK                            x       y       z     vdW  Elec       q    Type
REMARK                         _______ _______ _______ _____ _____    ______ ____
ROOT
ATOM      1  C   UNL     1      45.467   8.468  12.568  0.00  0.00    +0.000 C 
ATOM      2  C   UNL     1      46.497   7.341  12.522  0.00  0.00    +0.000 C 
ENDROOT
BRANCH   2   3
ATOM      3  C   UNL     1      45.871   6.154  11.814  0.00  0.00    +0.000 A 
ATOM      4  C   UNL     1      45.867   6.151  10.429  0.00  0.00    +0.000 A 
ATOM      5  C   UNL     1      45.432   5.034   9.729  0.00  0.00    +0.000 A 
ATOM      6  C   UNL     1      44.945   3.892  10.392  0.00  0.00    +0.000 A 
ATOM      7  C   UNL     1      44.894   3.919  11.789  0.00  0.00    +0.000 A 
ATOM      8  C   UNL     1      45.352   5.043  12.502  0.00  0.00    +0.000 A 
BRANCH   6   9
ATOM      9  C   UNL     1      44.450   2.672   9.621  0.00  0.00    +0.000 C 
BRANCH   9  10
ATOM     10  N   UNL     1      45.113   2.418   8.321  0.00  0.00    +0.000 NA
ATOM     11  C   UNL     1      45.616   3.663   7.720  0.00  0.00    +0.000 C 
ATOM     12  C   UNL     1      46.617   3.484   6.579  0.00  0.00    +0.000 C 
ATOM     13  C   UNL     1      47.699   2.471   6.918  0.00  0.00    +0.000 C 
ATOM     14  C   UNL     1      47.051   1.146   7.281  0.00  0.00    +0.000 C 
ATOM     15  C   UNL     1      46.063   1.296   8.440  0.00  0.00    +0.000 C 
ENDBRANCH   9  10
ENDBRANCH   6   9
ENDBRANCH   2   3
BRANCH   2  16
ATOM     16  N   UNL     1      46.941   6.922  13.839  0.00  0.00    +0.000 N 
ATOM     17  C   UNL     1      48.236   6.564  14.100  0.00  0.00    +0.000 C 
ATOM     18  O   UNL     1      49.115   6.566  13.247  0.00  0.00    +0.000 OA
ATOM     19  H   UNL     1      46.215   6.615  14.487  0.00  0.00    +0.000 HD
BRANCH  17  20
ATOM     20  C   UNL     1      48.541   6.232  15.492  0.00  0.00    +0.000 A 
ATOM     21  C   UNL     1      49.317   7.093  16.252  0.00  0.00    +0.000 A 
ATOM     22  S   UNL     1      49.613   6.519  17.830  0.00  0.00    +0.000 S 
ATOM     23  C   UNL     1      48.728   5.096  17.536  0.00  0.00    +0.000 A 
ATOM     24  N   UNL     1      48.624   4.116  18.481  0.00  0.00    +0.000 NA
ATOM     25  C   UNL     1      47.961   3.090  18.108  0.00  0.00    +0.000 A 
ATOM     26  N   UNL     1      47.358   2.936  16.877  0.00  0.00    +0.000 N 
ATOM     27  C   UNL     1      47.387   3.915  15.916  0.00  0.00    +0.000 A 
ATOM     28  O   UNL     1      46.762   3.802  14.862  0.00  0.00    +0.000 OA
ATOM     29  C   UNL     1      48.176   5.078  16.270  0.00  0.00    +0.000 A 
ATOM     30  H   UNL     1      46.823   2.113  16.660  0.00  0.00    +0.000 HD
ENDBRANCH  17  20
ENDBRANCH   2  16
TORSDOF 5
ENDMDL
MODEL 2
REMARK VINA RESULT:    -8.626      1.872      2.508
REMARK INTER + INTRA:         -10.777
REMARK INTER:                 -10.010
REMARK INTRA:                  -0.767
REMARK UNBOUND:                 0.371
REMARK  Name = 
REMARK  6 active torsions:
REMARK  status: ('A' for Active; 'I' for Inactive)
REMARK    1  A    between atoms: C_1  and  C_2
REMARK    2  A    between atoms: C_2  and  N_3
REMARK    3  A    between atoms: C_2  and  C_16
REMARK    4  A    between atoms: C_4  and  C_6
REMARK    5  A    between atoms: C_19  and  C_20
REMARK    6  A    between atoms: C_20  and  N_21
REMARK                            x       y       z     vdW  Elec       q    Type
REMARK                         _______ _______ _______ _____ _____    ______ ____
ROOT
ATOM      1  C   UNL     1      48.868   7.896  13.135  0.00  0.00    +0.000 C 
ATOM      2  C   UNL     1      48.424   6.590  13.790  0.00  0.00    +0.000 C 
ENDROOT
BRANCH   2   3
ATOM      3  C   UNL     1      47.173   6.106  13.082  0.00  0.00    +0.000 A 
ATOM      4  C   UNL     1      46.602   6.933  12.130  0.00  0.00    +0.000 A 
ATOM      5  C   UNL     1      45.540   6.488  11.355  0.00  0.00    +0.000 A 
ATOM      6  C   UNL     1      44.983   5.208  11.535  0.00  0.00    +0.000 A 
ATOM      7  C   UNL     1      45.521   4.395  12.536  0.00  0.00    +0.000 A 
ATOM      8  C   UNL     1      46.611   4.837  13.311  0.00  0.00    +0.000 A 
BRANCH   6   9
ATOM      9  C   UNL     1      43.804   4.727  10.695  0.00  0.00    +0.000 C 
BRANCH   9  10
ATOM     10  N   UNL     1      44.147   3.918   9.502  0.00  0.00    +0.000 NA
ATOM     11  C   UNL     1      45.254   4.520   8.745  0.00  0.00    +0.000 C 
ATOM     12  C   UNL     1      45.923   3.604   7.720  0.00  0.00    +0.000 C 
ATOM     13  C   UNL     1      46.230   2.230   8.293  0.00  0.00    +0.000 C 
ATOM     14  C   UNL     1      44.949   1.607   8.820  0.00  0.00    +0.000 C 
ATOM     15  C   UNL     1      44.276   2.495   9.868  0.00  0.00    +0.000 C 
ENDBRANCH   9  10
ENDBRANCH   6   9
ENDBRANCH   2   3
BRANCH   2  16
ATOM     16  N   UNL     1      48.138   6.733  15.205  0.00  0.00    +0.000 N 
ATOM     17  C   UNL     1      49.075   6.497  16.174  0.00  0.00    +0.000 C 
ATOM     18  O   UNL     1      50.222   6.145  15.923  0.00  0.00    +0.000 OA
ATOM     19  H   UNL     1      47.153   6.720  15.473  0.00  0.00    +0.000 HD
BRANCH  17  20
ATOM     20  C   UNL     1      48.652   6.750  17.551  0.00  0.00    +0.000 A 
ATOM     21  C   UNL     1      48.310   8.035  17.942  0.00  0.00    +0.000 A 
ATOM     22  S   UNL     1      47.894   8.151  19.592  0.00  0.00    +0.000 S 
ATOM     23  C   UNL     1      48.177   6.490  19.834  0.00  0.00    +0.000 A 
ATOM     24  N   UNL     1      48.055   5.922  21.070  0.00  0.00    +0.000 NA
ATOM     25  C   UNL     1      48.334   4.676  21.108  0.00  0.00    +0.000 A 
ATOM     26  N   UNL     1      48.709   3.910  20.024  0.00  0.00    +0.000 N 
ATOM     27  C   UNL     1      48.791   4.423  18.755  0.00  0.00    +0.000 A 
ATOM     28  O   UNL     1      49.031   3.705  17.784  0.00  0.00    +0.000 OA
ATOM     29  C   UNL     1      48.538   5.847  18.666  0.00  0.00    +0.000 A 
ATOM     30  H   UNL     1      48.883   2.924  20.120  0.00  0.00    +0.000 HD
ENDBRANCH  17  20
ENDBRANCH   2  16
TORSDOF 5
ENDMDL
MODEL 3
REMARK VINA RESULT:    -8.444      2.533      3.621
REMARK INTER + INTRA:         -10.541
REMARK INTER:                  -9.643
REMARK INTRA:                  -0.898
REMARK UNBOUND:                 0.371
REMARK  Name = 
REMARK  6 active torsions:
REMARK  status: ('A' for Active; 'I' for Inactive)
REMARK    1  A    between atoms: C_1  and  C_2
REMARK    2  A    between atoms: C_2  and  N_3
REMARK    3  A    between atoms: C_2  and  C_16
REMARK    4  A    between atoms: C_4  and  C_6
REMARK    5  A    between atoms: C_19  and  C_20
REMARK    6  A    between atoms: C_20  and  N_21
REMARK                            x       y       z     vdW  Elec       q    Type
REMARK                         _______ _______ _______ _____ _____    ______ ____
ROOT
ATOM      1  C   UNL     1      49.200   7.424  12.881  0.00  0.00    +0.000 C 
ATOM      2  C   UNL     1      48.493   6.354  13.710  0.00  0.00    +0.000 C 
ENDROOT
BRANCH   2   3
ATOM      3  C   UNL     1      47.226   5.950  12.981  0.00  0.00    +0.000 A 
ATOM      4  C   UNL     1      46.844   6.694  11.877  0.00  0.00    +0.000 A 
ATOM      5  C   UNL     1      45.772   6.291  11.093  0.00  0.00    +0.000 A 
ATOM      6  C   UNL     1      45.015   5.148  11.410  0.00  0.00    +0.000 A 
ATOM      7  C   UNL     1      45.364   4.431  12.558  0.00  0.00    +0.000 A 
ATOM      8  C   UNL     1      46.463   4.826  13.345  0.00  0.00    +0.000 A 
BRANCH   6   9
ATOM      9  C   UNL     1      43.826   4.717  10.557  0.00  0.00    +0.000 C 
BRANCH   9  10
ATOM     10  N   UNL     1      44.141   3.837   9.408  0.00  0.00    +0.000 NA
ATOM     11  C   UNL     1      45.203   4.409   8.567  0.00  0.00    +0.000 C 
ATOM     12  C   UNL     1      45.851   3.440   7.579  0.00  0.00    +0.000 C 
ATOM     13  C   UNL     1      46.212   2.114   8.229  0.00  0.00    +0.000 C 
ATOM     14  C   UNL     1      44.968   1.502   8.848  0.00  0.00    +0.000 C 
ATOM     15  C   UNL     1      44.316   2.445   9.862  0.00  0.00    +0.000 C 
ENDBRANCH   9  10
ENDBRANCH   6   9
ENDBRANCH   2   3
BRANCH   2  16
ATOM     16  N   UNL     1      48.145   6.806  15.044  0.00  0.00    +0.000 N 
ATOM     17  C   UNL     1      48.938   6.565  16.133  0.00  0.00    +0.000 C 
ATOM     18  O   UNL     1      49.995   5.950  16.068  0.00  0.00    +0.000 OA
ATOM     19  H   UNL     1      47.165   7.041  15.203  0.00  0.00    +0.000 HD
BRANCH  17  20
ATOM     20  C   UNL     1      48.484   7.144  17.397  0.00  0.00    +0.000 A 
ATOM     21  C   UNL     1      48.281   6.325  18.498  0.00  0.00    +0.000 A 
ATOM     22  S   UNL     1      47.701   7.164  19.865  0.00  0.00    +0.000 S 
ATOM     23  C   UNL     1      47.686   8.640  19.019  0.00  0.00    +0.000 A 
ATOM     24  N   UNL     1      47.234   9.788  19.604  0.00  0.00    +0.000 NA
ATOM     25  C   UNL     1      47.247  10.811  18.838  0.00  0.00    +0.000 A 
ATOM     26  N   UNL     1      47.688  10.823  17.532  0.00  0.00    +0.000 N 
ATOM     27  C   UNL     1      48.204   9.709  16.920  0.00  0.00    +0.000 A 
ATOM     28  O   UNL     1      48.684   9.759  15.788  0.00  0.00    +0.000 OA
ATOM     29  C   UNL     1      48.160   8.506  17.729  0.00  0.00    +0.000 A 
ATOM     30  H   UNL     1      47.700  11.673  16.995  0.00  0.00    +0.000 HD
ENDBRANCH  17  20
ENDBRANCH   2  16
TORSDOF 5
ENDMDL
MODEL 4
REMARK VINA RESULT:    -8.130      4.013      9.554
REMARK INTER + INTRA:         -10.136
REMARK INTER:                  -9.084
REMARK INTRA:                  -1.052
REMARK UNBOUND:                 0.371
REMARK  Name = 
REMARK  6 active torsions:
REMARK  status: ('A' for Active; 'I' for Inactive)
REMARK    1  A    between atoms: C_1  and  C_2
REMARK    2  A    between atoms: C_2  and  N_3
REMARK    3  A    between atoms: C_2  and  C_16
REMARK    4  A    between atoms: C_4  and  C_6
REMARK    5  A    between atoms: C_19  and  C_20
REMARK    6  A    between atoms: C_20  and  N_21
REMARK                            x       y       z     vdW  Elec       q    Type
REMARK                         _______ _______ _______ _____ _____    ______ ____
ROOT
ATOM      1  C   UNL     1      47.632   3.133  16.873  0.00  0.00    +0.000 C 
ATOM      2  C   UNL     1      47.980   4.475  16.232  0.00  0.00    +0.000 C 
ENDROOT
BRANCH   2   3
ATOM      3  C   UNL     1      48.071   5.516  17.331  0.00  0.00    +0.000 A 
ATOM      4  C   UNL     1      48.848   6.639  17.100  0.00  0.00    +0.000 A 
ATOM      5  C   UNL     1      48.860   7.687  18.011  0.00  0.00    +0.000 A 
ATOM      6  C   UNL     1      48.125   7.629  19.210  0.00  0.00    +0.000 A 
ATOM      7  C   UNL     1      47.389   6.470  19.471  0.00  0.00    +0.000 A 
ATOM      8  C   UNL     1      47.359   5.414  18.539  0.00  0.00    +0.000 A 
BRANCH   6   9
ATOM      9  C   UNL     1      48.155   8.772  20.219  0.00  0.00    +0.000 C 
BRANCH   9  10
ATOM     10  N   UNL     1      46.864   9.462  20.452  0.00  0.00    +0.000 NA
ATOM     11  C   UNL     1      46.520   9.490  21.881  0.00  0.00    +0.000 C 
ATOM     12  C   UNL     1      45.415  10.473  22.270  0.00  0.00    +0.000 C 
ATOM     13  C   UNL     1      45.622  11.845  21.647  0.00  0.00    +0.000 C 
ATOM     14  C   UNL     1      45.712  11.704  20.138  0.00  0.00    +0.000 C 
ATOM     15  C   UNL     1      46.830  10.744  19.724  0.00  0.00    +0.000 C 
ENDBRANCH   9  10
ENDBRANCH   6   9
ENDBRANCH   2   3
BRANCH   2  16
ATOM     16  N   UNL     1      47.001   4.908  15.253  0.00  0.00    +0.000 N 
ATOM     17  C   UNL     1      47.353   5.536  14.088  0.00  0.00    +0.000 C 
ATOM     18  O   UNL     1      48.514   5.783  13.786  0.00  0.00    +0.000 OA
ATOM     19  H   UNL     1      46.041   5.006  15.582  0.00  0.00    +0.000 HD
BRANCH  17  20
ATOM     20  C   UNL     1      46.256   5.850  13.173  0.00  0.00    +0.000 A 
ATOM     21  C   UNL     1      45.985   7.171  12.848  0.00  0.00    +0.000 A 
ATOM     22  S   UNL     1      44.641   7.349  11.814  0.00  0.00    +0.000 S 
ATOM     23  C   UNL     1      44.371   5.669  11.787  0.00  0.00    +0.000 A 
ATOM     24  N   UNL     1      43.314   5.130  11.111  0.00  0.00    +0.000 NA
ATOM     25  C   UNL     1      43.216   3.861  11.209  0.00  0.00    +0.000 A 
ATOM     26  N   UNL     1      44.085   3.046  11.904  0.00  0.00    +0.000 N 
ATOM     27  C   UNL     1      45.192   3.534  12.551  0.00  0.00    +0.000 A 
ATOM     28  O   UNL     1      46.011   2.784  13.082  0.00  0.00    +0.000 OA
ATOM     29  C   UNL     1      45.318   4.978  12.517  0.00  0.00    +0.000 A 
ATOM     30  H   UNL     1      43.967   2.047  11.913  0.00  0.00    +0.000 HD
ENDBRANCH  17  20
ENDBRANCH   2  16
TORSDOF 5
ENDMDL
MODEL 5
REMARK VINA RESULT:    -7.874      3.025      8.595
REMARK INTER + INTRA:          -9.805
REMARK INTER:                  -8.856
REMARK INTRA:                  -0.948
REMARK UNBOUND:                 0.371
REMARK  Name = 
REMARK  6 active torsions:
REMARK  status: ('A' for Active; 'I' for Inactive)
REMARK    1  A    between atoms: C_1  and  C_2
REMARK    2  A    between atoms: C_2  and  N_3
REMARK    3  A    between atoms: C_2  and  C_16
REMARK    4  A    between atoms: C_4  and  C_6
REMARK    5  A    between atoms: C_19  and  C_20
REMARK    6  A    between atoms: C_20  and  N_21
REMARK                            x       y       z     vdW  Elec       q    Type
REMARK                         _______ _______ _______ _____ _____    ______ ____
ROOT
ATOM      1  C   UNL     1      49.661   7.606  12.548  0.00  0.00    +0.000 C 
ATOM      2  C   UNL     1      48.331   7.275  13.222  0.00  0.00    +0.000 C 
ENDROOT
BRANCH   2   3
ATOM      3  C   UNL     1      48.624   6.715  14.600  0.00  0.00    +0.000 A 
ATOM      4  C   UNL     1      47.810   5.701  15.077  0.00  0.00    +0.000 A 
ATOM      5  C   UNL     1      48.110   5.058  16.270  0.00  0.00    +0.000 A 
ATOM      6  C   UNL     1      49.218   5.436  17.052  0.00  0.00    +0.000 A 
ATOM      7  C   UNL     1      50.005   6.499  16.600  0.00  0.00    +0.000 A 
ATOM      8  C   UNL     1      49.714   7.141  15.381  0.00  0.00    +0.000 A 
BRANCH   6   9
ATOM      9  C   UNL     1      49.536   4.740  18.371  0.00  0.00    +0.000 C 
BRANCH   9  10
ATOM     10  N   UNL     1      49.251   5.521  19.598  0.00  0.00    +0.000 NA
ATOM     11  C   UNL     1      47.930   6.164  19.531  0.00  0.00    +0.000 C 
ATOM     12  C   UNL     1      47.386   6.685  20.862  0.00  0.00    +0.000 C 
ATOM     13  C   UNL     1      47.531   5.664  21.980  0.00  0.00    +0.000 C 
ATOM     14  C   UNL     1      48.990   5.266  22.112  0.00  0.00    +0.000 C 
ATOM     15  C   UNL     1      49.550   4.717  20.798  0.00  0.00    +0.000 C 
ENDBRANCH   9  10
ENDBRANCH   6   9
ENDBRANCH   2   3
BRANCH   2  16
ATOM     16  N   UNL     1      47.542   6.311  12.479  0.00  0.00    +0.000 N 
ATOM     17  C   UNL     1      46.397   6.653  11.811  0.00  0.00    +0.000 C 
ATOM     18  O   UNL     1      45.951   7.794  11.791  0.00  0.00    +0.000 OA
ATOM     19  H   UNL     1      47.689   5.328  12.711  0.00  0.00    +0.000 HD
BRANCH  17  20
ATOM     20  C   UNL     1      45.752   5.581  11.054  0.00  0.00    +0.000 A 
ATOM     21  C   UNL     1      45.831   5.571   9.669  0.00  0.00    +0.000 A 
ATOM     22  S   UNL     1      44.977   4.279   8.954  0.00  0.00    +0.000 S 
ATOM     23  C   UNL     1      44.463   3.709  10.473  0.00  0.00    +0.000 A 
ATOM     24  N   UNL     1      43.632   2.631  10.582  0.00  0.00    +0.000 NA
ATOM     25  C   UNL     1      43.300   2.339  11.781  0.00  0.00    +0.000 A 
ATOM     26  N   UNL     1      43.729   3.004  12.910  0.00  0.00    +0.000 N 
ATOM     27  C   UNL     1      44.607   4.056  12.855  0.00  0.00    +0.000 A 
ATOM     28  O   UNL     1      45.057   4.575  13.877  0.00  0.00    +0.000 OA
ATOM     29  C   UNL     1      44.971   4.463  11.512  0.00  0.00    +0.000 A 
ATOM     30  H   UNL     1      43.453   2.700  13.829  0.00  0.00    +0.000 HD
ENDBRANCH  17  20
ENDBRANCH   2  16
TORSDOF 5
ENDMDL
MODEL 6
REMARK VINA RESULT:    -7.697      3.205      8.993
REMARK INTER + INTRA:          -9.576
REMARK INTER:                  -8.557
REMARK INTRA:                  -1.019
REMARK UNBOUND:                 0.371
REMARK  Name = 
REMARK  6 active torsions:
REMARK  status: ('A' for Active; 'I' for Inactive)
REMARK    1  A    between atoms: C_1  and  C_2
REMARK    2  A    between atoms: C_2  and  N_3
REMARK    3  A    between atoms: C_2  and  C_16
REMARK    4  A    between atoms: C_4  and  C_6
REMARK    5  A    between atoms: C_19  and  C_20
REMARK    6  A    between atoms: C_20  and  N_21
REMARK                            x       y       z     vdW  Elec       q    Type
REMARK                         _______ _______ _______ _____ _____    ______ ____
ROOT
ATOM      1  C   UNL     1      48.993   7.761  11.420  0.00  0.00    +0.000 C 
ATOM      2  C   UNL     1      47.772   7.698  12.335  0.00  0.00    +0.000 C 
ENDROOT
BRANCH   2   3
ATOM      3  C   UNL     1      48.254   7.716  13.773  0.00  0.00    +0.000 A 
ATOM      4  C   UNL     1      48.430   8.946  14.385  0.00  0.00    +0.000 A 
ATOM      5  C   UNL     1      48.738   9.022  15.737  0.00  0.00    +0.000 A 
ATOM      6  C   UNL     1      48.922   7.865  16.517  0.00  0.00    +0.000 A 
ATOM      7  C   UNL     1      48.803   6.624  15.885  0.00  0.00    +0.000 A 
ATOM      8  C   UNL     1      48.472   6.543  14.519  0.00  0.00    +0.000 A 
BRANCH   6   9
ATOM      9  C   UNL     1      49.278   7.951  17.998  0.00  0.00    +0.000 C 
BRANCH   9  10
ATOM     10  N   UNL     1      48.134   7.933  18.939  0.00  0.00    +0.000 NA
ATOM     11  C   UNL     1      48.289   6.881  19.954  0.00  0.00    +0.000 C 
ATOM     12  C   UNL     1      47.371   7.002  21.170  0.00  0.00    +0.000 C 
ATOM     13  C   UNL     1      47.344   8.415  21.731  0.00  0.00    +0.000 C 
ATOM     14  C   UNL     1      46.923   9.382  20.638  0.00  0.00    +0.000 C 
ATOM     15  C   UNL     1      47.845   9.298  19.420  0.00  0.00    +0.000 C 
ENDBRANCH   9  10
ENDBRANCH   6   9
ENDBRANCH   2   3
BRANCH   2  16
ATOM     16  N   UNL     1      46.964   6.511  12.125  0.00  0.00    +0.000 N 
ATOM     17  C   UNL     1      45.604   6.561  11.984  0.00  0.00    +0.000 C 
ATOM     18  O   UNL     1      44.965   7.606  12.028  0.00  0.00    +0.000 OA
ATOM     19  H   UNL     1      47.390   5.620  12.381  0.00  0.00    +0.000 HD
BRANCH  17  20
ATOM     20  C   UNL     1      44.940   5.286  11.710  0.00  0.00    +0.000 A 
ATOM     21  C   UNL     1      44.182   4.677  12.698  0.00  0.00    +0.000 A 
ATOM     22  S   UNL     1      43.530   3.176  12.219  0.00  0.00    +0.000 S 
ATOM     23  C   UNL     1      44.258   3.289  10.685  0.00  0.00    +0.000 A 
ATOM     24  N   UNL     1      44.143   2.284   9.769  0.00  0.00    +0.000 NA
ATOM     25  C   UNL     1      44.771   2.491   8.676  0.00  0.00    +0.000 A 
ATOM     26  N   UNL     1      45.501   3.622   8.379  0.00  0.00    +0.000 N 
ATOM     27  C   UNL     1      45.598   4.682   9.243  0.00  0.00    +0.000 A 
ATOM     28  O   UNL     1      46.171   5.724   8.924  0.00  0.00    +0.000 OA
ATOM     29  C   UNL     1      44.949   4.474  10.522  0.00  0.00    +0.000 A 
ATOM     30  H   UNL     1      45.945   3.734   7.483  0.00  0.00    +0.000 HD
ENDBRANCH  17  20
ENDBRANCH   2  16
TORSDOF 5
ENDMDL
MODEL 7
REMARK VINA RESULT:    -7.670      3.590      9.313
REMARK INTER + INTRA:          -9.541
REMARK INTER:                  -8.770
REMARK INTRA:                  -0.771
REMARK UNBOUND:                 0.371
REMARK  Name = 
REMARK  6 active torsions:
REMARK  status: ('A' for Active; 'I' for Inactive)
REMARK    1  A    between atoms: C_1  and  C_2
REMARK    2  A    between atoms: C_2  and  N_3
REMARK    3  A    between atoms: C_2  and  C_16
REMARK    4  A    between atoms: C_4  and  C_6
REMARK    5  A    between atoms: C_19  and  C_20
REMARK    6  A    between atoms: C_20  and  N_21
REMARK                            x       y       z     vdW  Elec       q    Type
REMARK                         _______ _______ _______ _____ _____    ______ ____
ROOT
ATOM      1  C   UNL     1      46.814   3.160  17.674  0.00  0.00    +0.000 C 
ATOM      2  C   UNL     1      47.646   3.495  16.438  0.00  0.00    +0.000 C 
ENDROOT
BRANCH   2   3
ATOM      3  C   UNL     1      48.961   4.093  16.899  0.00  0.00    +0.000 A 
ATOM      4  C   UNL     1      49.914   3.239  17.430  0.00  0.00    +0.000 A 
ATOM      5  C   UNL     1      51.183   3.707  17.742  0.00  0.00    +0.000 A 
ATOM      6  C   UNL     1      51.532   5.060  17.571  0.00  0.00    +0.000 A 
ATOM      7  C   UNL     1      50.552   5.933  17.092  0.00  0.00    +0.000 A 
ATOM      8  C   UNL     1      49.269   5.458  16.756  0.00  0.00    +0.000 A 
BRANCH   6   9
ATOM      9  C   UNL     1      52.922   5.576  17.932  0.00  0.00    +0.000 C 
BRANCH   9  10
ATOM     10  N   UNL     1      53.264   5.556  19.373  0.00  0.00    +0.000 NA
ATOM     11  C   UNL     1      52.188   6.137  20.190  0.00  0.00    +0.000 C 
ATOM     12  C   UNL     1      52.271   5.844  21.688  0.00  0.00    +0.000 C 
ATOM     13  C   UNL     1      52.549   4.376  21.972  0.00  0.00    +0.000 C 
ATOM     14  C   UNL     1      53.831   3.963  21.269  0.00  0.00    +0.000 C 
ATOM     15  C   UNL     1      53.761   4.223  19.763  0.00  0.00    +0.000 C 
ENDBRANCH   9  10
ENDBRANCH   6   9
ENDBRANCH   2   3
BRANCH   2  16
ATOM     16  N   UNL     1      46.989   4.433  15.547  0.00  0.00    +0.000 N 
ATOM     17  C   UNL     1      46.879   4.216  14.200  0.00  0.00    +0.000 C 
ATOM     18  O   UNL     1      47.327   3.220  13.645  0.00  0.00    +0.000 OA
ATOM     19  H   UNL     1      46.877   5.386  15.893  0.00  0.00    +0.000 HD
BRANCH  17  20
ATOM     20  C   UNL     1      46.129   5.222  13.448  0.00  0.00    +0.000 A 
ATOM     21  C   UNL     1      46.628   6.511  13.334  0.00  0.00    +0.000 A 
ATOM     22  S   UNL     1      45.597   7.559  12.470  0.00  0.00    +0.000 S 
ATOM     23  C   UNL     1      44.447   6.326  12.241  0.00  0.00    +0.000 A 
ATOM     24  N   UNL     1      43.263   6.568  11.606  0.00  0.00    +0.000 NA
ATOM     25  C   UNL     1      42.483   5.559  11.539  0.00  0.00    +0.000 A 
ATOM     26  N   UNL     1      42.765   4.301  12.028  0.00  0.00    +0.000 N 
ATOM     27  C   UNL     1      43.962   3.995  12.623  0.00  0.00    +0.000 A 
ATOM     28  O   UNL     1      44.237   2.844  12.965  0.00  0.00    +0.000 OA
ATOM     29  C   UNL     1      44.862   5.121  12.774  0.00  0.00    +0.000 A 
ATOM     30  H   UNL     1      42.116   3.541  11.913  0.00  0.00    +0.000 HD
ENDBRANCH  17  20
ENDBRANCH   2  16
TORSDOF 5
ENDMDL
MODEL 8
REMARK VINA RESULT:    -7.560      3.450      5.442
REMARK INTER + INTRA:          -9.398
REMARK INTER:                  -8.810
REMARK INTRA:                  -0.589
REMARK UNBOUND:                 0.371
REMARK  Name = 
REMARK  6 active torsions:
REMARK  status: ('A' for Active; 'I' for Inactive)
REMARK    1  A    between atoms: C_1  and  C_2
REMARK    2  A    between atoms: C_2  and  N_3
REMARK    3  A    between atoms: C_2  and  C_16
REMARK    4  A    between atoms: C_4  and  C_6
REMARK    5  A    between atoms: C_19  and  C_20
REMARK    6  A    between atoms: C_20  and  N_21
REMARK                            x       y       z     vdW  Elec       q    Type
REMARK                         _______ _______ _______ _____ _____    ______ ____
ROOT
ATOM      1  C   UNL     1      47.262   3.171  17.339  0.00  0.00    +0.000 C 
ATOM      2  C   UNL     1      48.146   4.393  17.098  0.00  0.00    +0.000 C 
ENDROOT
BRANCH   2   3
ATOM      3  C   UNL     1      47.854   4.923  15.707  0.00  0.00    +0.000 A 
ATOM      4  C   UNL     1      47.037   4.169  14.882  0.00  0.00    +0.000 A 
ATOM      5  C   UNL     1      46.626   4.666  13.652  0.00  0.00    +0.000 A 
ATOM      6  C   UNL     1      47.054   5.924  13.186  0.00  0.00    +0.000 A 
ATOM      7  C   UNL     1      47.927   6.658  13.994  0.00  0.00    +0.000 A 
ATOM      8  C   UNL     1      48.330   6.165  15.249  0.00  0.00    +0.000 A 
BRANCH   6   9
ATOM      9  C   UNL     1      46.617   6.460  11.827  0.00  0.00    +0.000 C 
BRANCH   9  10
ATOM     10  N   UNL     1      45.241   6.106  11.405  0.00  0.00    +0.000 NA
ATOM     11  C   UNL     1      45.235   4.927  10.527  0.00  0.00    +0.000 C 
ATOM     12  C   UNL     1      43.872   4.264  10.328  0.00  0.00    +0.000 C 
ATOM     13  C   UNL     1      43.131   4.071  11.642  0.00  0.00    +0.000 C 
ATOM     14  C   UNL     1      42.982   5.413  12.337  0.00  0.00    +0.000 C 
ATOM     15  C   UNL     1      44.338   6.084  12.571  0.00  0.00    +0.000 C 
ENDBRANCH   9  10
ENDBRANCH   6   9
ENDBRANCH   2   3
BRANCH   2  16
ATOM     16  N   UNL     1      49.563   4.099  17.202  0.00  0.00    +0.000 N 
ATOM     17  C   UNL     1      50.263   4.253  18.368  0.00  0.00    +0.000 C 
ATOM     18  O   UNL     1      49.752   4.652  19.407  0.00  0.00    +0.000 OA
ATOM     19  H   UNL     1      50.085   4.064  16.326  0.00  0.00    +0.000 HD
BRANCH  17  20
ATOM     20  C   UNL     1      51.669   3.850  18.329  0.00  0.00    +0.000 A 
ATOM     21  C   UNL     1      52.655   4.749  18.704  0.00  0.00    +0.000 A 
ATOM     22  S   UNL     1      54.234   4.126  18.544  0.00  0.00    +0.000 S 
ATOM     23  C   UNL     1      53.646   2.643  17.950  0.00  0.00    +0.000 A 
ATOM     24  N   UNL     1      54.494   1.649  17.556  0.00  0.00    +0.000 NA
ATOM     25  C   UNL     1      53.912   0.608  17.098  0.00  0.00    +0.000 A 
ATOM     26  N   UNL     1      52.547   0.435  17.006  0.00  0.00    +0.000 N 
ATOM     27  C   UNL     1      51.655   1.381  17.441  0.00  0.00    +0.000 A 
ATOM     28  O   UNL     1      50.442   1.171  17.442  0.00  0.00    +0.000 OA
ATOM     29  C   UNL     1      52.265   2.606  17.918  0.00  0.00    +0.000 A 
ATOM     30  H   UNL     1      52.154  -0.426  16.664  0.00  0.00    +0.000 HD
ENDBRANCH  17  20
ENDBRANCH   2  16
TORSDOF 5
ENDMDL
MODEL 9
REMARK VINA RESULT:    -7.492      3.575      8.551
REMARK INTER + INTRA:          -9.311
REMARK INTER:                  -8.584
REMARK INTRA:                  -0.727
REMARK UNBOUND:                 0.371
REMARK  Name = 
REMARK  6 active torsions:
REMARK  status: ('A' for Active; 'I' for Inactive)
REMARK    1  A    between atoms: C_1  and  C_2
REMARK    2  A    between atoms: C_2  and  N_3
REMARK    3  A    between atoms: C_2  and  C_16
REMARK    4  A    between atoms: C_4  and  C_6
REMARK    5  A    between atoms: C_19  and  C_20
REMARK    6  A    between atoms: C_20  and  N_21
REMARK                            x       y       z     vdW  Elec       q    Type
REMARK                         _______ _______ _______ _____ _____    ______ ____
ROOT
ATOM      1  C   UNL     1      46.928   3.182  17.526  0.00  0.00    +0.000 C 
ATOM      2  C   UNL     1      47.850   3.692  16.421  0.00  0.00    +0.000 C 
ENDROOT
BRANCH   2   3
ATOM      3  C   UNL     1      49.015   4.415  17.071  0.00  0.00    +0.000 A 
ATOM      4  C   UNL     1      50.048   3.651  17.588  0.00  0.00    +0.000 A 
ATOM      5  C   UNL     1      51.199   4.258  18.071  0.00  0.00    +0.000 A 
ATOM      6  C   UNL     1      51.341   5.658  18.092  0.00  0.00    +0.000 A 
ATOM      7  C   UNL     1      50.273   6.430  17.625  0.00  0.00    +0.000 A 
ATOM      8  C   UNL     1      49.112   5.817  17.117  0.00  0.00    +0.000 A 
BRANCH   6   9
ATOM      9  C   UNL     1      52.599   6.323  18.640  0.00  0.00    +0.000 C 
BRANCH   9  10
ATOM     10  N   UNL     1      53.506   6.919  17.632  0.00  0.00    +0.000 NA
ATOM     11  C   UNL     1      53.740   6.000  16.509  0.00  0.00    +0.000 C 
ATOM     12  C   UNL     1      54.354   6.633  15.260  0.00  0.00    +0.000 C 
ATOM     13  C   UNL     1      53.661   7.930  14.874  0.00  0.00    +0.000 C 
ATOM     14  C   UNL     1      53.709   8.894  16.047  0.00  0.00    +0.000 C 
ATOM     15  C   UNL     1      53.075   8.291  17.302  0.00  0.00    +0.000 C 
ENDBRANCH   9  10
ENDBRANCH   6   9
ENDBRANCH   2   3
BRANCH   2  16
ATOM     16  N   UNL     1      47.189   4.599  15.501  0.00  0.00    +0.000 N 
ATOM     17  C   UNL     1      46.909   4.259  14.205  0.00  0.00    +0.000 C 
ATOM     18  O   UNL     1      47.198   3.171  13.722  0.00  0.00    +0.000 OA
ATOM     19  H   UNL     1      47.206   5.589  15.748  0.00  0.00    +0.000 HD
BRANCH  17  20
ATOM     20  C   UNL     1      46.178   5.257  13.424  0.00  0.00    +0.000 A 
ATOM     21  C   UNL     1      46.693   6.536  13.285  0.00  0.00    +0.000 A 
ATOM     22  S   UNL     1      45.682   7.577  12.389  0.00  0.00    +0.000 S 
ATOM     23  C   UNL     1      44.519   6.353  12.179  0.00  0.00    +0.000 A 
ATOM     24  N   UNL     1      43.343   6.595  11.529  0.00  0.00    +0.000 NA
ATOM     25  C   UNL     1      42.551   5.593  11.479  0.00  0.00    +0.000 A 
ATOM     26  N   UNL     1      42.814   4.343  11.999  0.00  0.00    +0.000 N 
ATOM     27  C   UNL     1      44.003   4.037  12.610  0.00  0.00    +0.000 A 
ATOM     28  O   UNL     1      44.260   2.891  12.981  0.00  0.00    +0.000 OA
ATOM     29  C   UNL     1      44.915   5.156  12.743  0.00  0.00    +0.000 A 
ATOM     30  H   UNL     1      42.157   3.589  11.895  0.00  0.00    +0.000 HD
ENDBRANCH  17  20
ENDBRANCH   2  16
TORSDOF 5
ENDMDL
