MODEL 1
REMARK VINA RESULT:    -7.791      0.000      0.000
REMARK INTER + INTRA:         -11.469
REMARK INTER:                 -10.524
REMARK INTRA:                  -0.945
REMARK UNBOUND:                -0.945
REMARK  Name = 
REMARK  6 active torsions:
REMARK  status: ('A' for Active; 'I' for Inactive)
REMARK    1  A    between atoms: C_2  and  C_19
REMARK    2  A    between atoms: N_3  and  C_4
REMARK    3  A    between atoms: C_4  and  C_5
REMARK    4  A    between atoms: C_8  and  C_9
REMARK    5  A    between atoms: C_9  and  C_10
REMARK    6  A    between atoms: C_10  and  C_11
REMARK                            x       y       z     vdW  Elec       q    Type
REMARK                         _______ _______ _______ _____ _____    ______ ____
ROOT
ATOM      1  C   UNL     1      46.492   7.114  12.759  0.00  0.00    +0.000 C 
ENDROOT
BRANCH   1   2
ATOM      2  C   UNL     1      45.884   5.938  12.037  0.00  0.00    +0.000 A 
ATOM      3  C   UNL     1      45.490   6.064  10.702  0.00  0.00    +0.000 A 
ATOM      4  C   UNL     1      44.964   4.970  10.004  0.00  0.00    +0.000 A 
ATOM      5  C   UNL     1      44.801   3.724  10.625  0.00  0.00    +0.000 A 
ATOM      6  C   UNL     1      45.161   3.610  11.977  0.00  0.00    +0.000 A 
ATOM      7  C   UNL     1      45.691   4.705  12.676  0.00  0.00    +0.000 A 
BRANCH   5   8
ATOM      8  C   UNL     1      44.227   2.537   9.863  0.00  0.00    +0.000 C 
BRANCH   8   9
ATOM      9  C   UNL     1      44.748   2.470   8.423  0.00  0.00    +0.000 C 
BRANCH   9  10
ATOM     10  C   UNL     1      46.270   2.555   8.159  0.00  0.00    +0.000 C 
ATOM     11  C   UNL     1      46.718   3.611   7.133  0.00  0.00    +0.000 C 
ATOM     12  C   UNL     1      46.893   3.086   5.709  0.00  0.00    +0.000 C 
ATOM     13  N   UNL     1      47.684   1.858   5.664  0.00  0.00    +0.000 NA
ATOM     14  C   UNL     1      47.033   0.807   6.442  0.00  0.00    +0.000 C 
ATOM     15  C   UNL     1      46.929   1.190   7.913  0.00  0.00    +0.000 C 
ATOM     16  H   UNL     1      48.608   2.041   6.062  0.00  0.00    +0.000 HD
ENDBRANCH   9  10
ENDBRANCH   8   9
ENDBRANCH   5   8
ENDBRANCH   1   2
BRANCH   1  19
ATOM     17  O   UNL     1      49.192   6.624  13.512  0.00  0.00    +0.000 OA
ATOM     18  C   UNL     1      48.301   6.569  14.356  0.00  0.00    +0.000 C 
ATOM     19  N   UNL     1      46.978   6.757  14.062  0.00  0.00    +0.000 N 
ATOM     20  H   UNL     1      46.323   6.909  14.819  0.00  0.00    +0.000 HD
BRANCH  18  21
ATOM     21  C   UNL     1      48.588   6.242  15.759  0.00  0.00    +0.000 A 
ATOM     22  C   UNL     1      49.225   7.156  16.590  0.00  0.00    +0.000 A 
ATOM     23  S   UNL     1      49.445   6.581  18.184  0.00  0.00    +0.000 S 
ATOM     24  C   UNL     1      48.681   5.105  17.819  0.00  0.00    +0.000 A 
ATOM     25  N   UNL     1      48.506   4.142  18.766  0.00  0.00    +0.000 NA
ATOM     26  C   UNL     1      47.891   3.086  18.344  0.00  0.00    +0.000 A 
ATOM     27  N   UNL     1      47.442   2.891  17.068  0.00  0.00    +0.000 N 
ATOM     28  C   UNL     1      47.665   3.802  16.068  0.00  0.00    +0.000 A 
ATOM     29  O   UNL     1      47.376   3.526  14.903  0.00  0.00    +0.000 OA
ATOM     30  C   UNL     1      48.294   5.033  16.492  0.00  0.00    +0.000 A 
ATOM     31  H   UNL     1      47.012   2.026  16.783  0.00  0.00    +0.000 HD
ENDBRANCH  18  21
ENDBRANCH   1  19
TORSDOF 6
ENDMDL
MODEL 2
REMARK VINA RESULT:    -7.486      3.344      8.146
REMARK INTER + INTRA:         -11.056
REMARK INTER:                  -9.869
REMARK INTRA:                  -1.188
REMARK UNBOUND:                -0.945
REMARK  Name = 
REMARK  6 active torsions:
REMARK  status: ('A' for Active; 'I' for Inactive)
REMARK    1  A    between atoms: C_2  and  C_19
REMARK    2  A    between atoms: N_3  and  C_4
REMARK    3  A    between atoms: C_4  and  C_5
REMARK    4  A    between atoms: C_8  and  C_9
REMARK    5  A    between atoms: C_9  and  C_10
REMARK    6  A    between atoms: C_10  and  C_11
REMARK                            x       y       z     vdW  Elec       q    Type
REMARK                         _______ _______ _______ _____ _____    ______ ____
ROOT
ATOM      1  C   UNL     1      48.424   7.926  12.040  0.00  0.00    +0.000 C 
ENDROOT
BRANCH   1   2
ATOM      2  C   UNL     1      48.956   7.564  13.403  0.00  0.00    +0.000 A 
ATOM      3  C   UNL     1      48.164   6.830  14.291  0.00  0.00    +0.000 A 
ATOM      4  C   UNL     1      48.659   6.448  15.544  0.00  0.00    +0.000 A 
ATOM      5  C   UNL     1      49.953   6.803  15.951  0.00  0.00    +0.000 A 
ATOM      6  C   UNL     1      50.732   7.571  15.073  0.00  0.00    +0.000 A 
ATOM      7  C   UNL     1      50.238   7.952  13.817  0.00  0.00    +0.000 A 
BRANCH   5   8
ATOM      8  C   UNL     1      50.487   6.386  17.315  0.00  0.00    +0.000 C 
BRANCH   8   9
ATOM      9  C   UNL     1      50.787   4.884  17.383  0.00  0.00    +0.000 C 
BRANCH   9  10
ATOM     10  C   UNL     1      49.844   3.954  18.181  0.00  0.00    +0.000 C 
ATOM     11  C   UNL     1      49.228   2.784  17.395  0.00  0.00    +0.000 C 
ATOM     12  C   UNL     1      47.839   3.058  16.822  0.00  0.00    +0.000 C 
ATOM     13  N   UNL     1      46.933   3.634  17.814  0.00  0.00    +0.000 NA
ATOM     14  C   UNL     1      47.462   4.903  18.306  0.00  0.00    +0.000 C 
ATOM     15  C   UNL     1      48.797   4.709  19.015  0.00  0.00    +0.000 C 
ATOM     16  H   UNL     1      46.841   2.986  18.599  0.00  0.00    +0.000 HD
ENDBRANCH   9  10
ENDBRANCH   8   9
ENDBRANCH   5   8
ENDBRANCH   1   2
BRANCH   1  19
ATOM     17  O   UNL     1      45.585   7.827  11.860  0.00  0.00    +0.000 OA
ATOM     18  C   UNL     1      46.261   6.914  11.393  0.00  0.00    +0.000 C 
ATOM     19  N   UNL     1      47.626   6.875  11.473  0.00  0.00    +0.000 N 
ATOM     20  H   UNL     1      48.133   6.218  10.893  0.00  0.00    +0.000 HD
BRANCH  18  21
ATOM     21  C   UNL     1      45.640   5.751  10.745  0.00  0.00    +0.000 A 
ATOM     22  C   UNL     1      45.815   5.510   9.388  0.00  0.00    +0.000 A 
ATOM     23  S   UNL     1      45.023   4.097   8.844  0.00  0.00    +0.000 S 
ATOM     24  C   UNL     1      44.439   3.754  10.406  0.00  0.00    +0.000 A 
ATOM     25  N   UNL     1      43.692   2.644  10.657  0.00  0.00    +0.000 NA
ATOM     26  C   UNL     1      43.339   2.508  11.893  0.00  0.00    +0.000 A 
ATOM     27  N   UNL     1      43.650   3.375  12.902  0.00  0.00    +0.000 N 
ATOM     28  C   UNL     1      44.334   4.542  12.678  0.00  0.00    +0.000 A 
ATOM     29  O   UNL     1      44.467   5.366  13.584  0.00  0.00    +0.000 OA
ATOM     30  C   UNL     1      44.810   4.720  11.324  0.00  0.00    +0.000 A 
ATOM     31  H   UNL     1      43.306   3.244  13.839  0.00  0.00    +0.000 HD
ENDBRANCH  18  21
ENDBRANCH   1  19
TORSDOF 6
ENDMDL
MODEL 3
REMARK VINA RESULT:    -7.327      1.954      2.827
REMARK INTER + INTRA:         -10.841
REMARK INTER:                  -9.988
REMARK INTRA:                  -0.854
REMARK UNBOUND:                -0.945
REMARK  Name = 
REMARK  6 active torsions:
REMARK  status: ('A' for Active; 'I' for Inactive)
REMARK    1  A    between atoms: C_2  and  C_19
REMARK    2  A    between atoms: N_3  and  C_4
REMARK    3  A    between atoms: C_4  and  C_5
REMARK    4  A    between atoms: C_8  and  C_9
REMARK    5  A    between atoms: C_9  and  C_10
REMARK    6  A    between atoms: C_10  and  C_11
REMARK                            x       y       z     vdW  Elec       q    Type
REMARK                         _______ _______ _______ _____ _____    ______ ____
ROOT
ATOM      1  C   UNL     1      45.715   4.141  14.739  0.00  0.00    +0.000 C 
ENDROOT
BRANCH   1   2
ATOM      2  C   UNL     1      45.692   4.461  13.266  0.00  0.00    +0.000 A 
ATOM      3  C   UNL     1      45.140   3.550  12.361  0.00  0.00    +0.000 A 
ATOM      4  C   UNL     1      45.071   3.850  10.995  0.00  0.00    +0.000 A 
ATOM      5  C   UNL     1      45.568   5.061  10.493  0.00  0.00    +0.000 A 
ATOM      6  C   UNL     1      46.155   5.958  11.398  0.00  0.00    +0.000 A 
ATOM      7  C   UNL     1      46.222   5.659  12.767  0.00  0.00    +0.000 A 
BRANCH   5   8
ATOM      8  C   UNL     1      45.492   5.383   9.007  0.00  0.00    +0.000 C 
BRANCH   8   9
ATOM      9  C   UNL     1      46.447   4.515   8.180  0.00  0.00    +0.000 C 
BRANCH   9  10
ATOM     10  C   UNL     1      45.874   3.384   7.293  0.00  0.00    +0.000 C 
ATOM     11  C   UNL     1      45.519   2.075   8.019  0.00  0.00    +0.000 C 
ATOM     12  C   UNL     1      46.614   1.010   7.995  0.00  0.00    +0.000 C 
ATOM     13  N   UNL     1      47.157   0.804   6.653  0.00  0.00    +0.000 NA
ATOM     14  C   UNL     1      47.738   2.044   6.145  0.00  0.00    +0.000 C 
ATOM     15  C   UNL     1      46.684   3.137   6.012  0.00  0.00    +0.000 C 
ATOM     16  H   UNL     1      46.402   0.511   6.029  0.00  0.00    +0.000 HD
ENDBRANCH   9  10
ENDBRANCH   8   9
ENDBRANCH   5   8
ENDBRANCH   1   2
BRANCH   1  19
ATOM     17  O   UNL     1      46.627   3.407  17.333  0.00  0.00    +0.000 OA
ATOM     18  C   UNL     1      47.349   4.072  16.595  0.00  0.00    +0.000 C 
ATOM     19  N   UNL     1      46.965   4.492  15.351  0.00  0.00    +0.000 N 
ATOM     20  H   UNL     1      47.668   4.848  14.715  0.00  0.00    +0.000 HD
BRANCH  18  21
ATOM     21  C   UNL     1      48.683   4.517  17.021  0.00  0.00    +0.000 A 
ATOM     22  C   UNL     1      48.947   5.861  17.256  0.00  0.00    +0.000 A 
ATOM     23  S   UNL     1      50.553   6.156  17.759  0.00  0.00    +0.000 S 
ATOM     24  C   UNL     1      50.939   4.500  17.696  0.00  0.00    +0.000 A 
ATOM     25  N   UNL     1      52.176   4.045  18.037  0.00  0.00    +0.000 NA
ATOM     26  C   UNL     1      52.312   2.761  17.959  0.00  0.00    +0.000 A 
ATOM     27  N   UNL     1      51.338   1.888  17.564  0.00  0.00    +0.000 N 
ATOM     28  C   UNL     1      50.105   2.311  17.139  0.00  0.00    +0.000 A 
ATOM     29  O   UNL     1      49.308   1.508  16.654  0.00  0.00    +0.000 OA
ATOM     30  C   UNL     1      49.871   3.733  17.263  0.00  0.00    +0.000 A 
ATOM     31  H   UNL     1      51.516   0.901  17.475  0.00  0.00    +0.000 HD
ENDBRANCH  18  21
ENDBRANCH   1  19
TORSDOF 6
ENDMDL
MODEL 4
REMARK VINA RESULT:    -7.319      4.393      9.015
REMARK INTER + INTRA:         -10.831
REMARK INTER:                  -9.788
REMARK INTRA:                  -1.043
REMARK UNBOUND:                -0.945
REMARK  Name = 
REMARK  6 active torsions:
REMARK  status: ('A' for Active; 'I' for Inactive)
REMARK    1  A    between atoms: C_2  and  C_19
REMARK    2  A    between atoms: N_3  and  C_4
REMARK    3  A    between atoms: C_4  and  C_5
REMARK    4  A    between atoms: C_8  and  C_9
REMARK    5  A    between atoms: C_9  and  C_10
REMARK    6  A    between atoms: C_10  and  C_11
REMARK                            x       y       z     vdW  Elec       q    Type
REMARK                         _______ _______ _______ _____ _____    ______ ____
ROOT
ATOM      1  C   UNL     1      47.328   3.521  16.859  0.00  0.00    +0.000 C 
ENDROOT
BRANCH   1   2
ATOM      2  C   UNL     1      48.814   3.529  17.113  0.00  0.00    +0.000 A 
ATOM      3  C   UNL     1      49.475   4.735  17.362  0.00  0.00    +0.000 A 
ATOM      4  C   UNL     1      50.846   4.756  17.643  0.00  0.00    +0.000 A 
ATOM      5  C   UNL     1      51.599   3.573  17.667  0.00  0.00    +0.000 A 
ATOM      6  C   UNL     1      50.941   2.367  17.380  0.00  0.00    +0.000 A 
ATOM      7  C   UNL     1      49.566   2.346  17.102  0.00  0.00    +0.000 A 
BRANCH   5   8
ATOM      8  C   UNL     1      53.091   3.599  17.972  0.00  0.00    +0.000 C 
BRANCH   8   9
ATOM      9  C   UNL     1      53.523   2.412  18.840  0.00  0.00    +0.000 C 
BRANCH   9  10
ATOM     10  C   UNL     1      54.696   1.516  18.376  0.00  0.00    +0.000 C 
ATOM     11  C   UNL     1      54.781   1.249  16.864  0.00  0.00    +0.000 C 
ATOM     12  C   UNL     1      54.118  -0.048  16.403  0.00  0.00    +0.000 C 
ATOM     13  N   UNL     1      54.514  -1.193  17.221  0.00  0.00    +0.000 NA
ATOM     14  C   UNL     1      54.134  -0.977  18.614  0.00  0.00    +0.000 C 
ATOM     15  C   UNL     1      54.852   0.232  19.203  0.00  0.00    +0.000 C 
ATOM     16  H   UNL     1      55.528  -1.307  17.167  0.00  0.00    +0.000 HD
ENDBRANCH   9  10
ENDBRANCH   8   9
ENDBRANCH   5   8
ENDBRANCH   1   2
BRANCH   1  19
ATOM     17  O   UNL     1      47.280   3.089  14.047  0.00  0.00    +0.000 OA
ATOM     18  C   UNL     1      46.918   4.168  14.506  0.00  0.00    +0.000 C 
ATOM     19  N   UNL     1      46.947   4.462  15.843  0.00  0.00    +0.000 N 
ATOM     20  H   UNL     1      46.446   5.275  16.178  0.00  0.00    +0.000 HD
BRANCH  18  21
ATOM     21  C   UNL     1      46.466   5.263  13.637  0.00  0.00    +0.000 A 
ATOM     22  C   UNL     1      47.286   6.356  13.379  0.00  0.00    +0.000 A 
ATOM     23  S   UNL     1      46.574   7.502  12.331  0.00  0.00    +0.000 S 
ATOM     24  C   UNL     1      45.161   6.566  12.173  0.00  0.00    +0.000 A 
ATOM     25  N   UNL     1      44.130   6.964  11.378  0.00  0.00    +0.000 NA
ATOM     26  C   UNL     1      43.135   6.140  11.344  0.00  0.00    +0.000 A 
ATOM     27  N   UNL     1      43.062   4.963  12.032  0.00  0.00    +0.000 N 
ATOM     28  C   UNL     1      44.043   4.562  12.902  0.00  0.00    +0.000 A 
ATOM     29  O   UNL     1      43.875   3.571  13.613  0.00  0.00    +0.000 OA
ATOM     30  C   UNL     1      45.213   5.413  12.937  0.00  0.00    +0.000 A 
ATOM     31  H   UNL     1      42.239   4.382  12.006  0.00  0.00    +0.000 HD
ENDBRANCH  18  21
ENDBRANCH   1  19
TORSDOF 6
ENDMDL
MODEL 5
REMARK VINA RESULT:    -7.085      4.103      9.717
REMARK INTER + INTRA:         -10.515
REMARK INTER:                  -9.353
REMARK INTRA:                  -1.163
REMARK UNBOUND:                -0.945
REMARK  Name = 
REMARK  6 active torsions:
REMARK  status: ('A' for Active; 'I' for Inactive)
REMARK    1  A    between atoms: C_2  and  C_19
REMARK    2  A    between atoms: N_3  and  C_4
REMARK    3  A    between atoms: C_4  and  C_5
REMARK    4  A    between atoms: C_8  and  C_9
REMARK    5  A    between atoms: C_9  and  C_10
REMARK    6  A    between atoms: C_10  and  C_11
REMARK                            x       y       z     vdW  Elec       q    Type
REMARK                         _______ _______ _______ _____ _____    ______ ____
ROOT
ATOM      1  C   UNL     1      47.191   3.447  16.942  0.00  0.00    +0.000 C 
ENDROOT
BRANCH   1   2
ATOM      2  C   UNL     1      48.674   3.292  17.168  0.00  0.00    +0.000 A 
ATOM      3  C   UNL     1      49.408   4.337  17.738  0.00  0.00    +0.000 A 
ATOM      4  C   UNL     1      50.777   4.195  17.995  0.00  0.00    +0.000 A 
ATOM      5  C   UNL     1      51.455   3.009  17.674  0.00  0.00    +0.000 A 
ATOM      6  C   UNL     1      50.724   1.976  17.068  0.00  0.00    +0.000 A 
ATOM      7  C   UNL     1      49.352   2.118  16.813  0.00  0.00    +0.000 A 
BRANCH   5   8
ATOM      8  C   UNL     1      52.944   2.858  17.953  0.00  0.00    +0.000 C 
BRANCH   8   9
ATOM      9  C   UNL     1      53.630   4.212  18.170  0.00  0.00    +0.000 C 
BRANCH   9  10
ATOM     10  C   UNL     1      54.119   4.601  19.585  0.00  0.00    +0.000 C 
ATOM     11  C   UNL     1      53.453   3.857  20.755  0.00  0.00    +0.000 C 
ATOM     12  C   UNL     1      52.268   4.585  21.387  0.00  0.00    +0.000 C 
ATOM     13  N   UNL     1      52.572   5.984  21.683  0.00  0.00    +0.000 NA
ATOM     14  C   UNL     1      52.923   6.697  20.457  0.00  0.00    +0.000 C 
ATOM     15  C   UNL     1      54.179   6.118  19.819  0.00  0.00    +0.000 C 
ATOM     16  H   UNL     1      53.363   6.025  22.329  0.00  0.00    +0.000 HD
ENDBRANCH   9  10
ENDBRANCH   8   9
ENDBRANCH   5   8
ENDBRANCH   1   2
BRANCH   1  19
ATOM     17  O   UNL     1      47.296   3.064  14.125  0.00  0.00    +0.000 OA
ATOM     18  C   UNL     1      46.938   4.145  14.582  0.00  0.00    +0.000 C 
ATOM     19  N   UNL     1      46.897   4.415  15.923  0.00  0.00    +0.000 N 
ATOM     20  H   UNL     1      46.399   5.236  16.244  0.00  0.00    +0.000 HD
BRANCH  18  21
ATOM     21  C   UNL     1      46.568   5.267  13.708  0.00  0.00    +0.000 A 
ATOM     22  C   UNL     1      47.448   6.318  13.484  0.00  0.00    +0.000 A 
ATOM     23  S   UNL     1      46.826   7.506  12.424  0.00  0.00    +0.000 S 
ATOM     24  C   UNL     1      45.373   6.644  12.218  0.00  0.00    +0.000 A 
ATOM     25  N   UNL     1      44.388   7.098  11.395  0.00  0.00    +0.000 NA
ATOM     26  C   UNL     1      43.354   6.326  11.325  0.00  0.00    +0.000 A 
ATOM     27  N   UNL     1      43.202   5.149  12.002  0.00  0.00    +0.000 N 
ATOM     28  C   UNL     1      44.135   4.694  12.898  0.00  0.00    +0.000 A 
ATOM     29  O   UNL     1      43.896   3.708  13.595  0.00  0.00    +0.000 OA
ATOM     30  C   UNL     1      45.344   5.485  12.973  0.00  0.00    +0.000 A 
ATOM     31  H   UNL     1      42.352   4.611  11.947  0.00  0.00    +0.000 HD
ENDBRANCH  18  21
ENDBRANCH   1  19
TORSDOF 6
ENDMDL
MODEL 6
REMARK VINA RESULT:    -7.031      4.110      9.939
REMARK INTER + INTRA:         -10.443
REMARK INTER:                  -9.246
REMARK INTRA:                  -1.196
REMARK UNBOUND:                -0.945
REMARK  Name = 
REMARK  6 active torsions:
REMARK  status: ('A' for Active; 'I' for Inactive)
REMARK    1  A    between atoms: C_2  and  C_19
REMARK    2  A    between atoms: N_3  and  C_4
REMARK    3  A    between atoms: C_4  and  C_5
REMARK    4  A    between atoms: C_8  and  C_9
REMARK    5  A    between atoms: C_9  and  C_10
REMARK    6  A    between atoms: C_10  and  C_11
REMARK                            x       y       z     vdW  Elec       q    Type
REMARK                         _______ _______ _______ _____ _____    ______ ____
ROOT
ATOM      1  C   UNL     1      47.492   3.670  16.705  0.00  0.00    +0.000 C 
ENDROOT
BRANCH   1   2
ATOM      2  C   UNL     1      47.745   4.341  18.031  0.00  0.00    +0.000 A 
ATOM      3  C   UNL     1      46.981   5.449  18.411  0.00  0.00    +0.000 A 
ATOM      4  C   UNL     1      47.173   6.058  19.657  0.00  0.00    +0.000 A 
ATOM      5  C   UNL     1      48.145   5.587  20.553  0.00  0.00    +0.000 A 
ATOM      6  C   UNL     1      48.935   4.499  20.154  0.00  0.00    +0.000 A 
ATOM      7  C   UNL     1      48.742   3.887  18.906  0.00  0.00    +0.000 A 
BRANCH   5   8
ATOM      8  C   UNL     1      48.351   6.252  21.906  0.00  0.00    +0.000 C 
BRANCH   8   9
ATOM      9  C   UNL     1      47.350   7.388  22.149  0.00  0.00    +0.000 C 
BRANCH   9  10
ATOM     10  C   UNL     1      47.790   8.853  21.917  0.00  0.00    +0.000 C 
ATOM     11  C   UNL     1      46.826   9.723  21.092  0.00  0.00    +0.000 C 
ATOM     12  C   UNL     1      47.148   9.798  19.600  0.00  0.00    +0.000 C 
ATOM     13  N   UNL     1      48.557  10.094  19.352  0.00  0.00    +0.000 NA
ATOM     14  C   UNL     1      49.404   9.054  19.932  0.00  0.00    +0.000 C 
ATOM     15  C   UNL     1      49.245   8.991  21.446  0.00  0.00    +0.000 C 
ATOM     16  H   UNL     1      48.792  10.991  19.783  0.00  0.00    +0.000 HD
ENDBRANCH   9  10
ENDBRANCH   8   9
ENDBRANCH   5   8
ENDBRANCH   1   2
BRANCH   1  19
ATOM     17  O   UNL     1      47.188   3.188  13.917  0.00  0.00    +0.000 OA
ATOM     18  C   UNL     1      46.871   4.277  14.388  0.00  0.00    +0.000 C 
ATOM     19  N   UNL     1      47.022   4.593  15.711  0.00  0.00    +0.000 N 
ATOM     20  H   UNL     1      46.555   5.414  16.076  0.00  0.00    +0.000 HD
BRANCH  18  21
ATOM     21  C   UNL     1      46.344   5.358  13.544  0.00  0.00    +0.000 A 
ATOM     22  C   UNL     1      47.086   6.510  13.314  0.00  0.00    +0.000 A 
ATOM     23  S   UNL     1      46.295   7.628  12.291  0.00  0.00    +0.000 S 
ATOM     24  C   UNL     1      44.950   6.601  12.110  0.00  0.00    +0.000 A 
ATOM     25  N   UNL     1      43.895   6.944  11.323  0.00  0.00    +0.000 NA
ATOM     26  C   UNL     1      42.959   6.054  11.268  0.00  0.00    +0.000 A 
ATOM     27  N   UNL     1      42.968   4.858  11.929  0.00  0.00    +0.000 N 
ATOM     28  C   UNL     1      43.975   4.507  12.790  0.00  0.00    +0.000 A 
ATOM     29  O   UNL     1      43.877   3.490  13.477  0.00  0.00    +0.000 OA
ATOM     30  C   UNL     1      45.083   5.436  12.846  0.00  0.00    +0.000 A 
ATOM     31  H   UNL     1      42.188   4.223  11.888  0.00  0.00    +0.000 HD
ENDBRANCH  18  21
ENDBRANCH   1  19
TORSDOF 6
ENDMDL
MODEL 7
REMARK VINA RESULT:    -6.977      3.561      9.524
REMARK INTER + INTRA:         -10.368
REMARK INTER:                  -8.965
REMARK INTRA:                  -1.404
REMARK UNBOUND:                -0.945
REMARK  Name = 
REMARK  6 active torsions:
REMARK  status: ('A' for Active; 'I' for Inactive)
REMARK    1  A    between atoms: C_2  and  C_19
REMARK    2  A    between atoms: N_3  and  C_4
REMARK    3  A    between atoms: C_4  and  C_5
REMARK    4  A    between atoms: C_8  and  C_9
REMARK    5  A    between atoms: C_9  and  C_10
REMARK    6  A    between atoms: C_10  and  C_11
REMARK                            x       y       z     vdW  Elec       q    Type
REMARK                         _______ _______ _______ _____ _____    ______ ____
ROOT
ATOM      1  C   UNL     1      47.744   4.033  16.102  0.00  0.00    +0.000 C 
ENDROOT
BRANCH   1   2
ATOM      2  C   UNL     1      47.942   4.995  17.245  0.00  0.00    +0.000 A 
ATOM      3  C   UNL     1      46.946   5.143  18.216  0.00  0.00    +0.000 A 
ATOM      4  C   UNL     1      47.131   6.000  19.307  0.00  0.00    +0.000 A 
ATOM      5  C   UNL     1      48.310   6.745  19.452  0.00  0.00    +0.000 A 
ATOM      6  C   UNL     1      49.292   6.624  18.457  0.00  0.00    +0.000 A 
ATOM      7  C   UNL     1      49.109   5.763  17.364  0.00  0.00    +0.000 A 
BRANCH   5   8
ATOM      8  C   UNL     1      48.507   7.677  20.640  0.00  0.00    +0.000 C 
BRANCH   8   9
ATOM      9  C   UNL     1      48.478   9.153  20.226  0.00  0.00    +0.000 C 
BRANCH   9  10
ATOM     10  C   UNL     1      47.397   9.645  19.236  0.00  0.00    +0.000 C 
ATOM     11  C   UNL     1      47.881   9.955  17.809  0.00  0.00    +0.000 C 
ATOM     12  C   UNL     1      48.229  11.421  17.554  0.00  0.00    +0.000 C 
ATOM     13  N   UNL     1      47.184  12.328  18.024  0.00  0.00    +0.000 NA
ATOM     14  C   UNL     1      46.983  12.168  19.463  0.00  0.00    +0.000 C 
ATOM     15  C   UNL     1      46.507  10.762  19.803  0.00  0.00    +0.000 C 
ATOM     16  H   UNL     1      46.310  12.111  17.542  0.00  0.00    +0.000 HD
ENDBRANCH   9  10
ENDBRANCH   8   9
ENDBRANCH   5   8
ENDBRANCH   1   2
BRANCH   1  19
ATOM     17  O   UNL     1      48.444   5.762  13.953  0.00  0.00    +0.000 OA
ATOM     18  C   UNL     1      47.288   5.365  14.068  0.00  0.00    +0.000 C 
ATOM     19  N   UNL     1      46.869   4.561  15.094  0.00  0.00    +0.000 N 
ATOM     20  H   UNL     1      45.971   4.100  15.021  0.00  0.00    +0.000 HD
BRANCH  18  21
ATOM     21  C   UNL     1      46.237   5.770  13.124  0.00  0.00    +0.000 A 
ATOM     22  C   UNL     1      45.962   7.113  12.895  0.00  0.00    +0.000 A 
ATOM     23  S   UNL     1      44.718   7.361  11.749  0.00  0.00    +0.000 S 
ATOM     24  C   UNL     1      44.523   5.687  11.511  0.00  0.00    +0.000 A 
ATOM     25  N   UNL     1      43.619   5.197  10.619  0.00  0.00    +0.000 NA
ATOM     26  C   UNL     1      43.601   3.906  10.534  0.00  0.00    +0.000 A 
ATOM     27  N   UNL     1      44.389   3.057  11.258  0.00  0.00    +0.000 N 
ATOM     28  C   UNL     1      45.257   3.506  12.219  0.00  0.00    +0.000 A 
ATOM     29  O   UNL     1      45.841   2.705  12.950  0.00  0.00    +0.000 OA
ATOM     30  C   UNL     1      45.368   4.945  12.318  0.00  0.00    +0.000 A 
ATOM     31  H   UNL     1      44.297   2.057  11.185  0.00  0.00    +0.000 HD
ENDBRANCH  18  21
ENDBRANCH   1  19
TORSDOF 6
ENDMDL
MODEL 8
REMARK VINA RESULT:    -6.842      3.398      5.352
REMARK INTER + INTRA:         -10.187
REMARK INTER:                  -9.015
REMARK INTRA:                  -1.172
REMARK UNBOUND:                -0.945
REMARK  Name = 
REMARK  6 active torsions:
REMARK  status: ('A' for Active; 'I' for Inactive)
REMARK    1  A    between atoms: C_2  and  C_19
REMARK    2  A    between atoms: N_3  and  C_4
REMARK    3  A    between atoms: C_4  and  C_5
REMARK    4  A    between atoms: C_8  and  C_9
REMARK    5  A    between atoms: C_9  and  C_10
REMARK    6  A    between atoms: C_10  and  C_11
REMARK                            x       y       z     vdW  Elec       q    Type
REMARK                         _______ _______ _______ _____ _____    ______ ____
ROOT
ATOM      1  C   UNL     1      48.337   5.234  16.615  0.00  0.00    +0.000 C 
ENDROOT
BRANCH   1   2
ATOM      2  C   UNL     1      47.802   5.415  15.218  0.00  0.00    +0.000 A 
ATOM      3  C   UNL     1      46.960   4.447  14.660  0.00  0.00    +0.000 A 
ATOM      4  C   UNL     1      46.419   4.620  13.381  0.00  0.00    +0.000 A 
ATOM      5  C   UNL     1      46.717   5.757  12.615  0.00  0.00    +0.000 A 
ATOM      6  C   UNL     1      47.592   6.708  13.161  0.00  0.00    +0.000 A 
ATOM      7  C   UNL     1      48.132   6.537  14.444  0.00  0.00    +0.000 A 
BRANCH   5   8
ATOM      8  C   UNL     1      46.128   5.940  11.223  0.00  0.00    +0.000 C 
BRANCH   8   9
ATOM      9  C   UNL     1      44.650   6.347  11.271  0.00  0.00    +0.000 C 
BRANCH   9  10
ATOM     10  C   UNL     1      43.568   5.344  10.809  0.00  0.00    +0.000 C 
ATOM     11  C   UNL     1      42.845   4.571  11.925  0.00  0.00    +0.000 C 
ATOM     12  C   UNL     1      43.434   3.197  12.239  0.00  0.00    +0.000 C 
ATOM     13  N   UNL     1      43.659   2.402  11.033  0.00  0.00    +0.000 NA
ATOM     14  C   UNL     1      44.593   3.087  10.142  0.00  0.00    +0.000 C 
ATOM     15  C   UNL     1      44.031   4.422   9.670  0.00  0.00    +0.000 C 
ATOM     16  H   UNL     1      42.770   2.274  10.545  0.00  0.00    +0.000 HD
ENDBRANCH   9  10
ENDBRANCH   8   9
ENDBRANCH   5   8
ENDBRANCH   1   2
BRANCH   1  19
ATOM     17  O   UNL     1      49.716   6.191  18.913  0.00  0.00    +0.000 OA
ATOM     18  C   UNL     1      48.665   6.722  18.565  0.00  0.00    +0.000 C 
ATOM     19  N   UNL     1      47.929   6.294  17.493  0.00  0.00    +0.000 N 
ATOM     20  H   UNL     1      47.196   6.891  17.131  0.00  0.00    +0.000 HD
BRANCH  18  21
ATOM     21  C   UNL     1      48.083   7.843  19.315  0.00  0.00    +0.000 A 
ATOM     22  C   UNL     1      47.749   7.708  20.657  0.00  0.00    +0.000 A 
ATOM     23  S   UNL     1      47.104   9.136  21.339  0.00  0.00    +0.000 S 
ATOM     24  C   UNL     1      47.269   9.981  19.871  0.00  0.00    +0.000 A 
ATOM     25  N   UNL     1      46.920  11.292  19.764  0.00  0.00    +0.000 NA
ATOM     26  C   UNL     1      47.121  11.803  18.593  0.00  0.00    +0.000 A 
ATOM     27  N   UNL     1      47.628  11.131  17.516  0.00  0.00    +0.000 N 
ATOM     28  C   UNL     1      47.920   9.793  17.561  0.00  0.00    +0.000 A 
ATOM     29  O   UNL     1      48.235   9.192  16.533  0.00  0.00    +0.000 OA
ATOM     30  C   UNL     1      47.774   9.179  18.863  0.00  0.00    +0.000 A 
ATOM     31  H   UNL     1      47.718  11.568  16.613  0.00  0.00    +0.000 HD
ENDBRANCH  18  21
ENDBRANCH   1  19
TORSDOF 6
ENDMDL
MODEL 9
REMARK VINA RESULT:    -6.791      3.675      5.429
REMARK INTER + INTRA:         -10.118
REMARK INTER:                  -8.951
REMARK INTRA:                  -1.168
REMARK UNBOUND:                -0.945
REMARK  Name = 
REMARK  6 active torsions:
REMARK  status: ('A' for Active; 'I' for Inactive)
REMARK    1  A    between atoms: C_2  and  C_19
REMARK    2  A    between atoms: N_3  and  C_4
REMARK    3  A    between atoms: C_4  and  C_5
REMARK    4  A    between atoms: C_8  and  C_9
REMARK    5  A    between atoms: C_9  and  C_10
REMARK    6  A    between atoms: C_10  and  C_11
REMARK                            x       y       z     vdW  Elec       q    Type
REMARK                         _______ _______ _______ _____ _____    ______ ____
ROOT
ATOM      1  C   UNL     1      48.317   4.203  17.158  0.00  0.00    +0.000 C 
ENDROOT
BRANCH   1   2
ATOM      2  C   UNL     1      47.897   4.866  15.871  0.00  0.00    +0.000 A 
ATOM      3  C   UNL     1      46.960   4.247  15.038  0.00  0.00    +0.000 A 
ATOM      4  C   UNL     1      46.527   4.868  13.861  0.00  0.00    +0.000 A 
ATOM      5  C   UNL     1      47.030   6.118  13.473  0.00  0.00    +0.000 A 
ATOM      6  C   UNL     1      47.999   6.720  14.290  0.00  0.00    +0.000 A 
ATOM      7  C   UNL     1      48.431   6.100  15.472  0.00  0.00    +0.000 A 
BRANCH   5   8
ATOM      8  C   UNL     1      46.558   6.790  12.191  0.00  0.00    +0.000 C 
BRANCH   8   9
ATOM      9  C   UNL     1      46.200   5.770  11.104  0.00  0.00    +0.000 C 
BRANCH   9  10
ATOM     10  C   UNL     1      44.728   5.621  10.654  0.00  0.00    +0.000 C 
ATOM     11  C   UNL     1      43.666   5.808  11.752  0.00  0.00    +0.000 C 
ATOM     12  C   UNL     1      43.191   4.514  12.411  0.00  0.00    +0.000 C 
ATOM     13  N   UNL     1      42.839   3.489  11.429  0.00  0.00    +0.000 NA
ATOM     14  C   UNL     1      43.999   3.160  10.603  0.00  0.00    +0.000 C 
ATOM     15  C   UNL     1      44.469   4.369   9.803  0.00  0.00    +0.000 C 
ATOM     16  H   UNL     1      42.093   3.844  10.828  0.00  0.00    +0.000 HD
ENDBRANCH   9  10
ENDBRANCH   8   9
ENDBRANCH   5   8
ENDBRANCH   1   2
BRANCH   1  19
ATOM     17  O   UNL     1      50.101   4.857  19.277  0.00  0.00    +0.000 OA
ATOM     18  C   UNL     1      50.521   4.276  18.280  0.00  0.00    +0.000 C 
ATOM     19  N   UNL     1      49.731   3.962  17.207  0.00  0.00    +0.000 N 
ATOM     20  H   UNL     1      50.078   3.306  16.518  0.00  0.00    +0.000 HD
BRANCH  18  21
ATOM     21  C   UNL     1      51.938   3.914  18.139  0.00  0.00    +0.000 A 
ATOM     22  C   UNL     1      52.939   4.856  18.342  0.00  0.00    +0.000 A 
ATOM     23  S   UNL     1      54.514   4.221  18.146  0.00  0.00    +0.000 S 
ATOM     24  C   UNL     1      53.908   2.668  17.804  0.00  0.00    +0.000 A 
ATOM     25  N   UNL     1      54.739   1.618  17.562  0.00  0.00    +0.000 NA
ATOM     26  C   UNL     1      54.133   0.498  17.339  0.00  0.00    +0.000 A 
ATOM     27  N   UNL     1      52.778   0.325  17.324  0.00  0.00    +0.000 N 
ATOM     28  C   UNL     1      51.905   1.369  17.488  0.00  0.00    +0.000 A 
ATOM     29  O   UNL     1      50.696   1.199  17.322  0.00  0.00    +0.000 OA
ATOM     30  C   UNL     1      52.524   2.638  17.803  0.00  0.00    +0.000 A 
ATOM     31  H   UNL     1      52.359  -0.562  17.096  0.00  0.00    +0.000 HD
ENDBRANCH  18  21
ENDBRANCH   1  19
TORSDOF 6
ENDMDL
