MODEL 1
REMARK VINA RESULT:    -7.135      0.000      0.000
REMARK INTER + INTRA:         -12.816
REMARK INTER:                 -11.305
REMARK INTRA:                  -1.510
REMARK UNBOUND:                -1.510
REMARK  Name = 
REMARK  11 active torsions:
REMARK  status: ('A' for Active; 'I' for Inactive)
REMARK    1  A    between atoms: C_1  and  O_2
REMARK    2  A    between atoms: O_2  and  C_3
REMARK    3  A    between atoms: C_3  and  C_4
REMARK    4  A    between atoms: C_4  and  N_5
REMARK    5  A    between atoms: N_5  and  C_6
REMARK    6  A    between atoms: C_6  and  C_7
REMARK    7  A    between atoms: C_11  and  C_12
REMARK    8  A    between atoms: C_12  and  C_13
REMARK    9  A    between atoms: C_16  and  C_17
REMARK   10  A    between atoms: C_17  and  N_18
REMARK   11  A    between atoms: C_19  and  C_21
REMARK                            x       y       z     vdW  Elec       q    Type
REMARK                         _______ _______ _______ _____ _____    ______ ____
ROOT
ATOM      1  C   UNL     1      45.814   7.492  11.931  0.00  0.00    +0.000 A 
ATOM      2  C   UNL     1      46.955   6.682  11.853  0.00  0.00    +0.000 A 
ATOM      3  C   UNL     1      48.108   7.002  12.574  0.00  0.00    +0.000 A 
ATOM      4  C   UNL     1      48.144   8.145  13.382  0.00  0.00    +0.000 A 
ATOM      5  C   UNL     1      47.033   8.999  13.394  0.00  0.00    +0.000 A 
ATOM      6  C   UNL     1      45.873   8.669  12.687  0.00  0.00    +0.000 A 
ENDROOT
BRANCH   1   7
ATOM      7  C   UNL     1      44.526   7.070  11.255  0.00  0.00    +0.000 C 
BRANCH   7  12
ATOM      8  C   UNL     1      44.202   3.490  10.370  0.00  0.00    +0.000 A 
ATOM      9  C   UNL     1      43.734   2.886  11.533  0.00  0.00    +0.000 A 
ATOM     10  C   UNL     1      43.481   3.682  12.641  0.00  0.00    +0.000 A 
ATOM     11  C   UNL     1      43.715   5.051  12.560  0.00  0.00    +0.000 A 
ATOM     12  C   UNL     1      44.208   5.592  11.373  0.00  0.00    +0.000 A 
ATOM     13  N   UNL     1      44.459   4.823  10.284  0.00  0.00    +0.000 NA
BRANCH   8  14
ATOM     14  C   UNL     1      44.313   2.681   9.092  0.00  0.00    +0.000 C 
BRANCH  14  15
ATOM     15  N   UNL     1      45.438   1.726   9.094  0.00  0.00    +0.000 NA
ATOM     16  H   UNL     1      45.901   1.786   9.999  0.00  0.00    +0.000 HD
BRANCH  15  17
ATOM     17  C   UNL     1      46.413   2.061   8.041  0.00  0.00    +0.000 C 
BRANCH  17  18
ATOM     18  C   UNL     1      47.102   0.802   7.510  0.00  0.00    +0.000 C 
BRANCH  18  20
ATOM     19  C   UNL     1      47.696   2.512   6.010  0.00  0.00    +0.000 C 
ATOM     20  O   UNL     1      47.856   1.142   6.346  0.00  0.00    +0.000 OA
ENDBRANCH  18  20
ENDBRANCH  17  18
ENDBRANCH  15  17
ENDBRANCH  14  15
ENDBRANCH   8  14
ENDBRANCH   7  12
ENDBRANCH   1   7
BRANCH   4  21
ATOM     21  C   UNL     1      49.354   8.458  14.224  0.00  0.00    +0.000 C 
BRANCH  21  22
ATOM     22  N   UNL     1      49.425   7.609  15.383  0.00  0.00    +0.000 N 
ATOM     23  C   UNL     1      48.843   7.978  16.569  0.00  0.00    +0.000 C 
ATOM     24  O   UNL     1      48.196   9.016  16.684  0.00  0.00    +0.000 OA
ATOM     25  H   UNL     1      50.147   6.896  15.383  0.00  0.00    +0.000 HD
BRANCH  23  26
ATOM     26  C   UNL     1      48.976   7.031  17.680  0.00  0.00    +0.000 A 
ATOM     27  C   UNL     1      49.467   7.468  18.904  0.00  0.00    +0.000 A 
ATOM     28  S   UNL     1      49.503   6.251  20.098  0.00  0.00    +0.000 S 
ATOM     29  C   UNL     1      48.915   5.085  19.006  0.00  0.00    +0.000 A 
ATOM     30  N   UNL     1      48.736   3.793  19.390  0.00  0.00    +0.000 NA
ATOM     31  C   UNL     1      48.310   3.013  18.451  0.00  0.00    +0.000 A 
ATOM     32  N   UNL     1      48.042   3.405  17.171  0.00  0.00    +0.000 N 
ATOM     33  C   UNL     1      48.186   4.704  16.742  0.00  0.00    +0.000 A 
ATOM     34  O   UNL     1      47.901   5.032  15.594  0.00  0.00    +0.000 OA
ATOM     35  C   UNL     1      48.674   5.622  17.754  0.00  0.00    +0.000 A 
ATOM     36  H   UNL     1      47.703   2.747  16.485  0.00  0.00    +0.000 HD
ENDBRANCH  23  26
ENDBRANCH  21  22
ENDBRANCH   4  21
TORSDOF 10
ENDMDL
MODEL 2
REMARK VINA RESULT:    -6.938      3.304      4.024
REMARK INTER + INTRA:         -12.504
REMARK INTER:                 -11.318
REMARK INTRA:                  -1.186
REMARK UNBOUND:                -1.510
REMARK  Name = 
REMARK  11 active torsions:
REMARK  status: ('A' for Active; 'I' for Inactive)
REMARK    1  A    between atoms: C_1  and  O_2
REMARK    2  A    between atoms: O_2  and  C_3
REMARK    3  A    between atoms: C_3  and  C_4
REMARK    4  A    between atoms: C_4  and  N_5
REMARK    5  A    between atoms: N_5  and  C_6
REMARK    6  A    between atoms: C_6  and  C_7
REMARK    7  A    between atoms: C_11  and  C_12
REMARK    8  A    between atoms: C_12  and  C_13
REMARK    9  A    between atoms: C_16  and  C_17
REMARK   10  A    between atoms: C_17  and  N_18
REMARK   11  A    between atoms: C_19  and  C_21
REMARK                            x       y       z     vdW  Elec       q    Type
REMARK                         _______ _______ _______ _____ _____    ______ ____
ROOT
ATOM      1  C   UNL     1      47.241   5.815  13.641  0.00  0.00    +0.000 A 
ATOM      2  C   UNL     1      48.140   6.609  14.366  0.00  0.00    +0.000 A 
ATOM      3  C   UNL     1      48.572   6.219  15.636  0.00  0.00    +0.000 A 
ATOM      4  C   UNL     1      48.106   5.029  16.209  0.00  0.00    +0.000 A 
ATOM      5  C   UNL     1      47.143   4.279  15.520  0.00  0.00    +0.000 A 
ATOM      6  C   UNL     1      46.725   4.660  14.242  0.00  0.00    +0.000 A 
ENDROOT
BRANCH   1   7
ATOM      7  C   UNL     1      46.880   6.173  12.214  0.00  0.00    +0.000 C 
BRANCH   7  12
ATOM      8  C   UNL     1      44.340   4.027  10.589  0.00  0.00    +0.000 A 
ATOM      9  C   UNL     1      43.121   4.596  10.951  0.00  0.00    +0.000 A 
ATOM     10  C   UNL     1      43.130   5.745  11.728  0.00  0.00    +0.000 A 
ATOM     11  C   UNL     1      44.347   6.284  12.132  0.00  0.00    +0.000 A 
ATOM     12  C   UNL     1      45.532   5.651  11.756  0.00  0.00    +0.000 A 
ATOM     13  N   UNL     1      45.536   4.527  10.997  0.00  0.00    +0.000 NA
BRANCH   8  14
ATOM     14  C   UNL     1      44.371   2.884   9.594  0.00  0.00    +0.000 C 
BRANCH  14  15
ATOM     15  N   UNL     1      44.599   3.318   8.203  0.00  0.00    +0.000 NA
ATOM     16  H   UNL     1      43.929   2.835   7.607  0.00  0.00    +0.000 HD
BRANCH  15  17
ATOM     17  C   UNL     1      45.961   2.972   7.761  0.00  0.00    +0.000 C 
BRANCH  17  18
ATOM     18  C   UNL     1      46.293   1.515   8.094  0.00  0.00    +0.000 C 
BRANCH  18  20
ATOM     19  C   UNL     1      47.939   2.181   6.553  0.00  0.00    +0.000 C 
ATOM     20  O   UNL     1      47.398   1.096   7.293  0.00  0.00    +0.000 OA
ENDBRANCH  18  20
ENDBRANCH  17  18
ENDBRANCH  15  17
ENDBRANCH  14  15
ENDBRANCH   8  14
ENDBRANCH   7  12
ENDBRANCH   1   7
BRANCH   4  21
ATOM     21  C   UNL     1      48.624   4.560  17.544  0.00  0.00    +0.000 C 
BRANCH  21  22
ATOM     22  N   UNL     1      49.987   4.109  17.453  0.00  0.00    +0.000 N 
ATOM     23  C   UNL     1      50.862   4.284  18.495  0.00  0.00    +0.000 C 
ATOM     24  O   UNL     1      50.515   4.783  19.563  0.00  0.00    +0.000 OA
ATOM     25  H   UNL     1      50.349   3.935  16.521  0.00  0.00    +0.000 HD
BRANCH  23  26
ATOM     26  C   UNL     1      52.224   3.780  18.290  0.00  0.00    +0.000 A 
ATOM     27  C   UNL     1      53.310   4.617  18.515  0.00  0.00    +0.000 A 
ATOM     28  S   UNL     1      54.817   3.854  18.284  0.00  0.00    +0.000 S 
ATOM     29  C   UNL     1      54.071   2.395  17.823  0.00  0.00    +0.000 A 
ATOM     30  N   UNL     1      54.811   1.314  17.460  0.00  0.00    +0.000 NA
ATOM     31  C   UNL     1      54.111   0.284  17.110  0.00  0.00    +0.000 A 
ATOM     32  N   UNL     1      52.747   0.234  17.094  0.00  0.00    +0.000 N 
ATOM     33  C   UNL     1      51.957   1.294  17.474  0.00  0.00    +0.000 A 
ATOM     34  O   UNL     1      50.733   1.205  17.484  0.00  0.00    +0.000 OA
ATOM     35  C   UNL     1      52.691   2.482  17.867  0.00  0.00    +0.000 A 
ATOM     36  H   UNL     1      52.260  -0.605  16.817  0.00  0.00    +0.000 HD
ENDBRANCH  23  26
ENDBRANCH  21  22
ENDBRANCH   4  21
TORSDOF 10
ENDMDL
MODEL 3
REMARK VINA RESULT:    -6.854      2.307      2.472
REMARK INTER + INTRA:         -12.371
REMARK INTER:                 -10.930
REMARK INTRA:                  -1.441
REMARK UNBOUND:                -1.510
REMARK  Name = 
REMARK  11 active torsions:
REMARK  status: ('A' for Active; 'I' for Inactive)
REMARK    1  A    between atoms: C_1  and  O_2
REMARK    2  A    between atoms: O_2  and  C_3
REMARK    3  A    between atoms: C_3  and  C_4
REMARK    4  A    between atoms: C_4  and  N_5
REMARK    5  A    between atoms: N_5  and  C_6
REMARK    6  A    between atoms: C_6  and  C_7
REMARK    7  A    between atoms: C_11  and  C_12
REMARK    8  A    between atoms: C_12  and  C_13
REMARK    9  A    between atoms: C_16  and  C_17
REMARK   10  A    between atoms: C_17  and  N_18
REMARK   11  A    between atoms: C_19  and  C_21
REMARK                            x       y       z     vdW  Elec       q    Type
REMARK                         _______ _______ _______ _____ _____    ______ ____
ROOT
ATOM      1  C   UNL     1      46.981   7.260  12.827  0.00  0.00    +0.000 A 
ATOM      2  C   UNL     1      47.720   6.193  13.357  0.00  0.00    +0.000 A 
ATOM      3  C   UNL     1      48.482   6.360  14.517  0.00  0.00    +0.000 A 
ATOM      4  C   UNL     1      48.526   7.600  15.164  0.00  0.00    +0.000 A 
ATOM      5  C   UNL     1      47.856   8.687  14.587  0.00  0.00    +0.000 A 
ATOM      6  C   UNL     1      47.079   8.516  13.438  0.00  0.00    +0.000 A 
ENDROOT
BRANCH   1   7
ATOM      7  C   UNL     1      46.053   7.041  11.651  0.00  0.00    +0.000 C 
BRANCH   7  12
ATOM      8  C   UNL     1      44.451   3.779  10.950  0.00  0.00    +0.000 A 
ATOM      9  C   UNL     1      43.565   3.592  12.008  0.00  0.00    +0.000 A 
ATOM     10  C   UNL     1      43.462   4.585  12.971  0.00  0.00    +0.000 A 
ATOM     11  C   UNL     1      44.252   5.725  12.859  0.00  0.00    +0.000 A 
ATOM     12  C   UNL     1      45.137   5.840  11.787  0.00  0.00    +0.000 A 
ATOM     13  N   UNL     1      45.246   4.876  10.840  0.00  0.00    +0.000 NA
BRANCH   8  14
ATOM     14  C   UNL     1      44.454   2.803   9.790  0.00  0.00    +0.000 C 
BRANCH  14  15
ATOM     15  N   UNL     1      44.455   3.458   8.467  0.00  0.00    +0.000 NA
ATOM     16  H   UNL     1      43.582   3.224   7.998  0.00  0.00    +0.000 HD
BRANCH  15  17
ATOM     17  C   UNL     1      45.578   2.979   7.644  0.00  0.00    +0.000 C 
BRANCH  17  18
ATOM     18  C   UNL     1      46.152   1.674   8.203  0.00  0.00    +0.000 C 
BRANCH  18  20
ATOM     19  C   UNL     1      47.752   2.402   6.641  0.00  0.00    +0.000 C 
ATOM     20  O   UNL     1      47.319   1.324   7.458  0.00  0.00    +0.000 OA
ENDBRANCH  18  20
ENDBRANCH  17  18
ENDBRANCH  15  17
ENDBRANCH  14  15
ENDBRANCH   8  14
ENDBRANCH   7  12
ENDBRANCH   1   7
BRANCH   4  21
ATOM     21  C   UNL     1      49.282   7.771  16.456  0.00  0.00    +0.000 C 
BRANCH  21  22
ATOM     22  N   UNL     1      50.194   6.682  16.683  0.00  0.00    +0.000 N 
ATOM     23  C   UNL     1      50.614   6.362  17.949  0.00  0.00    +0.000 C 
ATOM     24  O   UNL     1      50.199   6.949  18.944  0.00  0.00    +0.000 OA
ATOM     25  H   UNL     1      50.730   6.361  15.883  0.00  0.00    +0.000 HD
BRANCH  23  26
ATOM     26  C   UNL     1      51.540   5.229  18.058  0.00  0.00    +0.000 A 
ATOM     27  C   UNL     1      52.832   5.437  18.523  0.00  0.00    +0.000 A 
ATOM     28  S   UNL     1      53.753   4.007  18.639  0.00  0.00    +0.000 S 
ATOM     29  C   UNL     1      52.475   3.068  18.020  0.00  0.00    +0.000 A 
ATOM     30  N   UNL     1      52.616   1.728  17.834  0.00  0.00    +0.000 NA
ATOM     31  C   UNL     1      51.575   1.148  17.334  0.00  0.00    +0.000 A 
ATOM     32  N   UNL     1      50.408   1.779  17.009  0.00  0.00    +0.000 N 
ATOM     33  C   UNL     1      50.211   3.127  17.200  0.00  0.00    +0.000 A 
ATOM     34  O   UNL     1      49.138   3.658  16.933  0.00  0.00    +0.000 OA
ATOM     35  C   UNL     1      51.354   3.832  17.750  0.00  0.00    +0.000 A 
ATOM     36  H   UNL     1      49.628   1.266  16.628  0.00  0.00    +0.000 HD
ENDBRANCH  23  26
ENDBRANCH  21  22
ENDBRANCH   4  21
TORSDOF 10
ENDMDL
MODEL 4
REMARK VINA RESULT:    -6.786      2.909      8.115
REMARK INTER + INTRA:         -12.263
REMARK INTER:                 -10.643
REMARK INTRA:                  -1.621
REMARK UNBOUND:                -1.510
REMARK  Name = 
REMARK  11 active torsions:
REMARK  status: ('A' for Active; 'I' for Inactive)
REMARK    1  A    between atoms: C_1  and  O_2
REMARK    2  A    between atoms: O_2  and  C_3
REMARK    3  A    between atoms: C_3  and  C_4
REMARK    4  A    between atoms: C_4  and  N_5
REMARK    5  A    between atoms: N_5  and  C_6
REMARK    6  A    between atoms: C_6  and  C_7
REMARK    7  A    between atoms: C_11  and  C_12
REMARK    8  A    between atoms: C_12  and  C_13
REMARK    9  A    between atoms: C_16  and  C_17
REMARK   10  A    between atoms: C_17  and  N_18
REMARK   11  A    between atoms: C_19  and  C_21
REMARK                            x       y       z     vdW  Elec       q    Type
REMARK                         _______ _______ _______ _____ _____    ______ ____
ROOT
ATOM      1  C   UNL     1      49.671   8.207  15.638  0.00  0.00    +0.000 A 
ATOM      2  C   UNL     1      48.816   9.277  15.338  0.00  0.00    +0.000 A 
ATOM      3  C   UNL     1      48.086   9.294  14.146  0.00  0.00    +0.000 A 
ATOM      4  C   UNL     1      48.204   8.244  13.228  0.00  0.00    +0.000 A 
ATOM      5  C   UNL     1      49.121   7.218  13.489  0.00  0.00    +0.000 A 
ATOM      6  C   UNL     1      49.837   7.191  14.689  0.00  0.00    +0.000 A 
ENDROOT
BRANCH   1   7
ATOM      7  C   UNL     1      50.355   8.128  16.986  0.00  0.00    +0.000 C 
BRANCH   7  12
ATOM      8  C   UNL     1      49.844   4.719  18.336  0.00  0.00    +0.000 A 
ATOM      9  C   UNL     1      51.101   4.124  18.260  0.00  0.00    +0.000 A 
ATOM     10  C   UNL     1      52.164   4.874  17.780  0.00  0.00    +0.000 A 
ATOM     11  C   UNL     1      51.942   6.188  17.380  0.00  0.00    +0.000 A 
ATOM     12  C   UNL     1      50.654   6.718  17.459  0.00  0.00    +0.000 A 
ATOM     13  N   UNL     1      49.607   5.994  17.926  0.00  0.00    +0.000 NA
BRANCH   8  14
ATOM     14  C   UNL     1      48.706   3.991  19.023  0.00  0.00    +0.000 C 
BRANCH  14  15
ATOM     15  N   UNL     1      47.395   4.204  18.379  0.00  0.00    +0.000 NA
ATOM     16  H   UNL     1      46.670   4.006  19.067  0.00  0.00    +0.000 HD
BRANCH  15  17
ATOM     17  C   UNL     1      47.219   3.297  17.232  0.00  0.00    +0.000 C 
BRANCH  17  18
ATOM     18  C   UNL     1      47.270   4.066  15.910  0.00  0.00    +0.000 C 
BRANCH  18  20
ATOM     19  C   UNL     1      46.949   3.544  13.640  0.00  0.00    +0.000 C 
ATOM     20  O   UNL     1      47.575   3.154  14.854  0.00  0.00    +0.000 OA
ENDBRANCH  18  20
ENDBRANCH  17  18
ENDBRANCH  15  17
ENDBRANCH  14  15
ENDBRANCH   8  14
ENDBRANCH   7  12
ENDBRANCH   1   7
BRANCH   4  21
ATOM     21  C   UNL     1      47.364   8.214  11.977  0.00  0.00    +0.000 C 
BRANCH  21  22
ATOM     22  N   UNL     1      46.678   6.959  11.831  0.00  0.00    +0.000 N 
ATOM     23  C   UNL     1      45.320   6.912  11.640  0.00  0.00    +0.000 C 
ATOM     24  O   UNL     1      44.639   7.929  11.535  0.00  0.00    +0.000 OA
ATOM     25  H   UNL     1      47.164   6.131  12.161  0.00  0.00    +0.000 HD
BRANCH  23  26
ATOM     26  C   UNL     1      44.731   5.576  11.499  0.00  0.00    +0.000 A 
ATOM     27  C   UNL     1      43.932   5.065  12.514  0.00  0.00    +0.000 A 
ATOM     28  S   UNL     1      43.284   3.527  12.162  0.00  0.00    +0.000 S 
ATOM     29  C   UNL     1      44.093   3.468  10.665  0.00  0.00    +0.000 A 
ATOM     30  N   UNL     1      43.986   2.382   9.854  0.00  0.00    +0.000 NA
ATOM     31  C   UNL     1      44.674   2.464   8.762  0.00  0.00    +0.000 A 
ATOM     32  N   UNL     1      45.452   3.529   8.406  0.00  0.00    +0.000 N 
ATOM     33  C   UNL     1      45.573   4.658   9.183  0.00  0.00    +0.000 A 
ATOM     34  O   UNL     1      46.250   5.614   8.817  0.00  0.00    +0.000 OA
ATOM     35  C   UNL     1      44.829   4.615  10.428  0.00  0.00    +0.000 A 
ATOM     36  H   UNL     1      45.959   3.535   7.534  0.00  0.00    +0.000 HD
ENDBRANCH  23  26
ENDBRANCH  21  22
ENDBRANCH   4  21
TORSDOF 10
ENDMDL
MODEL 5
REMARK VINA RESULT:    -6.774      1.323      1.723
REMARK INTER + INTRA:         -12.245
REMARK INTER:                 -11.217
REMARK INTRA:                  -1.028
REMARK UNBOUND:                -1.510
REMARK  Name = 
REMARK  11 active torsions:
REMARK  status: ('A' for Active; 'I' for Inactive)
REMARK    1  A    between atoms: C_1  and  O_2
REMARK    2  A    between atoms: O_2  and  C_3
REMARK    3  A    between atoms: C_3  and  C_4
REMARK    4  A    between atoms: C_4  and  N_5
REMARK    5  A    between atoms: N_5  and  C_6
REMARK    6  A    between atoms: C_6  and  C_7
REMARK    7  A    between atoms: C_11  and  C_12
REMARK    8  A    between atoms: C_12  and  C_13
REMARK    9  A    between atoms: C_16  and  C_17
REMARK   10  A    between atoms: C_17  and  N_18
REMARK   11  A    between atoms: C_19  and  C_21
REMARK                            x       y       z     vdW  Elec       q    Type
REMARK                         _______ _______ _______ _____ _____    ______ ____
ROOT
ATOM      1  C   UNL     1      46.045   7.154  12.518  0.00  0.00    +0.000 A 
ATOM      2  C   UNL     1      46.306   8.433  13.027  0.00  0.00    +0.000 A 
ATOM      3  C   UNL     1      47.490   8.697  13.721  0.00  0.00    +0.000 A 
ATOM      4  C   UNL     1      48.432   7.682  13.927  0.00  0.00    +0.000 A 
ATOM      5  C   UNL     1      48.132   6.384  13.493  0.00  0.00    +0.000 A 
ATOM      6  C   UNL     1      46.957   6.124  12.782  0.00  0.00    +0.000 A 
ENDROOT
BRANCH   1   7
ATOM      7  C   UNL     1      44.827   6.906  11.653  0.00  0.00    +0.000 C 
BRANCH   7  12
ATOM      8  C   UNL     1      44.177   3.439  10.531  0.00  0.00    +0.000 A 
ATOM      9  C   UNL     1      43.541   2.838  11.614  0.00  0.00    +0.000 A 
ATOM     10  C   UNL     1      43.284   3.602  12.742  0.00  0.00    +0.000 A 
ATOM     11  C   UNL     1      43.678   4.936  12.764  0.00  0.00    +0.000 A 
ATOM     12  C   UNL     1      44.333   5.473  11.655  0.00  0.00    +0.000 A 
ATOM     13  N   UNL     1      44.590   4.734  10.547  0.00  0.00    +0.000 NA
BRANCH   8  14
ATOM     14  C   UNL     1      44.307   2.687   9.221  0.00  0.00    +0.000 C 
BRANCH  14  15
ATOM     15  N   UNL     1      45.512   1.838   9.146  0.00  0.00    +0.000 NA
ATOM     16  H   UNL     1      46.099   2.051   9.951  0.00  0.00    +0.000 HD
BRANCH  15  17
ATOM     17  C   UNL     1      46.275   2.116   7.917  0.00  0.00    +0.000 C 
BRANCH  17  18
ATOM     18  C   UNL     1      47.049   0.878   7.458  0.00  0.00    +0.000 C 
BRANCH  18  20
ATOM     19  C   UNL     1      47.733   2.413   5.813  0.00  0.00    +0.000 C 
ATOM     20  O   UNL     1      48.110   1.287   6.594  0.00  0.00    +0.000 OA
ENDBRANCH  18  20
ENDBRANCH  17  18
ENDBRANCH  15  17
ENDBRANCH  14  15
ENDBRANCH   8  14
ENDBRANCH   7  12
ENDBRANCH   1   7
BRANCH   4  21
ATOM     21  C   UNL     1      49.745   7.973  14.606  0.00  0.00    +0.000 C 
BRANCH  21  22
ATOM     22  N   UNL     1      49.632   7.877  16.037  0.00  0.00    +0.000 N 
ATOM     23  C   UNL     1      50.358   6.952  16.744  0.00  0.00    +0.000 C 
ATOM     24  O   UNL     1      51.168   6.204  16.203  0.00  0.00    +0.000 OA
ATOM     25  H   UNL     1      48.809   8.293  16.460  0.00  0.00    +0.000 HD
BRANCH  23  26
ATOM     26  C   UNL     1      50.166   6.950  18.198  0.00  0.00    +0.000 A 
ATOM     27  C   UNL     1      50.595   8.036  18.952  0.00  0.00    +0.000 A 
ATOM     28  S   UNL     1      50.243   7.893  20.614  0.00  0.00    +0.000 S 
ATOM     29  C   UNL     1      49.554   6.352  20.392  0.00  0.00    +0.000 A 
ATOM     30  N   UNL     1      49.069   5.643  21.447  0.00  0.00    +0.000 NA
ATOM     31  C   UNL     1      48.600   4.480  21.134  0.00  0.00    +0.000 A 
ATOM     32  N   UNL     1      48.565   3.963  19.871  0.00  0.00    +0.000 N 
ATOM     33  C   UNL     1      49.023   4.652  18.771  0.00  0.00    +0.000 A 
ATOM     34  O   UNL     1      48.944   4.175  17.643  0.00  0.00    +0.000 OA
ATOM     35  C   UNL     1      49.572   5.962  19.065  0.00  0.00    +0.000 A 
ATOM     36  H   UNL     1      48.177   3.049  19.692  0.00  0.00    +0.000 HD
ENDBRANCH  23  26
ENDBRANCH  21  22
ENDBRANCH   4  21
TORSDOF 10
ENDMDL
MODEL 6
REMARK VINA RESULT:    -6.768      2.857      8.030
REMARK INTER + INTRA:         -12.235
REMARK INTER:                 -10.490
REMARK INTRA:                  -1.745
REMARK UNBOUND:                -1.510
REMARK  Name = 
REMARK  11 active torsions:
REMARK  status: ('A' for Active; 'I' for Inactive)
REMARK    1  A    between atoms: C_1  and  O_2
REMARK    2  A    between atoms: O_2  and  C_3
REMARK    3  A    between atoms: C_3  and  C_4
REMARK    4  A    between atoms: C_4  and  N_5
REMARK    5  A    between atoms: N_5  and  C_6
REMARK    6  A    between atoms: C_6  and  C_7
REMARK    7  A    between atoms: C_11  and  C_12
REMARK    8  A    between atoms: C_12  and  C_13
REMARK    9  A    between atoms: C_16  and  C_17
REMARK   10  A    between atoms: C_17  and  N_18
REMARK   11  A    between atoms: C_19  and  C_21
REMARK                            x       y       z     vdW  Elec       q    Type
REMARK                         _______ _______ _______ _____ _____    ______ ____
ROOT
ATOM      1  C   UNL     1      49.649   8.660  15.457  0.00  0.00    +0.000 A 
ATOM      2  C   UNL     1      48.519   9.390  15.065  0.00  0.00    +0.000 A 
ATOM      3  C   UNL     1      47.962   9.216  13.796  0.00  0.00    +0.000 A 
ATOM      4  C   UNL     1      48.531   8.313  12.890  0.00  0.00    +0.000 A 
ATOM      5  C   UNL     1      49.710   7.646  13.251  0.00  0.00    +0.000 A 
ATOM      6  C   UNL     1      50.256   7.806  14.528  0.00  0.00    +0.000 A 
ENDROOT
BRANCH   1   7
ATOM      7  C   UNL     1      50.168   8.752  16.877  0.00  0.00    +0.000 C 
BRANCH   7  12
ATOM      8  C   UNL     1      47.920   6.901  19.162  0.00  0.00    +0.000 A 
ATOM      9  C   UNL     1      47.313   7.891  19.929  0.00  0.00    +0.000 A 
ATOM     10  C   UNL     1      47.624   9.218  19.669  0.00  0.00    +0.000 A 
ATOM     11  C   UNL     1      48.537   9.517  18.664  0.00  0.00    +0.000 A 
ATOM     12  C   UNL     1      49.129   8.477  17.946  0.00  0.00    +0.000 A 
ATOM     13  N   UNL     1      48.833   7.176  18.192  0.00  0.00    +0.000 NA
BRANCH   8  14
ATOM     14  C   UNL     1      47.467   5.460  19.295  0.00  0.00    +0.000 C 
BRANCH  14  15
ATOM     15  N   UNL     1      46.610   5.005  18.183  0.00  0.00    +0.000 NA
ATOM     16  H   UNL     1      45.761   4.607  18.582  0.00  0.00    +0.000 HD
BRANCH  15  17
ATOM     17  C   UNL     1      47.289   3.970  17.386  0.00  0.00    +0.000 C 
BRANCH  17  18
ATOM     18  C   UNL     1      47.399   4.390  15.919  0.00  0.00    +0.000 C 
BRANCH  18  20
ATOM     19  C   UNL     1      47.058   3.440  13.794  0.00  0.00    +0.000 C 
ATOM     20  O   UNL     1      47.545   3.221  15.111  0.00  0.00    +0.000 OA
ENDBRANCH  18  20
ENDBRANCH  17  18
ENDBRANCH  15  17
ENDBRANCH  14  15
ENDBRANCH   8  14
ENDBRANCH   7  12
ENDBRANCH   1   7
BRANCH   4  21
ATOM     21  C   UNL     1      47.895   8.061  11.548  0.00  0.00    +0.000 C 
BRANCH  21  22
ATOM     22  N   UNL     1      47.086   6.871  11.562  0.00  0.00    +0.000 N 
ATOM     23  C   UNL     1      45.718   6.945  11.615  0.00  0.00    +0.000 C 
ATOM     24  O   UNL     1      45.120   8.018  11.603  0.00  0.00    +0.000 OA
ATOM     25  H   UNL     1      47.550   6.007  11.824  0.00  0.00    +0.000 HD
BRANCH  23  26
ATOM     26  C   UNL     1      44.998   5.666  11.619  0.00  0.00    +0.000 A 
ATOM     27  C   UNL     1      44.264   5.292  12.737  0.00  0.00    +0.000 A 
ATOM     28  S   UNL     1      43.448   3.806  12.550  0.00  0.00    +0.000 S 
ATOM     29  C   UNL     1      44.091   3.586  10.989  0.00  0.00    +0.000 A 
ATOM     30  N   UNL     1      43.804   2.472  10.264  0.00  0.00    +0.000 NA
ATOM     31  C   UNL     1      44.382   2.426   9.109  0.00  0.00    +0.000 A 
ATOM     32  N   UNL     1      45.212   3.389   8.611  0.00  0.00    +0.000 N 
ATOM     33  C   UNL     1      45.513   4.543   9.297  0.00  0.00    +0.000 A 
ATOM     34  O   UNL     1      46.233   5.407   8.806  0.00  0.00    +0.000 OA
ATOM     35  C   UNL     1      44.899   4.642  10.608  0.00  0.00    +0.000 A 
ATOM     36  H   UNL     1      45.626   3.297   7.695  0.00  0.00    +0.000 HD
ENDBRANCH  23  26
ENDBRANCH  21  22
ENDBRANCH   4  21
TORSDOF 10
ENDMDL
MODEL 7
REMARK VINA RESULT:    -6.377      1.743      2.722
REMARK INTER + INTRA:         -11.616
REMARK INTER:                 -10.478
REMARK INTRA:                  -1.138
REMARK UNBOUND:                -1.510
REMARK  Name = 
REMARK  11 active torsions:
REMARK  status: ('A' for Active; 'I' for Inactive)
REMARK    1  A    between atoms: C_1  and  O_2
REMARK    2  A    between atoms: O_2  and  C_3
REMARK    3  A    between atoms: C_3  and  C_4
REMARK    4  A    between atoms: C_4  and  N_5
REMARK    5  A    between atoms: N_5  and  C_6
REMARK    6  A    between atoms: C_6  and  C_7
REMARK    7  A    between atoms: C_11  and  C_12
REMARK    8  A    between atoms: C_12  and  C_13
REMARK    9  A    between atoms: C_16  and  C_17
REMARK   10  A    between atoms: C_17  and  N_18
REMARK   11  A    between atoms: C_19  and  C_21
REMARK                            x       y       z     vdW  Elec       q    Type
REMARK                         _______ _______ _______ _____ _____    ______ ____
ROOT
ATOM      1  C   UNL     1      46.268   7.199  12.393  0.00  0.00    +0.000 A 
ATOM      2  C   UNL     1      46.443   8.340  13.189  0.00  0.00    +0.000 A 
ATOM      3  C   UNL     1      47.589   8.494  13.974  0.00  0.00    +0.000 A 
ATOM      4  C   UNL     1      48.579   7.504  13.984  0.00  0.00    +0.000 A 
ATOM      5  C   UNL     1      48.365   6.327  13.254  0.00  0.00    +0.000 A 
ATOM      6  C   UNL     1      47.227   6.181  12.455  0.00  0.00    +0.000 A 
ENDROOT
BRANCH   1   7
ATOM      7  C   UNL     1      45.092   7.099  11.445  0.00  0.00    +0.000 C 
BRANCH   7  12
ATOM      8  C   UNL     1      44.469   3.783   9.922  0.00  0.00    +0.000 A 
ATOM      9  C   UNL     1      43.694   3.109  10.862  0.00  0.00    +0.000 A 
ATOM     10  C   UNL     1      43.332   3.774  12.025  0.00  0.00    +0.000 A 
ATOM     11  C   UNL     1      43.763   5.082  12.221  0.00  0.00    +0.000 A 
ATOM     12  C   UNL     1      44.557   5.693  11.251  0.00  0.00    +0.000 A 
ATOM     13  N   UNL     1      44.918   5.053  10.111  0.00  0.00    +0.000 NA
BRANCH   8  14
ATOM     14  C   UNL     1      44.727   3.153   8.567  0.00  0.00    +0.000 C 
BRANCH  14  15
ATOM     15  N   UNL     1      45.443   4.041   7.630  0.00  0.00    +0.000 NA
ATOM     16  H   UNL     1      44.912   4.075   6.761  0.00  0.00    +0.000 HD
BRANCH  15  17
ATOM     17  C   UNL     1      46.791   3.523   7.342  0.00  0.00    +0.000 C 
BRANCH  17  18
ATOM     18  C   UNL     1      46.775   2.595   6.125  0.00  0.00    +0.000 C 
BRANCH  18  20
ATOM     19  C   UNL     1      46.990   0.639   7.411  0.00  0.00    +0.000 C 
ATOM     20  O   UNL     1      47.580   1.449   6.405  0.00  0.00    +0.000 OA
ENDBRANCH  18  20
ENDBRANCH  17  18
ENDBRANCH  15  17
ENDBRANCH  14  15
ENDBRANCH   8  14
ENDBRANCH   7  12
ENDBRANCH   1   7
BRANCH   4  21
ATOM     21  C   UNL     1      49.853   7.694  14.765  0.00  0.00    +0.000 C 
BRANCH  21  22
ATOM     22  N   UNL     1      49.609   7.689  16.182  0.00  0.00    +0.000 N 
ATOM     23  C   UNL     1      49.365   6.520  16.855  0.00  0.00    +0.000 C 
ATOM     24  O   UNL     1      49.391   5.426  16.297  0.00  0.00    +0.000 OA
ATOM     25  H   UNL     1      49.337   8.572  16.602  0.00  0.00    +0.000 HD
BRANCH  23  26
ATOM     26  C   UNL     1      49.135   6.637  18.299  0.00  0.00    +0.000 A 
ATOM     27  C   UNL     1      49.638   5.668  19.158  0.00  0.00    +0.000 A 
ATOM     28  S   UNL     1      49.329   5.990  20.804  0.00  0.00    +0.000 S 
ATOM     29  C   UNL     1      48.465   7.406  20.422  0.00  0.00    +0.000 A 
ATOM     30  N   UNL     1      47.894   8.163  21.397  0.00  0.00    +0.000 NA
ATOM     31  C   UNL     1      47.248   9.194  20.960  0.00  0.00    +0.000 A 
ATOM     32  N   UNL     1      47.124   9.540  19.645  0.00  0.00    +0.000 N 
ATOM     33  C   UNL     1      47.703   8.818  18.626  0.00  0.00    +0.000 A 
ATOM     34  O   UNL     1      47.605   9.177  17.456  0.00  0.00    +0.000 OA
ATOM     35  C   UNL     1      48.432   7.642  19.059  0.00  0.00    +0.000 A 
ATOM     36  H   UNL     1      46.612  10.364  19.369  0.00  0.00    +0.000 HD
ENDBRANCH  23  26
ENDBRANCH  21  22
ENDBRANCH   4  21
TORSDOF 10
ENDMDL
MODEL 8
REMARK VINA RESULT:    -5.895      5.749      7.682
REMARK INTER + INTRA:         -10.851
REMARK INTER:                  -9.752
REMARK INTRA:                  -1.099
REMARK UNBOUND:                -1.510
REMARK  Name = 
REMARK  11 active torsions:
REMARK  status: ('A' for Active; 'I' for Inactive)
REMARK    1  A    between atoms: C_1  and  O_2
REMARK    2  A    between atoms: O_2  and  C_3
REMARK    3  A    between atoms: C_3  and  C_4
REMARK    4  A    between atoms: C_4  and  N_5
REMARK    5  A    between atoms: N_5  and  C_6
REMARK    6  A    between atoms: C_6  and  C_7
REMARK    7  A    between atoms: C_11  and  C_12
REMARK    8  A    between atoms: C_12  and  C_13
REMARK    9  A    between atoms: C_16  and  C_17
REMARK   10  A    between atoms: C_17  and  N_18
REMARK   11  A    between atoms: C_19  and  C_21
REMARK                            x       y       z     vdW  Elec       q    Type
REMARK                         _______ _______ _______ _____ _____    ______ ____
ROOT
ATOM      1  C   UNL     1      47.965   8.284  11.953  0.00  0.00    +0.000 A 
ATOM      2  C   UNL     1      48.398   9.615  11.878  0.00  0.00    +0.000 A 
ATOM      3  C   UNL     1      49.722   9.918  11.550  0.00  0.00    +0.000 A 
ATOM      4  C   UNL     1      50.642   8.893  11.298  0.00  0.00    +0.000 A 
ATOM      5  C   UNL     1      50.230   7.562  11.456  0.00  0.00    +0.000 A 
ATOM      6  C   UNL     1      48.901   7.260  11.765  0.00  0.00    +0.000 A 
ENDROOT
BRANCH   1   7
ATOM      7  C   UNL     1      46.502   7.965  12.175  0.00  0.00    +0.000 C 
BRANCH   7  12
ATOM      8  C   UNL     1      45.276   4.536  11.515  0.00  0.00    +0.000 A 
ATOM      9  C   UNL     1      45.690   3.800  12.622  0.00  0.00    +0.000 A 
ATOM     10  C   UNL     1      46.367   4.455  13.640  0.00  0.00    +0.000 A 
ATOM     11  C   UNL     1      46.622   5.817  13.520  0.00  0.00    +0.000 A 
ATOM     12  C   UNL     1      46.201   6.492  12.373  0.00  0.00    +0.000 A 
ATOM     13  N   UNL     1      45.539   5.862  11.372  0.00  0.00    +0.000 NA
BRANCH   8  14
ATOM     14  C   UNL     1      44.379   3.893  10.476  0.00  0.00    +0.000 C 
BRANCH  14  15
ATOM     15  N   UNL     1      45.083   2.940   9.596  0.00  0.00    +0.000 NA
ATOM     16  H   UNL     1      46.079   3.001   9.798  0.00  0.00    +0.000 HD
BRANCH  15  17
ATOM     17  C   UNL     1      44.866   3.275   8.178  0.00  0.00    +0.000 C 
BRANCH  17  18
ATOM     18  C   UNL     1      46.177   3.686   7.504  0.00  0.00    +0.000 C 
BRANCH  18  20
ATOM     19  C   UNL     1      47.155   1.835   6.433  0.00  0.00    +0.000 C 
ATOM     20  O   UNL     1      47.115   2.614   7.620  0.00  0.00    +0.000 OA
ENDBRANCH  18  20
ENDBRANCH  17  18
ENDBRANCH  15  17
ENDBRANCH  14  15
ENDBRANCH   8  14
ENDBRANCH   7  12
ENDBRANCH   1   7
BRANCH   4  21
ATOM     21  C   UNL     1      52.051   9.208  10.869  0.00  0.00    +0.000 C 
BRANCH  21  22
ATOM     22  N   UNL     1      52.369   8.593   9.608  0.00  0.00    +0.000 N 
ATOM     23  C   UNL     1      53.594   8.778   9.019  0.00  0.00    +0.000 C 
ATOM     24  O   UNL     1      54.487   9.429   9.556  0.00  0.00    +0.000 OA
ATOM     25  H   UNL     1      51.588   8.276   9.044  0.00  0.00    +0.000 HD
BRANCH  23  26
ATOM     26  C   UNL     1      53.807   8.098   7.737  0.00  0.00    +0.000 A 
ATOM     27  C   UNL     1      54.025   8.847   6.587  0.00  0.00    +0.000 A 
ATOM     28  S   UNL     1      54.309   7.898   5.199  0.00  0.00    +0.000 S 
ATOM     29  C   UNL     1      54.096   6.454   6.075  0.00  0.00    +0.000 A 
ATOM     30  N   UNL     1      54.181   5.243   5.462  0.00  0.00    +0.000 NA
ATOM     31  C   UNL     1      53.972   4.235   6.244  0.00  0.00    +0.000 A 
ATOM     32  N   UNL     1      53.692   4.325   7.578  0.00  0.00    +0.000 N 
ATOM     33  C   UNL     1      53.619   5.525   8.246  0.00  0.00    +0.000 A 
ATOM     34  O   UNL     1      53.402   5.570   9.453  0.00  0.00    +0.000 OA
ATOM     35  C   UNL     1      53.834   6.693   7.413  0.00  0.00    +0.000 A 
ATOM     36  H   UNL     1      53.547   3.497   8.136  0.00  0.00    +0.000 HD
ENDBRANCH  23  26
ENDBRANCH  21  22
ENDBRANCH   4  21
TORSDOF 10
ENDMDL
MODEL 9
REMARK VINA RESULT:    -5.706      5.890      8.706
REMARK INTER + INTRA:         -10.552
REMARK INTER:                  -9.485
REMARK INTRA:                  -1.067
REMARK UNBOUND:                -1.510
REMARK  Name = 
REMARK  11 active torsions:
REMARK  status: ('A' for Active; 'I' for Inactive)
REMARK    1  A    between atoms: C_1  and  O_2
REMARK    2  A    between atoms: O_2  and  C_3
REMARK    3  A    between atoms: C_3  and  C_4
REMARK    4  A    between atoms: C_4  and  N_5
REMARK    5  A    between atoms: N_5  and  C_6
REMARK    6  A    between atoms: C_6  and  C_7
REMARK    7  A    between atoms: C_11  and  C_12
REMARK    8  A    between atoms: C_12  and  C_13
REMARK    9  A    between atoms: C_16  and  C_17
REMARK   10  A    between atoms: C_17  and  N_18
REMARK   11  A    between atoms: C_19  and  C_21
REMARK                            x       y       z     vdW  Elec       q    Type
REMARK                         _______ _______ _______ _____ _____    ______ ____
ROOT
ATOM      1  C   UNL     1      48.219   8.723  11.923  0.00  0.00    +0.000 A 
ATOM      2  C   UNL     1      48.740  10.017  11.784  0.00  0.00    +0.000 A 
ATOM      3  C   UNL     1      50.075  10.212  11.419  0.00  0.00    +0.000 A 
ATOM      4  C   UNL     1      50.916   9.116  11.194  0.00  0.00    +0.000 A 
ATOM      5  C   UNL     1      50.418   7.825  11.415  0.00  0.00    +0.000 A 
ATOM      6  C   UNL     1      49.078   7.629  11.762  0.00  0.00    +0.000 A 
ENDROOT
BRANCH   1   7
ATOM      7  C   UNL     1      46.742   8.516  12.187  0.00  0.00    +0.000 C 
BRANCH   7  12
ATOM      8  C   UNL     1      46.115   5.034  13.274  0.00  0.00    +0.000 A 
ATOM      9  C   UNL     1      45.436   4.454  12.206  0.00  0.00    +0.000 A 
ATOM     10  C   UNL     1      45.203   5.218  11.072  0.00  0.00    +0.000 A 
ATOM     11  C   UNL     1      45.640   6.539  11.042  0.00  0.00    +0.000 A 
ATOM     12  C   UNL     1      46.293   7.068  12.155  0.00  0.00    +0.000 A 
ATOM     13  N   UNL     1      46.526   6.330  13.269  0.00  0.00    +0.000 NA
BRANCH   8  14
ATOM     14  C   UNL     1      46.545   4.177  14.448  0.00  0.00    +0.000 C 
BRANCH  14  15
ATOM     15  N   UNL     1      47.325   4.914  15.462  0.00  0.00    +0.000 NA
ATOM     16  H   UNL     1      48.260   5.068  15.089  0.00  0.00    +0.000 HD
BRANCH  15  17
ATOM     17  C   UNL     1      47.435   4.136  16.708  0.00  0.00    +0.000 C 
BRANCH  17  18
ATOM     18  C   UNL     1      48.900   3.874  17.065  0.00  0.00    +0.000 C 
BRANCH  18  20
ATOM     19  C   UNL     1      50.418   2.087  17.243  0.00  0.00    +0.000 C 
ATOM     20  O   UNL     1      49.280   2.593  16.560  0.00  0.00    +0.000 OA
ENDBRANCH  18  20
ENDBRANCH  17  18
ENDBRANCH  15  17
ENDBRANCH  14  15
ENDBRANCH   8  14
ENDBRANCH   7  12
ENDBRANCH   1   7
BRANCH   4  21
ATOM     21  C   UNL     1      52.334   9.314  10.725  0.00  0.00    +0.000 C 
BRANCH  21  22
ATOM     22  N   UNL     1      52.589   8.609   9.498  0.00  0.00    +0.000 N 
ATOM     23  C   UNL     1      53.772   8.766   8.823  0.00  0.00    +0.000 C 
ATOM     24  O   UNL     1      54.683   9.469   9.253  0.00  0.00    +0.000 OA
ATOM     25  H   UNL     1      51.781   8.238   9.008  0.00  0.00    +0.000 HD
BRANCH  23  26
ATOM     26  C   UNL     1      53.922   7.992   7.586  0.00  0.00    +0.000 A 
ATOM     27  C   UNL     1      54.109   8.652   6.378  0.00  0.00    +0.000 A 
ATOM     28  S   UNL     1      54.320   7.601   5.052  0.00  0.00    +0.000 S 
ATOM     29  C   UNL     1      54.113   6.228   6.037  0.00  0.00    +0.000 A 
ATOM     30  N   UNL     1      54.150   4.975   5.509  0.00  0.00    +0.000 NA
ATOM     31  C   UNL     1      53.952   4.030   6.369  0.00  0.00    +0.000 A 
ATOM     32  N   UNL     1      53.726   4.220   7.702  0.00  0.00    +0.000 N 
ATOM     33  C   UNL     1      53.702   5.466   8.285  0.00  0.00    +0.000 A 
ATOM     34  O   UNL     1      53.534   5.601   9.493  0.00  0.00    +0.000 OA
ATOM     35  C   UNL     1      53.909   6.567   7.362  0.00  0.00    +0.000 A 
ATOM     36  H   UNL     1      53.586   3.437   8.323  0.00  0.00    +0.000 HD
ENDBRANCH  23  26
ENDBRANCH  21  22
ENDBRANCH   4  21
TORSDOF 10
ENDMDL
