MODEL 1
REMARK VINA RESULT:    -8.571      0.000      0.000
REMARK INTER + INTRA:         -14.618
REMARK INTER:                 -13.581
REMARK INTRA:                  -1.037
REMARK UNBOUND:                -1.037
REMARK  Name = 
REMARK  11 active torsions:
REMARK  status: ('A' for Active; 'I' for Inactive)
REMARK    1  A    between atoms: N_1  and  C_2
REMARK    2  A    between atoms: C_2  and  C_3
REMARK    3  A    between atoms: C_2  and  C_21
REMARK    4  A    between atoms: C_3  and  N_4
REMARK    5  A    between atoms: N_4  and  C_5
REMARK    6  A    between atoms: C_5  and  C_6
REMARK    7  A    between atoms: C_9  and  C_10
REMARK    8  A    between atoms: C_10  and  N_11
REMARK    9  A    between atoms: N_11  and  C_12
REMARK   10  A    between atoms: C_12  and  C_13
REMARK   11  A    between atoms: C_28  and  O_29
REMARK                            x       y       z     vdW  Elec       q    Type
REMARK                         _______ _______ _______ _____ _____    ______ ____
ROOT
ATOM      1  N   UNL     1      48.705   6.087  14.337  0.00  0.00    +0.000 NA
ATOM      2  H   UNL     1      48.390   5.123  14.225  0.00  0.00    +0.000 HD
ENDROOT
BRANCH   1   3
ATOM      3  C   UNL     1      48.719   6.402  15.766  0.00  0.00    +0.000 C 
BRANCH   3   4
ATOM      4  C   UNL     1      48.557   5.128  16.652  0.00  0.00    +0.000 C 
BRANCH   4   5
ATOM      5  C   UNL     1      49.846   4.730  17.355  0.00  0.00    +0.000 A 
ATOM      6  C   UNL     1      50.537   5.651  18.131  0.00  0.00    +0.000 A 
ATOM      7  S   UNL     1      51.957   5.029  18.833  0.00  0.00    +0.000 S 
ATOM      8  C   UNL     1      51.701   3.505  18.127  0.00  0.00    +0.000 A 
ATOM      9  N   UNL     1      52.586   2.516  18.342  0.00  0.00    +0.000 NA
ATOM     10  C   UNL     1      52.244   1.376  17.739  0.00  0.00    +0.000 A 
ATOM     11  N   UNL     1      51.152   1.144  17.000  0.00  0.00    +0.000 NA
ATOM     12  C   UNL     1      50.306   2.167  16.829  0.00  0.00    +0.000 A 
ATOM     13  C   UNL     1      50.532   3.437  17.375  0.00  0.00    +0.000 A 
BRANCH  12  14
ATOM     14  O   UNL     1      49.205   1.828  16.097  0.00  0.00    +0.000 OA
ATOM     15  H   UNL     1      48.779   1.199  16.707  0.00  0.00    +0.000 HD
ENDBRANCH  12  14
ENDBRANCH   4   5
BRANCH   4  16
ATOM     16  N   UNL     1      47.458   5.235  17.611  0.00  0.00    +0.000 NA
ATOM     17  H   UNL     1      47.847   5.414  18.535  0.00  0.00    +0.000 HD
ATOM     18  H   UNL     1      47.053   4.293  17.707  0.00  0.00    +0.000 HD
ENDBRANCH   4  16
ENDBRANCH   3   4
ENDBRANCH   1   3
BRANCH   1  19
ATOM     19  C   UNL     1      47.805   6.953  13.576  0.00  0.00    +0.000 C 
BRANCH  19  20
ATOM     20  C   UNL     1      46.706   6.177  12.873  0.00  0.00    +0.000 A 
ATOM     21  C   UNL     1      46.052   5.092  13.473  0.00  0.00    +0.000 A 
ATOM     22  C   UNL     1      45.022   4.425  12.817  0.00  0.00    +0.000 A 
ATOM     23  C   UNL     1      44.622   4.818  11.534  0.00  0.00    +0.000 A 
ATOM     24  C   UNL     1      45.284   5.884  10.916  0.00  0.00    +0.000 A 
ATOM     25  C   UNL     1      46.315   6.559  11.579  0.00  0.00    +0.000 A 
BRANCH  23  26
ATOM     26  C   UNL     1      43.484   4.092  10.859  0.00  0.00    +0.000 C 
BRANCH  26  27
ATOM     27  N   UNL     1      43.883   3.686   9.517  0.00  0.00    +0.000 NA
ATOM     28  H   UNL     1      44.458   4.416   9.099  0.00  0.00    +0.000 HD
BRANCH  27  29
ATOM     29  C   UNL     1      44.617   2.428   9.519  0.00  0.00    +0.000 C 
BRANCH  29  30
ATOM     30  C   UNL     1      45.617   2.403   8.386  0.00  0.00    +0.000 A 
ATOM     31  C   UNL     1      46.327   1.235   8.081  0.00  0.00    +0.000 A 
ATOM     32  C   UNL     1      47.251   1.222   7.034  0.00  0.00    +0.000 A 
ATOM     33  C   UNL     1      47.476   2.377   6.285  0.00  0.00    +0.000 A 
ATOM     34  C   UNL     1      46.779   3.545   6.580  0.00  0.00    +0.000 A 
ATOM     35  C   UNL     1      45.853   3.558   7.623  0.00  0.00    +0.000 A 
ENDBRANCH  29  30
ENDBRANCH  27  29
ENDBRANCH  26  27
ENDBRANCH  23  26
ENDBRANCH  19  20
ENDBRANCH   1  19
TORSDOF 11
ENDMDL
MODEL 2
REMARK VINA RESULT:    -8.530      1.993      2.833
REMARK INTER + INTRA:         -14.554
REMARK INTER:                 -13.569
REMARK INTRA:                  -0.984
REMARK UNBOUND:                -1.037
REMARK  Name = 
REMARK  11 active torsions:
REMARK  status: ('A' for Active; 'I' for Inactive)
REMARK    1  A    between atoms: N_1  and  C_2
REMARK    2  A    between atoms: C_2  and  C_3
REMARK    3  A    between atoms: C_2  and  C_21
REMARK    4  A    between atoms: C_3  and  N_4
REMARK    5  A    between atoms: N_4  and  C_5
REMARK    6  A    between atoms: C_5  and  C_6
REMARK    7  A    between atoms: C_9  and  C_10
REMARK    8  A    between atoms: C_10  and  N_11
REMARK    9  A    between atoms: N_11  and  C_12
REMARK   10  A    between atoms: C_12  and  C_13
REMARK   11  A    between atoms: C_28  and  O_29
REMARK                            x       y       z     vdW  Elec       q    Type
REMARK                         _______ _______ _______ _____ _____    ______ ____
ROOT
ATOM      1  N   UNL     1      47.319   4.956  15.663  0.00  0.00    +0.000 NA
ATOM      2  H   UNL     1      47.821   5.415  16.425  0.00  0.00    +0.000 HD
ENDROOT
BRANCH   1   3
ATOM      3  C   UNL     1      47.727   3.552  15.626  0.00  0.00    +0.000 C 
BRANCH   3   4
ATOM      4  C   UNL     1      47.954   2.966  17.054  0.00  0.00    +0.000 C 
BRANCH   4   5
ATOM      5  C   UNL     1      48.928   3.790  17.884  0.00  0.00    +0.000 A 
ATOM      6  C   UNL     1      50.287   3.506  17.860  0.00  0.00    +0.000 A 
ATOM      7  S   UNL     1      51.218   4.527  18.854  0.00  0.00    +0.000 S 
ATOM      8  C   UNL     1      49.840   5.387  19.351  0.00  0.00    +0.000 A 
ATOM      9  N   UNL     1      49.970   6.402  20.224  0.00  0.00    +0.000 NA
ATOM     10  C   UNL     1      48.807   6.992  20.507  0.00  0.00    +0.000 A 
ATOM     11  N   UNL     1      47.601   6.689  20.010  0.00  0.00    +0.000 NA
ATOM     12  C   UNL     1      47.540   5.673  19.142  0.00  0.00    +0.000 A 
ATOM     13  C   UNL     1      48.665   4.934  18.758  0.00  0.00    +0.000 A 
BRANCH  12  14
ATOM     14  O   UNL     1      46.279   5.462  18.660  0.00  0.00    +0.000 OA
ATOM     15  H   UNL     1      46.154   6.277  18.141  0.00  0.00    +0.000 HD
ENDBRANCH  12  14
ENDBRANCH   4   5
BRANCH   4  16
ATOM     16  N   UNL     1      46.707   2.748  17.787  0.00  0.00    +0.000 NA
ATOM     17  H   UNL     1      45.930   3.062  17.210  0.00  0.00    +0.000 HD
ATOM     18  H   UNL     1      46.700   3.417  18.570  0.00  0.00    +0.000 HD
ENDBRANCH   4  16
ENDBRANCH   3   4
ENDBRANCH   1   3
BRANCH   1  19
ATOM     19  C   UNL     1      47.625   5.668  14.422  0.00  0.00    +0.000 C 
BRANCH  19  20
ATOM     20  C   UNL     1      46.565   5.463  13.356  0.00  0.00    +0.000 A 
ATOM     21  C   UNL     1      45.404   4.712  13.586  0.00  0.00    +0.000 A 
ATOM     22  C   UNL     1      44.432   4.574  12.600  0.00  0.00    +0.000 A 
ATOM     23  C   UNL     1      44.598   5.177  11.347  0.00  0.00    +0.000 A 
ATOM     24  C   UNL     1      45.765   5.908  11.098  0.00  0.00    +0.000 A 
ATOM     25  C   UNL     1      46.738   6.052  12.093  0.00  0.00    +0.000 A 
BRANCH  23  26
ATOM     26  C   UNL     1      43.515   5.031  10.306  0.00  0.00    +0.000 C 
BRANCH  26  27
ATOM     27  N   UNL     1      44.066   4.425   9.101  0.00  0.00    +0.000 NA
ATOM     28  H   UNL     1      44.844   4.989   8.762  0.00  0.00    +0.000 HD
BRANCH  27  29
ATOM     29  C   UNL     1      44.517   3.059   9.329  0.00  0.00    +0.000 C 
BRANCH  29  30
ATOM     30  C   UNL     1      45.554   2.670   8.301  0.00  0.00    +0.000 A 
ATOM     31  C   UNL     1      46.109   1.385   8.292  0.00  0.00    +0.000 A 
ATOM     32  C   UNL     1      47.070   1.036   7.340  0.00  0.00    +0.000 A 
ATOM     33  C   UNL     1      47.484   1.969   6.390  0.00  0.00    +0.000 A 
ATOM     34  C   UNL     1      46.942   3.251   6.390  0.00  0.00    +0.000 A 
ATOM     35  C   UNL     1      45.981   3.599   7.338  0.00  0.00    +0.000 A 
ENDBRANCH  29  30
ENDBRANCH  27  29
ENDBRANCH  26  27
ENDBRANCH  23  26
ENDBRANCH  19  20
ENDBRANCH   1  19
TORSDOF 11
ENDMDL
MODEL 3
REMARK VINA RESULT:    -8.171      2.236      2.877
REMARK INTER + INTRA:         -13.985
REMARK INTER:                 -12.270
REMARK INTRA:                  -1.715
REMARK UNBOUND:                -1.037
REMARK  Name = 
REMARK  11 active torsions:
REMARK  status: ('A' for Active; 'I' for Inactive)
REMARK    1  A    between atoms: N_1  and  C_2
REMARK    2  A    between atoms: C_2  and  C_3
REMARK    3  A    between atoms: C_2  and  C_21
REMARK    4  A    between atoms: C_3  and  N_4
REMARK    5  A    between atoms: N_4  and  C_5
REMARK    6  A    between atoms: C_5  and  C_6
REMARK    7  A    between atoms: C_9  and  C_10
REMARK    8  A    between atoms: C_10  and  N_11
REMARK    9  A    between atoms: N_11  and  C_12
REMARK   10  A    between atoms: C_12  and  C_13
REMARK   11  A    between atoms: C_28  and  O_29
REMARK                            x       y       z     vdW  Elec       q    Type
REMARK                         _______ _______ _______ _____ _____    ______ ____
ROOT
ATOM      1  N   UNL     1      47.200   8.527  12.655  0.00  0.00    +0.000 NA
ATOM      2  H   UNL     1      47.609   7.801  12.066  0.00  0.00    +0.000 HD
ENDROOT
BRANCH   1   3
ATOM      3  C   UNL     1      47.579   8.260  14.042  0.00  0.00    +0.000 C 
BRANCH   3   4
ATOM      4  C   UNL     1      48.863   7.378  14.143  0.00  0.00    +0.000 C 
BRANCH   4   5
ATOM      5  C   UNL     1      48.990   6.669  15.483  0.00  0.00    +0.000 A 
ATOM      6  C   UNL     1      49.850   7.156  16.458  0.00  0.00    +0.000 A 
ATOM      7  S   UNL     1      49.864   6.230  17.885  0.00  0.00    +0.000 S 
ATOM      8  C   UNL     1      48.719   5.145  17.255  0.00  0.00    +0.000 A 
ATOM      9  N   UNL     1      48.311   4.103  18.001  0.00  0.00    +0.000 NA
ATOM     10  C   UNL     1      47.400   3.349  17.381  0.00  0.00    +0.000 A 
ATOM     11  N   UNL     1      46.878   3.544  16.163  0.00  0.00    +0.000 NA
ATOM     12  C   UNL     1      47.321   4.602  15.475  0.00  0.00    +0.000 A 
ATOM     13  C   UNL     1      48.294   5.478  15.973  0.00  0.00    +0.000 A 
BRANCH  12  14
ATOM     14  O   UNL     1      46.706   4.742  14.264  0.00  0.00    +0.000 OA
ATOM     15  H   UNL     1      45.876   5.171  14.540  0.00  0.00    +0.000 HD
ENDBRANCH  12  14
ENDBRANCH   4   5
BRANCH   4  16
ATOM     16  N   UNL     1      48.989   6.425  13.041  0.00  0.00    +0.000 NA
ATOM     17  H   UNL     1      48.662   6.870  12.185  0.00  0.00    +0.000 HD
ATOM     18  H   UNL     1      48.290   5.687  13.202  0.00  0.00    +0.000 HD
ENDBRANCH   4  16
ENDBRANCH   3   4
ENDBRANCH   1   3
BRANCH   1  19
ATOM     19  C   UNL     1      45.751   8.516  12.453  0.00  0.00    +0.000 C 
BRANCH  19  20
ATOM     20  C   UNL     1      45.225   7.144  12.077  0.00  0.00    +0.000 A 
ATOM     21  C   UNL     1      45.755   6.403  11.011  0.00  0.00    +0.000 A 
ATOM     22  C   UNL     1      45.275   5.131  10.715  0.00  0.00    +0.000 A 
ATOM     23  C   UNL     1      44.242   4.564  11.471  0.00  0.00    +0.000 A 
ATOM     24  C   UNL     1      43.689   5.305  12.522  0.00  0.00    +0.000 A 
ATOM     25  C   UNL     1      44.177   6.581  12.824  0.00  0.00    +0.000 A 
BRANCH  23  26
ATOM     26  C   UNL     1      43.761   3.172  11.143  0.00  0.00    +0.000 C 
BRANCH  26  27
ATOM     27  N   UNL     1      44.840   2.407  10.531  0.00  0.00    +0.000 NA
ATOM     28  H   UNL     1      45.091   1.628  11.139  0.00  0.00    +0.000 HD
BRANCH  27  29
ATOM     29  C   UNL     1      44.478   1.901   9.215  0.00  0.00    +0.000 C 
BRANCH  29  30
ATOM     30  C   UNL     1      45.604   2.135   8.234  0.00  0.00    +0.000 A 
ATOM     31  C   UNL     1      46.526   1.122   7.944  0.00  0.00    +0.000 A 
ATOM     32  C   UNL     1      47.564   1.349   7.039  0.00  0.00    +0.000 A 
ATOM     33  C   UNL     1      47.692   2.590   6.417  0.00  0.00    +0.000 A 
ATOM     34  C   UNL     1      46.783   3.607   6.699  0.00  0.00    +0.000 A 
ATOM     35  C   UNL     1      45.744   3.380   7.600  0.00  0.00    +0.000 A 
ENDBRANCH  29  30
ENDBRANCH  27  29
ENDBRANCH  26  27
ENDBRANCH  23  26
ENDBRANCH  19  20
ENDBRANCH   1  19
TORSDOF 11
ENDMDL
MODEL 4
REMARK VINA RESULT:    -8.005      2.333      3.006
REMARK INTER + INTRA:         -13.722
REMARK INTER:                 -12.421
REMARK INTRA:                  -1.301
REMARK UNBOUND:                -1.037
REMARK  Name = 
REMARK  11 active torsions:
REMARK  status: ('A' for Active; 'I' for Inactive)
REMARK    1  A    between atoms: N_1  and  C_2
REMARK    2  A    between atoms: C_2  and  C_3
REMARK    3  A    between atoms: C_2  and  C_21
REMARK    4  A    between atoms: C_3  and  N_4
REMARK    5  A    between atoms: N_4  and  C_5
REMARK    6  A    between atoms: C_5  and  C_6
REMARK    7  A    between atoms: C_9  and  C_10
REMARK    8  A    between atoms: C_10  and  N_11
REMARK    9  A    between atoms: N_11  and  C_12
REMARK   10  A    between atoms: C_12  and  C_13
REMARK   11  A    between atoms: C_28  and  O_29
REMARK                            x       y       z     vdW  Elec       q    Type
REMARK                         _______ _______ _______ _____ _____    ______ ____
ROOT
ATOM      1  N   UNL     1      48.810   6.293  14.146  0.00  0.00    +0.000 NA
ATOM      2  H   UNL     1      48.380   5.379  14.293  0.00  0.00    +0.000 HD
ENDROOT
BRANCH   1   3
ATOM      3  C   UNL     1      49.000   6.925  15.451  0.00  0.00    +0.000 C 
BRANCH   3   4
ATOM      4  C   UNL     1      49.027   5.884  16.613  0.00  0.00    +0.000 C 
BRANCH   4   5
ATOM      5  C   UNL     1      48.592   6.474  17.946  0.00  0.00    +0.000 A 
ATOM      6  C   UNL     1      48.194   7.802  18.031  0.00  0.00    +0.000 A 
ATOM      7  S   UNL     1      47.751   8.286  19.600  0.00  0.00    +0.000 S 
ATOM      8  C   UNL     1      48.071   6.738  20.225  0.00  0.00    +0.000 A 
ATOM      9  N   UNL     1      47.891   6.502  21.537  0.00  0.00    +0.000 NA
ATOM     10  C   UNL     1      48.167   5.241  21.876  0.00  0.00    +0.000 A 
ATOM     11  N   UNL     1      48.563   4.250  21.067  0.00  0.00    +0.000 NA
ATOM     12  C   UNL     1      48.717   4.549  19.772  0.00  0.00    +0.000 A 
ATOM     13  C   UNL     1      48.493   5.832  19.258  0.00  0.00    +0.000 A 
BRANCH  12  14
ATOM     14  O   UNL     1      49.085   3.470  19.019  0.00  0.00    +0.000 OA
ATOM     15  H   UNL     1      49.661   3.006  19.652  0.00  0.00    +0.000 HD
ENDBRANCH  12  14
ENDBRANCH   4   5
BRANCH   4  16
ATOM     16  N   UNL     1      48.265   4.672  16.311  0.00  0.00    +0.000 NA
ATOM     17  H   UNL     1      47.291   4.929  16.157  0.00  0.00    +0.000 HD
ATOM     18  H   UNL     1      48.225   4.120  17.179  0.00  0.00    +0.000 HD
ENDBRANCH   4  16
ENDBRANCH   3   4
ENDBRANCH   1   3
BRANCH   1  19
ATOM     19  C   UNL     1      47.940   7.069  13.263  0.00  0.00    +0.000 C 
BRANCH  19  20
ATOM     20  C   UNL     1      46.811   6.240  12.680  0.00  0.00    +0.000 A 
ATOM     21  C   UNL     1      46.126   5.273  13.429  0.00  0.00    +0.000 A 
ATOM     22  C   UNL     1      45.069   4.555  12.877  0.00  0.00    +0.000 A 
ATOM     23  C   UNL     1      44.672   4.776  11.553  0.00  0.00    +0.000 A 
ATOM     24  C   UNL     1      45.365   5.721  10.788  0.00  0.00    +0.000 A 
ATOM     25  C   UNL     1      46.422   6.448  11.346  0.00  0.00    +0.000 A 
BRANCH  23  26
ATOM     26  C   UNL     1      43.506   4.001  10.991  0.00  0.00    +0.000 C 
BRANCH  26  27
ATOM     27  N   UNL     1      43.799   3.588   9.624  0.00  0.00    +0.000 NA
ATOM     28  H   UNL     1      44.317   4.327   9.150  0.00  0.00    +0.000 HD
BRANCH  27  29
ATOM     29  C   UNL     1      44.563   2.349   9.575  0.00  0.00    +0.000 C 
BRANCH  29  30
ATOM     30  C   UNL     1      45.568   2.397   8.448  0.00  0.00    +0.000 A 
ATOM     31  C   UNL     1      45.796   3.582   7.738  0.00  0.00    +0.000 A 
ATOM     32  C   UNL     1      46.724   3.615   6.696  0.00  0.00    +0.000 A 
ATOM     33  C   UNL     1      47.432   2.464   6.353  0.00  0.00    +0.000 A 
ATOM     34  C   UNL     1      47.212   1.278   7.048  0.00  0.00    +0.000 A 
ATOM     35  C   UNL     1      46.288   1.245   8.091  0.00  0.00    +0.000 A 
ENDBRANCH  29  30
ENDBRANCH  27  29
ENDBRANCH  26  27
ENDBRANCH  23  26
ENDBRANCH  19  20
ENDBRANCH   1  19
TORSDOF 11
ENDMDL
MODEL 5
REMARK VINA RESULT:    -7.558      2.305      3.001
REMARK INTER + INTRA:         -13.014
REMARK INTER:                 -11.554
REMARK INTRA:                  -1.459
REMARK UNBOUND:                -1.037
REMARK  Name = 
REMARK  11 active torsions:
REMARK  status: ('A' for Active; 'I' for Inactive)
REMARK    1  A    between atoms: N_1  and  C_2
REMARK    2  A    between atoms: C_2  and  C_3
REMARK    3  A    between atoms: C_2  and  C_21
REMARK    4  A    between atoms: C_3  and  N_4
REMARK    5  A    between atoms: N_4  and  C_5
REMARK    6  A    between atoms: C_5  and  C_6
REMARK    7  A    between atoms: C_9  and  C_10
REMARK    8  A    between atoms: C_10  and  N_11
REMARK    9  A    between atoms: N_11  and  C_12
REMARK   10  A    between atoms: C_12  and  C_13
REMARK   11  A    between atoms: C_28  and  O_29
REMARK                            x       y       z     vdW  Elec       q    Type
REMARK                         _______ _______ _______ _____ _____    ______ ____
ROOT
ATOM      1  N   UNL     1      46.910   3.947  16.131  0.00  0.00    +0.000 NA
ATOM      2  H   UNL     1      46.946   4.964  16.217  0.00  0.00    +0.000 HD
ENDROOT
BRANCH   1   3
ATOM      3  C   UNL     1      47.567   3.365  17.301  0.00  0.00    +0.000 C 
BRANCH   3   4
ATOM      4  C   UNL     1      47.632   4.363  18.499  0.00  0.00    +0.000 C 
BRANCH   4   5
ATOM      5  C   UNL     1      48.992   5.029  18.641  0.00  0.00    +0.000 A 
ATOM      6  C   UNL     1      49.886   4.601  19.614  0.00  0.00    +0.000 A 
ATOM      7  S   UNL     1      51.351   5.466  19.627  0.00  0.00    +0.000 S 
ATOM      8  C   UNL     1      50.847   6.443  18.332  0.00  0.00    +0.000 A 
ATOM      9  N   UNL     1      51.665   7.404  17.867  0.00  0.00    +0.000 NA
ATOM     10  C   UNL     1      51.141   8.076  16.840  0.00  0.00    +0.000 A 
ATOM     11  N   UNL     1      49.951   7.874  16.259  0.00  0.00    +0.000 NA
ATOM     12  C   UNL     1      49.187   6.898  16.764  0.00  0.00    +0.000 A 
ATOM     13  C   UNL     1      49.580   6.116  17.857  0.00  0.00    +0.000 A 
BRANCH  12  14
ATOM     14  O   UNL     1      48.013   6.739  16.085  0.00  0.00    +0.000 OA
ATOM     15  H   UNL     1      47.383   6.733  16.828  0.00  0.00    +0.000 HD
ENDBRANCH  12  14
ENDBRANCH   4   5
BRANCH   4  16
ATOM     16  N   UNL     1      46.567   5.365  18.464  0.00  0.00    +0.000 NA
ATOM     17  H   UNL     1      46.682   5.935  17.628  0.00  0.00    +0.000 HD
ATOM     18  H   UNL     1      46.759   6.030  19.227  0.00  0.00    +0.000 HD
ENDBRANCH   4  16
ENDBRANCH   3   4
ENDBRANCH   1   3
BRANCH   1  19
ATOM     19  C   UNL     1      47.558   3.573  14.873  0.00  0.00    +0.000 C 
BRANCH  19  20
ATOM     20  C   UNL     1      46.775   4.027  13.656  0.00  0.00    +0.000 A 
ATOM     21  C   UNL     1      45.891   3.180  12.972  0.00  0.00    +0.000 A 
ATOM     22  C   UNL     1      45.159   3.638  11.882  0.00  0.00    +0.000 A 
ATOM     23  C   UNL     1      45.296   4.957  11.435  0.00  0.00    +0.000 A 
ATOM     24  C   UNL     1      46.193   5.805  12.094  0.00  0.00    +0.000 A 
ATOM     25  C   UNL     1      46.923   5.346  13.195  0.00  0.00    +0.000 A 
BRANCH  23  26
ATOM     26  C   UNL     1      44.469   5.432  10.265  0.00  0.00    +0.000 C 
BRANCH  26  27
ATOM     27  N   UNL     1      45.119   5.060   9.015  0.00  0.00    +0.000 NA
ATOM     28  H   UNL     1      46.115   4.918   9.180  0.00  0.00    +0.000 HD
BRANCH  27  29
ATOM     29  C   UNL     1      44.545   3.855   8.434  0.00  0.00    +0.000 C 
BRANCH  29  30
ATOM     30  C   UNL     1      45.632   2.987   7.844  0.00  0.00    +0.000 A 
ATOM     31  C   UNL     1      45.828   1.675   8.294  0.00  0.00    +0.000 A 
ATOM     32  C   UNL     1      46.838   0.882   7.745  0.00  0.00    +0.000 A 
ATOM     33  C   UNL     1      47.661   1.393   6.743  0.00  0.00    +0.000 A 
ATOM     34  C   UNL     1      47.480   2.697   6.289  0.00  0.00    +0.000 A 
ATOM     35  C   UNL     1      46.469   3.488   6.834  0.00  0.00    +0.000 A 
ENDBRANCH  29  30
ENDBRANCH  27  29
ENDBRANCH  26  27
ENDBRANCH  23  26
ENDBRANCH  19  20
ENDBRANCH   1  19
TORSDOF 11
ENDMDL
MODEL 6
REMARK VINA RESULT:    -7.521      1.575      2.071
REMARK INTER + INTRA:         -12.956
REMARK INTER:                 -11.874
REMARK INTRA:                  -1.082
REMARK UNBOUND:                -1.037
REMARK  Name = 
REMARK  11 active torsions:
REMARK  status: ('A' for Active; 'I' for Inactive)
REMARK    1  A    between atoms: N_1  and  C_2
REMARK    2  A    between atoms: C_2  and  C_3
REMARK    3  A    between atoms: C_2  and  C_21
REMARK    4  A    between atoms: C_3  and  N_4
REMARK    5  A    between atoms: N_4  and  C_5
REMARK    6  A    between atoms: C_5  and  C_6
REMARK    7  A    between atoms: C_9  and  C_10
REMARK    8  A    between atoms: C_10  and  N_11
REMARK    9  A    between atoms: N_11  and  C_12
REMARK   10  A    between atoms: C_12  and  C_13
REMARK   11  A    between atoms: C_28  and  O_29
REMARK                            x       y       z     vdW  Elec       q    Type
REMARK                         _______ _______ _______ _____ _____    ______ ____
ROOT
ATOM      1  N   UNL     1      48.637   6.478  14.686  0.00  0.00    +0.000 NA
ATOM      2  H   UNL     1      47.973   5.763  14.985  0.00  0.00    +0.000 HD
ENDROOT
BRANCH   1   3
ATOM      3  C   UNL     1      49.155   7.149  15.878  0.00  0.00    +0.000 C 
BRANCH   3   4
ATOM      4  C   UNL     1      48.670   6.469  17.196  0.00  0.00    +0.000 C 
BRANCH   4   5
ATOM      5  C   UNL     1      48.779   4.952  17.153  0.00  0.00    +0.000 A 
ATOM      6  C   UNL     1      47.653   4.172  16.922  0.00  0.00    +0.000 A 
ATOM      7  S   UNL     1      47.967   2.500  16.916  0.00  0.00    +0.000 S 
ATOM      8  C   UNL     1      49.619   2.755  17.219  0.00  0.00    +0.000 A 
ATOM      9  N   UNL     1      50.444   1.699  17.334  0.00  0.00    +0.000 NA
ATOM     10  C   UNL     1      51.711   2.056  17.554  0.00  0.00    +0.000 A 
ATOM     11  N   UNL     1      52.201   3.299  17.645  0.00  0.00    +0.000 NA
ATOM     12  C   UNL     1      51.329   4.306  17.515  0.00  0.00    +0.000 A 
ATOM     13  C   UNL     1      49.960   4.101  17.305  0.00  0.00    +0.000 A 
BRANCH  12  14
ATOM     14  O   UNL     1      51.924   5.533  17.582  0.00  0.00    +0.000 OA
ATOM     15  H   UNL     1      52.859   5.278  17.489  0.00  0.00    +0.000 HD
ENDBRANCH  12  14
ENDBRANCH   4   5
BRANCH   4  16
ATOM     16  N   UNL     1      49.328   7.000  18.389  0.00  0.00    +0.000 NA
ATOM     17  H   UNL     1      48.647   7.532  18.928  0.00  0.00    +0.000 HD
ATOM     18  H   UNL     1      49.987   7.723  18.070  0.00  0.00    +0.000 HD
ENDBRANCH   4  16
ENDBRANCH   3   4
ENDBRANCH   1   3
BRANCH   1  19
ATOM     19  C   UNL     1      47.946   7.391  13.777  0.00  0.00    +0.000 C 
BRANCH  19  20
ATOM     20  C   UNL     1      46.845   6.708  12.989  0.00  0.00    +0.000 A 
ATOM     21  C   UNL     1      46.636   5.322  13.036  0.00  0.00    +0.000 A 
ATOM     22  C   UNL     1      45.594   4.729  12.331  0.00  0.00    +0.000 A 
ATOM     23  C   UNL     1      44.732   5.506  11.547  0.00  0.00    +0.000 A 
ATOM     24  C   UNL     1      44.945   6.887  11.472  0.00  0.00    +0.000 A 
ATOM     25  C   UNL     1      45.990   7.483  12.188  0.00  0.00    +0.000 A 
BRANCH  23  26
ATOM     26  C   UNL     1      43.594   4.838  10.814  0.00  0.00    +0.000 C 
BRANCH  26  27
ATOM     27  N   UNL     1      44.044   4.393   9.501  0.00  0.00    +0.000 NA
ATOM     28  H   UNL     1      44.859   4.937   9.219  0.00  0.00    +0.000 HD
BRANCH  27  29
ATOM     29  C   UNL     1      44.377   2.975   9.486  0.00  0.00    +0.000 C 
BRANCH  29  30
ATOM     30  C   UNL     1      45.423   2.693   8.433  0.00  0.00    +0.000 A 
ATOM     31  C   UNL     1      45.808   3.683   7.519  0.00  0.00    +0.000 A 
ATOM     32  C   UNL     1      46.773   3.412   6.548  0.00  0.00    +0.000 A 
ATOM     33  C   UNL     1      47.362   2.150   6.480  0.00  0.00    +0.000 A 
ATOM     34  C   UNL     1      46.987   1.156   7.380  0.00  0.00    +0.000 A 
ATOM     35  C   UNL     1      46.025   1.427   8.352  0.00  0.00    +0.000 A 
ENDBRANCH  29  30
ENDBRANCH  27  29
ENDBRANCH  26  27
ENDBRANCH  23  26
ENDBRANCH  19  20
ENDBRANCH   1  19
TORSDOF 11
ENDMDL
MODEL 7
REMARK VINA RESULT:    -7.428      3.317      8.742
REMARK INTER + INTRA:         -12.808
REMARK INTER:                 -11.431
REMARK INTRA:                  -1.377
REMARK UNBOUND:                -1.037
REMARK  Name = 
REMARK  11 active torsions:
REMARK  status: ('A' for Active; 'I' for Inactive)
REMARK    1  A    between atoms: N_1  and  C_2
REMARK    2  A    between atoms: C_2  and  C_3
REMARK    3  A    between atoms: C_2  and  C_21
REMARK    4  A    between atoms: C_3  and  N_4
REMARK    5  A    between atoms: N_4  and  C_5
REMARK    6  A    between atoms: C_5  and  C_6
REMARK    7  A    between atoms: C_9  and  C_10
REMARK    8  A    between atoms: C_10  and  N_11
REMARK    9  A    between atoms: N_11  and  C_12
REMARK   10  A    between atoms: C_12  and  C_13
REMARK   11  A    between atoms: C_28  and  O_29
REMARK                            x       y       z     vdW  Elec       q    Type
REMARK                         _______ _______ _______ _____ _____    ______ ____
ROOT
ATOM      1  N   UNL     1      47.256   8.153  12.448  0.00  0.00    +0.000 NA
ATOM      2  H   UNL     1      47.664   8.698  13.209  0.00  0.00    +0.000 HD
ENDROOT
BRANCH   1   3
ATOM      3  C   UNL     1      45.825   8.000  12.711  0.00  0.00    +0.000 C 
BRANCH   3   4
ATOM      4  C   UNL     1      45.047   7.489  11.458  0.00  0.00    +0.000 C 
BRANCH   4   5
ATOM      5  C   UNL     1      44.474   6.092  11.647  0.00  0.00    +0.000 A 
ATOM      6  C   UNL     1      43.743   5.780  12.785  0.00  0.00    +0.000 A 
ATOM      7  S   UNL     1      43.190   4.172  12.825  0.00  0.00    +0.000 S 
ATOM      8  C   UNL     1      43.904   3.833  11.322  0.00  0.00    +0.000 A 
ATOM      9  N   UNL     1      43.794   2.599  10.797  0.00  0.00    +0.000 NA
ATOM     10  C   UNL     1      44.390   2.489   9.609  0.00  0.00    +0.000 A 
ATOM     11  N   UNL     1      45.031   3.448   8.929  0.00  0.00    +0.000 NA
ATOM     12  C   UNL     1      45.100   4.655   9.503  0.00  0.00    +0.000 A 
ATOM     13  C   UNL     1      44.548   4.930  10.759  0.00  0.00    +0.000 A 
BRANCH  12  14
ATOM     14  O   UNL     1      45.737   5.577   8.722  0.00  0.00    +0.000 OA
ATOM     15  H   UNL     1      46.656   5.266   8.800  0.00  0.00    +0.000 HD
ENDBRANCH  12  14
ENDBRANCH   4   5
BRANCH   4  16
ATOM     16  N   UNL     1      44.009   8.417  11.013  0.00  0.00    +0.000 NA
ATOM     17  H   UNL     1      43.721   8.159  10.071  0.00  0.00    +0.000 HD
ATOM     18  H   UNL     1      44.463   9.331  10.875  0.00  0.00    +0.000 HD
ENDBRANCH   4  16
ENDBRANCH   3   4
ENDBRANCH   1   3
BRANCH   1  19
ATOM     19  C   UNL     1      47.959   6.872  12.377  0.00  0.00    +0.000 C 
BRANCH  19  20
ATOM     20  C   UNL     1      47.779   6.037  13.632  0.00  0.00    +0.000 A 
ATOM     21  C   UNL     1      47.073   4.827  13.633  0.00  0.00    +0.000 A 
ATOM     22  C   UNL     1      46.957   4.065  14.792  0.00  0.00    +0.000 A 
ATOM     23  C   UNL     1      47.538   4.498  15.989  0.00  0.00    +0.000 A 
ATOM     24  C   UNL     1      48.224   5.718  16.006  0.00  0.00    +0.000 A 
ATOM     25  C   UNL     1      48.346   6.479  14.838  0.00  0.00    +0.000 A 
BRANCH  23  26
ATOM     26  C   UNL     1      47.418   3.639  17.224  0.00  0.00    +0.000 C 
BRANCH  26  27
ATOM     27  N   UNL     1      48.741   3.387  17.782  0.00  0.00    +0.000 NA
ATOM     28  H   UNL     1      48.652   3.138  18.766  0.00  0.00    +0.000 HD
BRANCH  27  29
ATOM     29  C   UNL     1      49.443   2.326  17.073  0.00  0.00    +0.000 C 
BRANCH  29  30
ATOM     30  C   UNL     1      50.915   2.351  17.416  0.00  0.00    +0.000 A 
ATOM     31  C   UNL     1      51.665   1.169  17.447  0.00  0.00    +0.000 A 
ATOM     32  C   UNL     1      53.024   1.202  17.768  0.00  0.00    +0.000 A 
ATOM     33  C   UNL     1      53.644   2.416  18.062  0.00  0.00    +0.000 A 
ATOM     34  C   UNL     1      52.909   3.598  18.037  0.00  0.00    +0.000 A 
ATOM     35  C   UNL     1      51.553   3.566  17.713  0.00  0.00    +0.000 A 
ENDBRANCH  29  30
ENDBRANCH  27  29
ENDBRANCH  26  27
ENDBRANCH  23  26
ENDBRANCH  19  20
ENDBRANCH   1  19
TORSDOF 11
ENDMDL
MODEL 8
REMARK VINA RESULT:    -7.366      5.067      7.465
REMARK INTER + INTRA:         -12.709
REMARK INTER:                 -11.053
REMARK INTRA:                  -1.655
REMARK UNBOUND:                -1.037
REMARK  Name = 
REMARK  11 active torsions:
REMARK  status: ('A' for Active; 'I' for Inactive)
REMARK    1  A    between atoms: N_1  and  C_2
REMARK    2  A    between atoms: C_2  and  C_3
REMARK    3  A    between atoms: C_2  and  C_21
REMARK    4  A    between atoms: C_3  and  N_4
REMARK    5  A    between atoms: N_4  and  C_5
REMARK    6  A    between atoms: C_5  and  C_6
REMARK    7  A    between atoms: C_9  and  C_10
REMARK    8  A    between atoms: C_10  and  N_11
REMARK    9  A    between atoms: N_11  and  C_12
REMARK   10  A    between atoms: C_12  and  C_13
REMARK   11  A    between atoms: C_28  and  O_29
REMARK                            x       y       z     vdW  Elec       q    Type
REMARK                         _______ _______ _______ _____ _____    ______ ____
ROOT
ATOM      1  N   UNL     1      48.576   8.853  11.532  0.00  0.00    +0.000 NA
ATOM      2  H   UNL     1      48.753   8.601  10.558  0.00  0.00    +0.000 HD
ENDROOT
BRANCH   1   3
ATOM      3  C   UNL     1      49.453   9.970  11.882  0.00  0.00    +0.000 C 
BRANCH   3   4
ATOM      4  C   UNL     1      48.650  11.262  12.232  0.00  0.00    +0.000 C 
BRANCH   4   5
ATOM      5  C   UNL     1      47.585  11.594  11.198  0.00  0.00    +0.000 A 
ATOM      6  C   UNL     1      47.881  12.424  10.125  0.00  0.00    +0.000 A 
ATOM      7  S   UNL     1      46.566  12.688   9.078  0.00  0.00    +0.000 S 
ATOM      8  C   UNL     1      45.552  11.701  10.018  0.00  0.00    +0.000 A 
ATOM      9  N   UNL     1      44.271  11.524   9.650  0.00  0.00    +0.000 NA
ATOM     10  C   UNL     1      43.604  10.713  10.474  0.00  0.00    +0.000 A 
ATOM     11  N   UNL     1      44.080  10.085  11.557  0.00  0.00    +0.000 NA
ATOM     12  C   UNL     1      45.365  10.298  11.866  0.00  0.00    +0.000 A 
ATOM     13  C   UNL     1      46.195  11.142  11.118  0.00  0.00    +0.000 A 
BRANCH  12  14
ATOM     14  O   UNL     1      45.771   9.588  12.959  0.00  0.00    +0.000 OA
ATOM     15  H   UNL     1      45.701  10.275  13.647  0.00  0.00    +0.000 HD
ENDBRANCH  12  14
ENDBRANCH   4   5
BRANCH   4  16
ATOM     16  N   UNL     1      48.073  11.229  13.576  0.00  0.00    +0.000 NA
ATOM     17  H   UNL     1      48.229  12.131  14.020  0.00  0.00    +0.000 HD
ATOM     18  H   UNL     1      48.655  10.590  14.135  0.00  0.00    +0.000 HD
ENDBRANCH   4  16
ENDBRANCH   3   4
ENDBRANCH   1   3
BRANCH   1  19
ATOM     19  C   UNL     1      48.810   7.669  12.358  0.00  0.00    +0.000 C 
BRANCH  19  20
ATOM     20  C   UNL     1      47.655   6.687  12.311  0.00  0.00    +0.000 A 
ATOM     21  C   UNL     1      46.697   6.703  11.288  0.00  0.00    +0.000 A 
ATOM     22  C   UNL     1      45.670   5.764  11.252  0.00  0.00    +0.000 A 
ATOM     23  C   UNL     1      45.565   4.785  12.247  0.00  0.00    +0.000 A 
ATOM     24  C   UNL     1      46.501   4.775  13.288  0.00  0.00    +0.000 A 
ATOM     25  C   UNL     1      47.537   5.715  13.318  0.00  0.00    +0.000 A 
BRANCH  23  26
ATOM     26  C   UNL     1      44.456   3.765  12.168  0.00  0.00    +0.000 C 
BRANCH  26  27
ATOM     27  N   UNL     1      44.838   2.689  11.262  0.00  0.00    +0.000 NA
ATOM     28  H   UNL     1      44.570   1.793  11.667  0.00  0.00    +0.000 HD
BRANCH  27  29
ATOM     29  C   UNL     1      44.223   2.832   9.949  0.00  0.00    +0.000 C 
BRANCH  29  30
ATOM     30  C   UNL     1      45.272   2.737   8.865  0.00  0.00    +0.000 A 
ATOM     31  C   UNL     1      45.860   1.508   8.541  0.00  0.00    +0.000 A 
ATOM     32  C   UNL     1      46.831   1.431   7.541  0.00  0.00    +0.000 A 
ATOM     33  C   UNL     1      47.224   2.581   6.857  0.00  0.00    +0.000 A 
ATOM     34  C   UNL     1      46.649   3.809   7.171  0.00  0.00    +0.000 A 
ATOM     35  C   UNL     1      45.677   3.887   8.168  0.00  0.00    +0.000 A 
ENDBRANCH  29  30
ENDBRANCH  27  29
ENDBRANCH  26  27
ENDBRANCH  23  26
ENDBRANCH  19  20
ENDBRANCH   1  19
TORSDOF 11
ENDMDL
MODEL 9
REMARK VINA RESULT:    -7.225      2.823      3.499
REMARK INTER + INTRA:         -12.487
REMARK INTER:                 -11.260
REMARK INTRA:                  -1.227
REMARK UNBOUND:                -1.037
REMARK  Name = 
REMARK  11 active torsions:
REMARK  status: ('A' for Active; 'I' for Inactive)
REMARK    1  A    between atoms: N_1  and  C_2
REMARK    2  A    between atoms: C_2  and  C_3
REMARK    3  A    between atoms: C_2  and  C_21
REMARK    4  A    between atoms: C_3  and  N_4
REMARK    5  A    between atoms: N_4  and  C_5
REMARK    6  A    between atoms: C_5  and  C_6
REMARK    7  A    between atoms: C_9  and  C_10
REMARK    8  A    between atoms: C_10  and  N_11
REMARK    9  A    between atoms: N_11  and  C_12
REMARK   10  A    between atoms: C_12  and  C_13
REMARK   11  A    between atoms: C_28  and  O_29
REMARK                            x       y       z     vdW  Elec       q    Type
REMARK                         _______ _______ _______ _____ _____    ______ ____
ROOT
ATOM      1  N   UNL     1      47.762   8.360  12.786  0.00  0.00    +0.000 NA
ATOM      2  H   UNL     1      48.172   7.610  12.226  0.00  0.00    +0.000 HD
ENDROOT
BRANCH   1   3
ATOM      3  C   UNL     1      47.915   8.013  14.198  0.00  0.00    +0.000 C 
BRANCH   3   4
ATOM      4  C   UNL     1      48.652   6.651  14.395  0.00  0.00    +0.000 C 
BRANCH   4   5
ATOM      5  C   UNL     1      48.320   5.985  15.722  0.00  0.00    +0.000 A 
ATOM      6  C   UNL     1      47.569   4.818  15.754  0.00  0.00    +0.000 A 
ATOM      7  S   UNL     1      47.292   4.224  17.324  0.00  0.00    +0.000 S 
ATOM      8  C   UNL     1      48.168   5.503  18.020  0.00  0.00    +0.000 A 
ATOM      9  N   UNL     1      48.295   5.571  19.357  0.00  0.00    +0.000 NA
ATOM     10  C   UNL     1      49.021   6.617  19.754  0.00  0.00    +0.000 A 
ATOM     11  N   UNL     1      49.612   7.536  18.979  0.00  0.00    +0.000 NA
ATOM     12  C   UNL     1      49.453   7.409  17.657  0.00  0.00    +0.000 A 
ATOM     13  C   UNL     1      48.699   6.380  17.079  0.00  0.00    +0.000 A 
BRANCH  12  14
ATOM     14  O   UNL     1      50.122   8.365  16.948  0.00  0.00    +0.000 OA
ATOM     15  H   UNL     1      49.669   8.292  16.089  0.00  0.00    +0.000 HD
ENDBRANCH  12  14
ENDBRANCH   4   5
BRANCH   4  16
ATOM     16  N   UNL     1      48.442   5.723  13.285  0.00  0.00    +0.000 NA
ATOM     17  H   UNL     1      47.465   5.437  13.278  0.00  0.00    +0.000 HD
ATOM     18  H   UNL     1      48.937   4.852  13.525  0.00  0.00    +0.000 HD
ENDBRANCH   4  16
ENDBRANCH   3   4
ENDBRANCH   1   3
BRANCH   1  19
ATOM     19  C   UNL     1      46.363   8.512  12.388  0.00  0.00    +0.000 C 
BRANCH  19  20
ATOM     20  C   UNL     1      45.709   7.188  12.037  0.00  0.00    +0.000 A 
ATOM     21  C   UNL     1      46.015   6.488  10.862  0.00  0.00    +0.000 A 
ATOM     22  C   UNL     1      45.426   5.258  10.587  0.00  0.00    +0.000 A 
ATOM     23  C   UNL     1      44.503   4.695  11.476  0.00  0.00    +0.000 A 
ATOM     24  C   UNL     1      44.170   5.397  12.640  0.00  0.00    +0.000 A 
ATOM     25  C   UNL     1      44.769   6.630  12.920  0.00  0.00    +0.000 A 
BRANCH  23  26
ATOM     26  C   UNL     1      43.900   3.347  11.163  0.00  0.00    +0.000 C 
BRANCH  26  27
ATOM     27  N   UNL     1      44.897   2.495  10.528  0.00  0.00    +0.000 NA
ATOM     28  H   UNL     1      45.092   1.695  11.128  0.00  0.00    +0.000 HD
BRANCH  27  29
ATOM     29  C   UNL     1      44.464   2.026   9.218  0.00  0.00    +0.000 C 
BRANCH  29  30
ATOM     30  C   UNL     1      45.569   2.211   8.204  0.00  0.00    +0.000 A 
ATOM     31  C   UNL     1      45.659   3.385   7.446  0.00  0.00    +0.000 A 
ATOM     32  C   UNL     1      46.681   3.545   6.508  0.00  0.00    +0.000 A 
ATOM     33  C   UNL     1      47.622   2.533   6.320  0.00  0.00    +0.000 A 
ATOM     34  C   UNL     1      47.543   1.360   7.065  0.00  0.00    +0.000 A 
ATOM     35  C   UNL     1      46.524   1.201   8.004  0.00  0.00    +0.000 A 
ENDBRANCH  29  30
ENDBRANCH  27  29
ENDBRANCH  26  27
ENDBRANCH  23  26
ENDBRANCH  19  20
ENDBRANCH   1  19
TORSDOF 11
ENDMDL
