MODEL 1
REMARK VINA RESULT:    -7.556      0.000      0.000
REMARK INTER + INTRA:         -10.820
REMARK INTER:                 -10.206
REMARK INTRA:                  -0.614
REMARK UNBOUND:                -0.614
REMARK  Name = 
REMARK  6 active torsions:
REMARK  status: ('A' for Active; 'I' for Inactive)
REMARK    1  A    between atoms: C_2  and  C_3
REMARK    2  A    between atoms: C_5  and  C_6
REMARK    3  A    between atoms: C_8  and  C_9
REMARK    4  A    between atoms: C_9  and  C_10
REMARK    5  A    between atoms: C_10  and  C_11
REMARK    6  A    between atoms: C_15  and  C_16
REMARK                            x       y       z     vdW  Elec       q    Type
REMARK                         _______ _______ _______ _____ _____    ______ ____
ROOT
ATOM      1  C   UNL     1      43.986   5.153  11.865  0.00  0.00    +0.000 C 
ATOM      2  C   UNL     1      42.840   4.735  12.773  0.00  0.00    +0.000 C 
ATOM      3  C   UNL     1      43.070   6.193  12.540  0.00  0.00    +0.000 C 
ENDROOT
BRANCH   1   4
ATOM      4  C   UNL     1      45.456   5.330  12.337  0.00  0.00    +0.000 A 
ATOM      5  C   UNL     1      46.305   6.265  11.718  0.00  0.00    +0.000 A 
ATOM      6  C   UNL     1      47.474   6.715  12.317  0.00  0.00    +0.000 A 
ATOM      7  C   UNL     1      47.868   6.182  13.533  0.00  0.00    +0.000 A 
ATOM      8  C   UNL     1      47.170   5.114  14.117  0.00  0.00    +0.000 A 
ATOM      9  C   UNL     1      45.962   4.713  13.505  0.00  0.00    +0.000 A 
BRANCH   8  10
ATOM     10  C   UNL     1      47.691   4.445  15.322  0.00  0.00    +0.000 A 
ATOM     11  C   UNL     1      48.130   5.163  16.438  0.00  0.00    +0.000 A 
ATOM     12  N   UNL     1      48.641   4.590  17.554  0.00  0.00    +0.000 NA
ATOM     13  C   UNL     1      48.711   3.244  17.517  0.00  0.00    +0.000 A 
ATOM     14  C   UNL     1      48.285   2.512  16.420  0.00  0.00    +0.000 A 
ATOM     15  N   UNL     1      47.772   3.089  15.307  0.00  0.00    +0.000 NA
ENDBRANCH   8  10
ENDBRANCH   1   4
BRANCH   1  16
ATOM     16  C   UNL     1      43.743   5.050  10.359  0.00  0.00    +0.000 C 
BRANCH  16  20
ATOM     17  C   UNL     1      46.314   2.596   7.967  0.00  0.00    +0.000 A 
ATOM     18  C   UNL     1      45.491   1.995   8.898  0.00  0.00    +0.000 A 
ATOM     19  C   UNL     1      44.678   2.812   9.679  0.00  0.00    +0.000 A 
ATOM     20  C   UNL     1      44.687   4.216   9.518  0.00  0.00    +0.000 A 
ATOM     21  C   UNL     1      45.582   4.711   8.583  0.00  0.00    +0.000 A 
ATOM     22  N   UNL     1      46.381   3.939   7.807  0.00  0.00    +0.000 NA
BRANCH  17  24
ATOM     23  N   UNL     1      47.843   1.200   6.398  0.00  0.00    +0.000 NA
ATOM     24  C   UNL     1      47.135   1.786   7.106  0.00  0.00    +0.000 C 
ENDBRANCH  17  24
BRANCH  19  25
ATOM     25  C   UNL     1      43.813   2.175  10.632  0.00  0.00    +0.000 C 
ATOM     26  N   UNL     1      43.129   1.672  11.418  0.00  0.00    +0.000 NA
ENDBRANCH  19  25
ENDBRANCH  16  20
ENDBRANCH   1  16
TORSDOF 6
ENDMDL
MODEL 2
REMARK VINA RESULT:    -7.245      3.761      5.951
REMARK INTER + INTRA:         -10.401
REMARK INTER:                  -9.399
REMARK INTRA:                  -1.001
REMARK UNBOUND:                -0.614
REMARK  Name = 
REMARK  6 active torsions:
REMARK  status: ('A' for Active; 'I' for Inactive)
REMARK    1  A    between atoms: C_2  and  C_3
REMARK    2  A    between atoms: C_5  and  C_6
REMARK    3  A    between atoms: C_8  and  C_9
REMARK    4  A    between atoms: C_9  and  C_10
REMARK    5  A    between atoms: C_10  and  C_11
REMARK    6  A    between atoms: C_15  and  C_16
REMARK                            x       y       z     vdW  Elec       q    Type
REMARK                         _______ _______ _______ _____ _____    ______ ____
ROOT
ATOM      1  C   UNL     1      45.077   5.983  11.895  0.00  0.00    +0.000 C 
ATOM      2  C   UNL     1      45.860   4.939  12.677  0.00  0.00    +0.000 C 
ATOM      3  C   UNL     1      44.528   5.370  13.198  0.00  0.00    +0.000 C 
ENDROOT
BRANCH   1   4
ATOM      4  C   UNL     1      45.270   7.516  12.048  0.00  0.00    +0.000 A 
ATOM      5  C   UNL     1      46.476   8.047  12.540  0.00  0.00    +0.000 A 
ATOM      6  C   UNL     1      46.831   9.377  12.357  0.00  0.00    +0.000 A 
ATOM      7  C   UNL     1      45.945  10.241  11.733  0.00  0.00    +0.000 A 
ATOM      8  C   UNL     1      44.651   9.826  11.386  0.00  0.00    +0.000 A 
ATOM      9  C   UNL     1      44.341   8.457  11.545  0.00  0.00    +0.000 A 
BRANCH   8  10
ATOM     10  C   UNL     1      43.663  10.793  10.878  0.00  0.00    +0.000 A 
ATOM     11  C   UNL     1      43.061  10.650   9.625  0.00  0.00    +0.000 A 
ATOM     12  N   UNL     1      42.169  11.530   9.108  0.00  0.00    +0.000 NA
ATOM     13  C   UNL     1      41.898  12.588   9.897  0.00  0.00    +0.000 A 
ATOM     14  C   UNL     1      42.485  12.753  11.141  0.00  0.00    +0.000 A 
ATOM     15  N   UNL     1      43.374  11.870  11.656  0.00  0.00    +0.000 NA
ENDBRANCH   8  10
ENDBRANCH   1   4
BRANCH   1  16
ATOM     16  C   UNL     1      44.326   5.493  10.657  0.00  0.00    +0.000 C 
BRANCH  16  20
ATOM     17  C   UNL     1      46.213   2.824   7.889  0.00  0.00    +0.000 A 
ATOM     18  C   UNL     1      45.356   2.306   8.839  0.00  0.00    +0.000 A 
ATOM     19  C   UNL     1      44.768   3.188   9.742  0.00  0.00    +0.000 A 
ATOM     20  C   UNL     1      45.034   4.575   9.683  0.00  0.00    +0.000 A 
ATOM     21  C   UNL     1      45.941   4.975   8.715  0.00  0.00    +0.000 A 
ATOM     22  N   UNL     1      46.523   4.140   7.821  0.00  0.00    +0.000 NA
BRANCH  17  24
ATOM     23  N   UNL     1      47.354   1.286   6.133  0.00  0.00    +0.000 NA
ATOM     24  C   UNL     1      46.804   1.954   6.907  0.00  0.00    +0.000 C 
ENDBRANCH  17  24
BRANCH  19  25
ATOM     25  C   UNL     1      43.865   2.642  10.716  0.00  0.00    +0.000 C 
ATOM     26  N   UNL     1      43.127   2.222  11.501  0.00  0.00    +0.000 NA
ENDBRANCH  19  25
ENDBRANCH  16  20
ENDBRANCH   1  16
TORSDOF 6
ENDMDL
MODEL 3
REMARK VINA RESULT:    -6.825      2.831      3.823
REMARK INTER + INTRA:          -9.833
REMARK INTER:                  -9.008
REMARK INTRA:                  -0.824
REMARK UNBOUND:                -0.614
REMARK  Name = 
REMARK  6 active torsions:
REMARK  status: ('A' for Active; 'I' for Inactive)
REMARK    1  A    between atoms: C_2  and  C_3
REMARK    2  A    between atoms: C_5  and  C_6
REMARK    3  A    between atoms: C_8  and  C_9
REMARK    4  A    between atoms: C_9  and  C_10
REMARK    5  A    between atoms: C_10  and  C_11
REMARK    6  A    between atoms: C_15  and  C_16
REMARK                            x       y       z     vdW  Elec       q    Type
REMARK                         _______ _______ _______ _____ _____    ______ ____
ROOT
ATOM      1  C   UNL     1      44.774   5.864  11.777  0.00  0.00    +0.000 C 
ATOM      2  C   UNL     1      44.964   4.874  12.916  0.00  0.00    +0.000 C 
ATOM      3  C   UNL     1      43.815   5.826  12.983  0.00  0.00    +0.000 C 
ENDROOT
BRANCH   1   4
ATOM      4  C   UNL     1      45.488   7.240  11.687  0.00  0.00    +0.000 A 
ATOM      5  C   UNL     1      44.747   8.435  11.624  0.00  0.00    +0.000 A 
ATOM      6  C   UNL     1      45.310   9.672  11.907  0.00  0.00    +0.000 A 
ATOM      7  C   UNL     1      46.663   9.758  12.193  0.00  0.00    +0.000 A 
ATOM      8  C   UNL     1      47.499   8.636  12.090  0.00  0.00    +0.000 A 
ATOM      9  C   UNL     1      46.886   7.387  11.845  0.00  0.00    +0.000 A 
BRANCH   8  10
ATOM     10  C   UNL     1      48.959   8.771  12.232  0.00  0.00    +0.000 A 
ATOM     11  C   UNL     1      49.851   7.944  11.542  0.00  0.00    +0.000 A 
ATOM     12  N   UNL     1      51.199   8.016  11.666  0.00  0.00    +0.000 NA
ATOM     13  C   UNL     1      51.638   8.955  12.527  0.00  0.00    +0.000 A 
ATOM     14  C   UNL     1      50.773   9.783  13.224  0.00  0.00    +0.000 A 
ATOM     15  N   UNL     1      49.426   9.710  13.096  0.00  0.00    +0.000 NA
ENDBRANCH   8  10
ENDBRANCH   1   4
BRANCH   1  16
ATOM     16  C   UNL     1      44.128   5.326  10.500  0.00  0.00    +0.000 C 
BRANCH  16  20
ATOM     17  C   UNL     1      46.324   2.739   7.886  0.00  0.00    +0.000 A 
ATOM     18  C   UNL     1      45.478   2.181   8.823  0.00  0.00    +0.000 A 
ATOM     19  C   UNL     1      44.788   3.039   9.676  0.00  0.00    +0.000 A 
ATOM     20  C   UNL     1      44.944   4.441   9.581  0.00  0.00    +0.000 A 
ATOM     21  C   UNL     1      45.851   4.884   8.632  0.00  0.00    +0.000 A 
ATOM     22  N   UNL     1      46.530   4.073   7.787  0.00  0.00    +0.000 NA
BRANCH  17  24
ATOM     23  N   UNL     1      47.608   1.164   6.267  0.00  0.00    +0.000 NA
ATOM     24  C   UNL     1      47.020   1.891   6.954  0.00  0.00    +0.000 C 
ENDBRANCH  17  24
BRANCH  19  25
ATOM     25  C   UNL     1      43.897   2.450  10.636  0.00  0.00    +0.000 C 
ATOM     26  N   UNL     1      43.182   1.994  11.423  0.00  0.00    +0.000 NA
ENDBRANCH  19  25
ENDBRANCH  16  20
ENDBRANCH   1  16
TORSDOF 6
ENDMDL
MODEL 4
REMARK VINA RESULT:    -6.604      3.619      5.830
REMARK INTER + INTRA:          -9.535
REMARK INTER:                  -8.327
REMARK INTRA:                  -1.209
REMARK UNBOUND:                -0.614
REMARK  Name = 
REMARK  6 active torsions:
REMARK  status: ('A' for Active; 'I' for Inactive)
REMARK    1  A    between atoms: C_2  and  C_3
REMARK    2  A    between atoms: C_5  and  C_6
REMARK    3  A    between atoms: C_8  and  C_9
REMARK    4  A    between atoms: C_9  and  C_10
REMARK    5  A    between atoms: C_10  and  C_11
REMARK    6  A    between atoms: C_15  and  C_16
REMARK                            x       y       z     vdW  Elec       q    Type
REMARK                         _______ _______ _______ _____ _____    ______ ____
ROOT
ATOM      1  C   UNL     1      48.669   7.309  15.407  0.00  0.00    +0.000 C 
ATOM      2  C   UNL     1      48.228   8.764  15.456  0.00  0.00    +0.000 C 
ATOM      3  C   UNL     1      49.686   8.464  15.324  0.00  0.00    +0.000 C 
ENDROOT
BRANCH   1   4
ATOM      4  C   UNL     1      48.936   6.434  16.663  0.00  0.00    +0.000 A 
ATOM      5  C   UNL     1      48.119   6.540  17.803  0.00  0.00    +0.000 A 
ATOM      6  C   UNL     1      48.081   5.556  18.782  0.00  0.00    +0.000 A 
ATOM      7  C   UNL     1      48.922   4.460  18.683  0.00  0.00    +0.000 A 
ATOM      8  C   UNL     1      49.893   4.381  17.674  0.00  0.00    +0.000 A 
ATOM      9  C   UNL     1      49.873   5.375  16.670  0.00  0.00    +0.000 A 
BRANCH   8  10
ATOM     10  C   UNL     1      50.891   3.296  17.674  0.00  0.00    +0.000 A 
ATOM     11  C   UNL     1      50.572   1.994  17.278  0.00  0.00    +0.000 A 
ATOM     12  N   UNL     1      51.450   0.962  17.291  0.00  0.00    +0.000 NA
ATOM     13  C   UNL     1      52.685   1.277  17.730  0.00  0.00    +0.000 A 
ATOM     14  C   UNL     1      53.023   2.559  18.131  0.00  0.00    +0.000 A 
ATOM     15  N   UNL     1      52.143   3.589  18.115  0.00  0.00    +0.000 NA
ENDBRANCH   8  10
ENDBRANCH   1   4
BRANCH   1  16
ATOM     16  C   UNL     1      48.499   6.583  14.073  0.00  0.00    +0.000 C 
BRANCH  16  20
ATOM     17  C   UNL     1      44.518   5.914  12.638  0.00  0.00    +0.000 A 
ATOM     18  C   UNL     1      45.181   4.885  13.277  0.00  0.00    +0.000 A 
ATOM     19  C   UNL     1      46.481   5.117  13.718  0.00  0.00    +0.000 A 
ATOM     20  C   UNL     1      47.103   6.372  13.525  0.00  0.00    +0.000 A 
ATOM     21  C   UNL     1      46.358   7.315  12.835  0.00  0.00    +0.000 A 
ATOM     22  N   UNL     1      45.091   7.117  12.399  0.00  0.00    +0.000 NA
BRANCH  17  24
ATOM     23  N   UNL     1      42.086   5.591  11.784  0.00  0.00    +0.000 NA
ATOM     24  C   UNL     1      43.157   5.732  12.208  0.00  0.00    +0.000 C 
ENDBRANCH  17  24
BRANCH  19  25
ATOM     25  C   UNL     1      47.155   4.046  14.397  0.00  0.00    +0.000 C 
ATOM     26  N   UNL     1      47.678   3.179  14.956  0.00  0.00    +0.000 NA
ENDBRANCH  19  25
ENDBRANCH  16  20
ENDBRANCH   1  16
TORSDOF 6
ENDMDL
MODEL 5
REMARK VINA RESULT:    -6.462      2.838      7.694
REMARK INTER + INTRA:          -9.343
REMARK INTER:                  -8.128
REMARK INTRA:                  -1.215
REMARK UNBOUND:                -0.614
REMARK  Name = 
REMARK  6 active torsions:
REMARK  status: ('A' for Active; 'I' for Inactive)
REMARK    1  A    between atoms: C_2  and  C_3
REMARK    2  A    between atoms: C_5  and  C_6
REMARK    3  A    between atoms: C_8  and  C_9
REMARK    4  A    between atoms: C_9  and  C_10
REMARK    5  A    between atoms: C_10  and  C_11
REMARK    6  A    between atoms: C_15  and  C_16
REMARK                            x       y       z     vdW  Elec       q    Type
REMARK                         _______ _______ _______ _____ _____    ______ ____
ROOT
ATOM      1  C   UNL     1      49.225   7.337  16.877  0.00  0.00    +0.000 C 
ATOM      2  C   UNL     1      50.182   8.331  17.517  0.00  0.00    +0.000 C 
ATOM      3  C   UNL     1      48.725   8.658  17.494  0.00  0.00    +0.000 C 
ENDROOT
BRANCH   1   4
ATOM      4  C   UNL     1      48.904   7.285  15.358  0.00  0.00    +0.000 A 
ATOM      5  C   UNL     1      49.712   7.961  14.426  0.00  0.00    +0.000 A 
ATOM      6  C   UNL     1      49.694   7.658  13.071  0.00  0.00    +0.000 A 
ATOM      7  C   UNL     1      48.804   6.710  12.595  0.00  0.00    +0.000 A 
ATOM      8  C   UNL     1      47.841   6.133  13.436  0.00  0.00    +0.000 A 
ATOM      9  C   UNL     1      47.918   6.428  14.815  0.00  0.00    +0.000 A 
BRANCH   8  10
ATOM     10  C   UNL     1      46.794   5.253  12.887  0.00  0.00    +0.000 A 
ATOM     11  C   UNL     1      46.552   3.976  13.402  0.00  0.00    +0.000 A 
ATOM     12  N   UNL     1      45.620   3.125  12.909  0.00  0.00    +0.000 NA
ATOM     13  C   UNL     1      44.925   3.597  11.855  0.00  0.00    +0.000 A 
ATOM     14  C   UNL     1      45.150   4.858  11.325  0.00  0.00    +0.000 A 
ATOM     15  N   UNL     1      46.082   5.707  11.822  0.00  0.00    +0.000 NA
ENDBRANCH   8  10
ENDBRANCH   1   4
BRANCH   1  16
ATOM     16  C   UNL     1      48.839   6.118  17.715  0.00  0.00    +0.000 C 
BRANCH  16  20
ATOM     17  C   UNL     1      51.323   2.631  17.571  0.00  0.00    +0.000 A 
ATOM     18  C   UNL     1      49.966   2.495  17.358  0.00  0.00    +0.000 A 
ATOM     19  C   UNL     1      49.174   3.638  17.428  0.00  0.00    +0.000 A 
ATOM     20  C   UNL     1      49.742   4.902  17.703  0.00  0.00    +0.000 A 
ATOM     21  C   UNL     1      51.107   4.912  17.941  0.00  0.00    +0.000 A 
ATOM     22  N   UNL     1      51.902   3.817  17.874  0.00  0.00    +0.000 NA
BRANCH  17  24
ATOM     23  N   UNL     1      52.941   0.605  17.400  0.00  0.00    +0.000 NA
ATOM     24  C   UNL     1      52.185   1.483  17.460  0.00  0.00    +0.000 C 
ENDBRANCH  17  24
BRANCH  19  25
ATOM     25  C   UNL     1      47.766   3.488  17.188  0.00  0.00    +0.000 C 
ATOM     26  N   UNL     1      46.628   3.388  17.004  0.00  0.00    +0.000 NA
ENDBRANCH  19  25
ENDBRANCH  16  20
ENDBRANCH   1  16
TORSDOF 6
ENDMDL
MODEL 6
REMARK VINA RESULT:    -6.386      4.218      6.884
REMARK INTER + INTRA:          -9.240
REMARK INTER:                  -8.463
REMARK INTRA:                  -0.776
REMARK UNBOUND:                -0.614
REMARK  Name = 
REMARK  6 active torsions:
REMARK  status: ('A' for Active; 'I' for Inactive)
REMARK    1  A    between atoms: C_2  and  C_3
REMARK    2  A    between atoms: C_5  and  C_6
REMARK    3  A    between atoms: C_8  and  C_9
REMARK    4  A    between atoms: C_9  and  C_10
REMARK    5  A    between atoms: C_10  and  C_11
REMARK    6  A    between atoms: C_15  and  C_16
REMARK                            x       y       z     vdW  Elec       q    Type
REMARK                         _______ _______ _______ _____ _____    ______ ____
ROOT
ATOM      1  C   UNL     1      47.090   8.211  12.504  0.00  0.00    +0.000 C 
ATOM      2  C   UNL     1      48.482   7.776  12.071  0.00  0.00    +0.000 C 
ATOM      3  C   UNL     1      48.324   8.442  13.399  0.00  0.00    +0.000 C 
ENDROOT
BRANCH   1   4
ATOM      4  C   UNL     1      46.436   9.564  12.113  0.00  0.00    +0.000 A 
ATOM      5  C   UNL     1      47.213  10.624  11.612  0.00  0.00    +0.000 A 
ATOM      6  C   UNL     1      46.654  11.691  10.921  0.00  0.00    +0.000 A 
ATOM      7  C   UNL     1      45.279  11.765  10.773  0.00  0.00    +0.000 A 
ATOM      8  C   UNL     1      44.431  10.845  11.407  0.00  0.00    +0.000 A 
ATOM      9  C   UNL     1      45.034   9.748  12.062  0.00  0.00    +0.000 A 
BRANCH   8  10
ATOM     10  C   UNL     1      42.970  11.028  11.383  0.00  0.00    +0.000 A 
ATOM     11  C   UNL     1      42.127  10.181  10.656  0.00  0.00    +0.000 A 
ATOM     12  N   UNL     1      40.783  10.331  10.583  0.00  0.00    +0.000 NA
ATOM     13  C   UNL     1      40.294  11.384  11.268  0.00  0.00    +0.000 A 
ATOM     14  C   UNL     1      41.110  12.239  11.992  0.00  0.00    +0.000 A 
ATOM     15  N   UNL     1      42.454  12.084  12.065  0.00  0.00    +0.000 NA
ENDBRANCH   8  10
ENDBRANCH   1   4
BRANCH   1  16
ATOM     16  C   UNL     1      46.169   7.120  13.049  0.00  0.00    +0.000 C 
BRANCH  16  20
ATOM     17  C   UNL     1      45.066   3.763  10.628  0.00  0.00    +0.000 A 
ATOM     18  C   UNL     1      45.535   3.540  11.907  0.00  0.00    +0.000 A 
ATOM     19  C   UNL     1      45.907   4.644  12.670  0.00  0.00    +0.000 A 
ATOM     20  C   UNL     1      45.800   5.955  12.155  0.00  0.00    +0.000 A 
ATOM     21  C   UNL     1      45.356   6.055  10.846  0.00  0.00    +0.000 A 
ATOM     22  N   UNL     1      44.984   4.999  10.083  0.00  0.00    +0.000 NA
BRANCH  17  24
ATOM     23  N   UNL     1      44.348   1.728   9.181  0.00  0.00    +0.000 NA
ATOM     24  C   UNL     1      44.627   2.654   9.822  0.00  0.00    +0.000 C 
ENDBRANCH  17  24
BRANCH  19  25
ATOM     25  C   UNL     1      46.377   4.402  14.006  0.00  0.00    +0.000 C 
ATOM     26  N   UNL     1      46.733   4.206  15.089  0.00  0.00    +0.000 NA
ENDBRANCH  19  25
ENDBRANCH  16  20
ENDBRANCH   1  16
TORSDOF 6
ENDMDL
MODEL 7
REMARK VINA RESULT:    -6.261      2.733      8.233
REMARK INTER + INTRA:          -9.072
REMARK INTER:                  -8.121
REMARK INTRA:                  -0.951
REMARK UNBOUND:                -0.614
REMARK  Name = 
REMARK  6 active torsions:
REMARK  status: ('A' for Active; 'I' for Inactive)
REMARK    1  A    between atoms: C_2  and  C_3
REMARK    2  A    between atoms: C_5  and  C_6
REMARK    3  A    between atoms: C_8  and  C_9
REMARK    4  A    between atoms: C_9  and  C_10
REMARK    5  A    between atoms: C_10  and  C_11
REMARK    6  A    between atoms: C_15  and  C_16
REMARK                            x       y       z     vdW  Elec       q    Type
REMARK                         _______ _______ _______ _____ _____    ______ ____
ROOT
ATOM      1  C   UNL     1      48.795   8.001  12.572  0.00  0.00    +0.000 C 
ATOM      2  C   UNL     1      49.944   7.662  11.634  0.00  0.00    +0.000 C 
ATOM      3  C   UNL     1      49.251   8.975  11.468  0.00  0.00    +0.000 C 
ENDROOT
BRANCH   1   4
ATOM      4  C   UNL     1      47.322   7.565  12.344  0.00  0.00    +0.000 A 
ATOM      5  C   UNL     1      46.255   8.358  12.803  0.00  0.00    +0.000 A 
ATOM      6  C   UNL     1      44.961   8.212  12.321  0.00  0.00    +0.000 A 
ATOM      7  C   UNL     1      44.681   7.208  11.409  0.00  0.00    +0.000 A 
ATOM      8  C   UNL     1      45.654   6.263  11.050  0.00  0.00    +0.000 A 
ATOM      9  C   UNL     1      46.969   6.469  11.523  0.00  0.00    +0.000 A 
BRANCH   8  10
ATOM     10  C   UNL     1      45.302   5.103  10.211  0.00  0.00    +0.000 A 
ATOM     11  C   UNL     1      44.547   4.034  10.702  0.00  0.00    +0.000 A 
ATOM     12  N   UNL     1      44.225   2.937   9.975  0.00  0.00    +0.000 NA
ATOM     13  C   UNL     1      44.701   2.937   8.714  0.00  0.00    +0.000 A 
ATOM     14  C   UNL     1      45.454   3.983   8.207  0.00  0.00    +0.000 A 
ATOM     15  N   UNL     1      45.771   5.080   8.936  0.00  0.00    +0.000 NA
ENDBRANCH   8  10
ENDBRANCH   1   4
BRANCH   1  16
ATOM     16  C   UNL     1      49.172   8.486  13.972  0.00  0.00    +0.000 C 
BRANCH  16  20
ATOM     17  C   UNL     1      50.653   5.737  16.905  0.00  0.00    +0.000 A 
ATOM     18  C   UNL     1      51.533   6.619  16.310  0.00  0.00    +0.000 A 
ATOM     19  C   UNL     1      51.035   7.490  15.345  0.00  0.00    +0.000 A 
ATOM     20  C   UNL     1      49.667   7.480  14.990  0.00  0.00    +0.000 A 
ATOM     21  C   UNL     1      48.887   6.525  15.622  0.00  0.00    +0.000 A 
ATOM     22  N   UNL     1      49.343   5.669  16.567  0.00  0.00    +0.000 NA
BRANCH  17  24
ATOM     23  N   UNL     1      51.546   4.196  18.795  0.00  0.00    +0.000 NA
ATOM     24  C   UNL     1      51.116   4.852  17.941  0.00  0.00    +0.000 C 
ENDBRANCH  17  24
BRANCH  19  25
ATOM     25  C   UNL     1      51.956   8.415  14.744  0.00  0.00    +0.000 C 
ATOM     26  N   UNL     1      52.704   9.166  14.282  0.00  0.00    +0.000 NA
ENDBRANCH  19  25
ENDBRANCH  16  20
ENDBRANCH   1  16
TORSDOF 6
ENDMDL
MODEL 8
REMARK VINA RESULT:    -6.155      3.330      6.099
REMARK INTER + INTRA:          -8.928
REMARK INTER:                  -7.772
REMARK INTRA:                  -1.156
REMARK UNBOUND:                -0.614
REMARK  Name = 
REMARK  6 active torsions:
REMARK  status: ('A' for Active; 'I' for Inactive)
REMARK    1  A    between atoms: C_2  and  C_3
REMARK    2  A    between atoms: C_5  and  C_6
REMARK    3  A    between atoms: C_8  and  C_9
REMARK    4  A    between atoms: C_9  and  C_10
REMARK    5  A    between atoms: C_10  and  C_11
REMARK    6  A    between atoms: C_15  and  C_16
REMARK                            x       y       z     vdW  Elec       q    Type
REMARK                         _______ _______ _______ _____ _____    ______ ____
ROOT
ATOM      1  C   UNL     1      48.892   7.678  15.656  0.00  0.00    +0.000 C 
ATOM      2  C   UNL     1      48.390   9.110  15.765  0.00  0.00    +0.000 C 
ATOM      3  C   UNL     1      49.864   8.874  15.696  0.00  0.00    +0.000 C 
ENDROOT
BRANCH   1   4
ATOM      4  C   UNL     1      49.128   6.740  16.871  0.00  0.00    +0.000 A 
ATOM      5  C   UNL     1      48.363   6.871  18.043  0.00  0.00    +0.000 A 
ATOM      6  C   UNL     1      48.277   5.858  18.990  0.00  0.00    +0.000 A 
ATOM      7  C   UNL     1      49.020   4.701  18.823  0.00  0.00    +0.000 A 
ATOM      8  C   UNL     1      49.947   4.580  17.777  0.00  0.00    +0.000 A 
ATOM      9  C   UNL     1      49.975   5.608  16.808  0.00  0.00    +0.000 A 
BRANCH   8  10
ATOM     10  C   UNL     1      50.851   3.419  17.704  0.00  0.00    +0.000 A 
ATOM     11  C   UNL     1      50.410   2.160  17.283  0.00  0.00    +0.000 A 
ATOM     12  N   UNL     1      51.200   1.061  17.229  0.00  0.00    +0.000 NA
ATOM     13  C   UNL     1      52.472   1.260  17.627  0.00  0.00    +0.000 A 
ATOM     14  C   UNL     1      52.930   2.496  18.051  0.00  0.00    +0.000 A 
ATOM     15  N   UNL     1      52.138   3.594  18.102  0.00  0.00    +0.000 NA
ENDBRANCH   8  10
ENDBRANCH   1   4
BRANCH   1  16
ATOM     16  C   UNL     1      48.822   7.029  14.273  0.00  0.00    +0.000 C 
BRANCH  16  20
ATOM     17  C   UNL     1      45.315   4.891  13.055  0.00  0.00    +0.000 A 
ATOM     18  C   UNL     1      45.504   6.182  12.602  0.00  0.00    +0.000 A 
ATOM     19  C   UNL     1      46.640   6.866  13.025  0.00  0.00    +0.000 A 
ATOM     20  C   UNL     1      47.579   6.255  13.888  0.00  0.00    +0.000 A 
ATOM     21  C   UNL     1      47.265   4.973  14.311  0.00  0.00    +0.000 A 
ATOM     22  N   UNL     1      46.170   4.283  13.911  0.00  0.00    +0.000 NA
BRANCH  17  24
ATOM     23  N   UNL     1      43.215   3.583  12.262  0.00  0.00    +0.000 NA
ATOM     24  C   UNL     1      44.179   4.132  12.603  0.00  0.00    +0.000 C 
ENDBRANCH  17  24
BRANCH  19  25
ATOM     25  C   UNL     1      46.836   8.201  12.534  0.00  0.00    +0.000 C 
ATOM     26  N   UNL     1      46.970   9.276  12.130  0.00  0.00    +0.000 NA
ENDBRANCH  19  25
ENDBRANCH  16  20
ENDBRANCH   1  16
TORSDOF 6
ENDMDL
MODEL 9
REMARK VINA RESULT:    -6.046      2.413      8.143
REMARK INTER + INTRA:          -8.781
REMARK INTER:                  -7.940
REMARK INTRA:                  -0.841
REMARK UNBOUND:                -0.614
REMARK  Name = 
REMARK  6 active torsions:
REMARK  status: ('A' for Active; 'I' for Inactive)
REMARK    1  A    between atoms: C_2  and  C_3
REMARK    2  A    between atoms: C_5  and  C_6
REMARK    3  A    between atoms: C_8  and  C_9
REMARK    4  A    between atoms: C_9  and  C_10
REMARK    5  A    between atoms: C_10  and  C_11
REMARK    6  A    between atoms: C_15  and  C_16
REMARK                            x       y       z     vdW  Elec       q    Type
REMARK                         _______ _______ _______ _____ _____    ______ ____
ROOT
ATOM      1  C   UNL     1      48.575   8.052  12.733  0.00  0.00    +0.000 C 
ATOM      2  C   UNL     1      49.771   7.682  11.869  0.00  0.00    +0.000 C 
ATOM      3  C   UNL     1      49.093   8.990  11.626  0.00  0.00    +0.000 C 
ENDROOT
BRANCH   1   4
ATOM      4  C   UNL     1      47.115   7.611  12.440  0.00  0.00    +0.000 A 
ATOM      5  C   UNL     1      46.029   8.431  12.796  0.00  0.00    +0.000 A 
ATOM      6  C   UNL     1      44.765   8.267  12.246  0.00  0.00    +0.000 A 
ATOM      7  C   UNL     1      44.531   7.220  11.369  0.00  0.00    +0.000 A 
ATOM      8  C   UNL     1      45.516   6.254  11.115  0.00  0.00    +0.000 A 
ATOM      9  C   UNL     1      46.803   6.477  11.654  0.00  0.00    +0.000 A 
BRANCH   8  10
ATOM     10  C   UNL     1      45.206   5.057  10.314  0.00  0.00    +0.000 A 
ATOM     11  C   UNL     1      44.580   3.936  10.868  0.00  0.00    +0.000 A 
ATOM     12  N   UNL     1      44.303   2.804  10.176  0.00  0.00    +0.000 NA
ATOM     13  C   UNL     1      44.687   2.824   8.884  0.00  0.00    +0.000 A 
ATOM     14  C   UNL     1      45.311   3.922   8.315  0.00  0.00    +0.000 A 
ATOM     15  N   UNL     1      45.585   5.053   9.010  0.00  0.00    +0.000 NA
ENDBRANCH   8  10
ENDBRANCH   1   4
BRANCH   1  16
ATOM     16  C   UNL     1      48.878   8.579  14.136  0.00  0.00    +0.000 C 
BRANCH  16  20
ATOM     17  C   UNL     1      48.743   5.935  17.503  0.00  0.00    +0.000 A 
ATOM     18  C   UNL     1      48.783   7.297  17.723  0.00  0.00    +0.000 A 
ATOM     19  C   UNL     1      48.846   8.139  16.616  0.00  0.00    +0.000 A 
ATOM     20  C   UNL     1      48.862   7.615  15.303  0.00  0.00    +0.000 A 
ATOM     21  C   UNL     1      48.860   6.233  15.205  0.00  0.00    +0.000 A 
ATOM     22  N   UNL     1      48.793   5.391  16.264  0.00  0.00    +0.000 NA
BRANCH  17  24
ATOM     23  N   UNL     1      48.514   4.245  19.463  0.00  0.00    +0.000 NA
ATOM     24  C   UNL     1      48.628   5.032  18.618  0.00  0.00    +0.000 C 
ENDBRANCH  17  24
BRANCH  19  25
ATOM     25  C   UNL     1      48.870   9.555  16.855  0.00  0.00    +0.000 C 
ATOM     26  N   UNL     1      48.881  10.691  17.070  0.00  0.00    +0.000 NA
ENDBRANCH  19  25
ENDBRANCH  16  20
ENDBRANCH   1  16
TORSDOF 6
ENDMDL
