MODEL 1
REMARK VINA RESULT:    -7.359      0.000      0.000
REMARK INTER + INTRA:         -10.279
REMARK INTER:                  -9.295
REMARK INTRA:                  -0.985
REMARK UNBOUND:                -0.985
REMARK  Name = 
REMARK  5 active torsions:
REMARK  status: ('A' for Active; 'I' for Inactive)
REMARK    1  A    between atoms: C_2  and  C_13
REMARK    2  A    between atoms: N_3  and  CA_4
REMARK    3  A    between atoms: CA_4  and  C_5
REMARK    4  A    between atoms: CA_4  and  C_7
REMARK    5  A    between atoms: C_5  and  O_6
REMARK                            x       y       z     vdW  Elec       q    Type
REMARK                         _______ _______ _______ _____ _____    ______ ____
ROOT
ATOM      1  O   UNL     1      42.911   6.131  11.263  0.00  0.00    +0.000 OA
ATOM      2  C   UNL     1      44.137   6.102  11.241  0.00  0.00    +0.000 C 
ATOM      3  N   UNL     1      44.835   5.073  10.665  0.00  0.00    +0.000 N 
ATOM      4  H   UNL     1      45.843   5.039  10.760  0.00  0.00    +0.000 HD
ENDROOT
BRANCH   2   5
ATOM      5  C   UNL     1      44.943   7.195  11.792  0.00  0.00    +0.000 A 
ATOM      6  C   UNL     1      44.644   8.516  11.488  0.00  0.00    +0.000 A 
ATOM      7  S   UNL     1      45.700   9.640  12.217  0.00  0.00    +0.000 S 
ATOM      8  C   UNL     1      46.558   8.403  13.012  0.00  0.00    +0.000 A 
ATOM      9  N   UNL     1      47.589   8.691  13.851  0.00  0.00    +0.000 NA
ATOM     10  C   UNL     1      48.128   7.658  14.408  0.00  0.00    +0.000 A 
ATOM     11  N   UNL     1      47.738   6.360  14.191  0.00  0.00    +0.000 N 
ATOM     12  C   UNL     1      46.723   6.018  13.332  0.00  0.00    +0.000 A 
ATOM     13  O   UNL     1      46.428   4.845  13.120  0.00  0.00    +0.000 OA
ATOM     14  C   UNL     1      46.066   7.149  12.697  0.00  0.00    +0.000 A 
ATOM     15  H   UNL     1      48.216   5.598  14.650  0.00  0.00    +0.000 HD
ENDBRANCH   2   5
BRANCH   3  16
ATOM     16  CA  UNL     1      44.185   3.898  10.109  0.00  0.00    +0.000 C 
BRANCH  16  17
ATOM     17  C   UNL     1      45.080   3.277   9.051  0.00  0.00    +0.000 A 
ATOM     18  C   UNL     1      45.713   4.091   8.106  0.00  0.00    +0.000 A 
ATOM     19  C   UNL     1      46.538   3.505   7.157  0.00  0.00    +0.000 A 
ATOM     20  N   UNL     1      46.780   2.179   7.086  0.00  0.00    +0.000 NA
ATOM     21  C   UNL     1      46.174   1.407   8.009  0.00  0.00    +0.000 A 
ATOM     22  C   UNL     1      45.337   1.901   9.000  0.00  0.00    +0.000 A 
ENDBRANCH  16  17
BRANCH  16  23
ATOM     23  C   UNL     1      43.732   2.910  11.214  0.00  0.00    +0.000 C 
BRANCH  23  24
ATOM     24  O   UNL     1      44.682   2.760  12.273  0.00  0.00    +0.000 OA
ATOM     25  H   UNL     1      44.435   3.393  12.972  0.00  0.00    +0.000 HD
ENDBRANCH  23  24
ENDBRANCH  16  23
ENDBRANCH   3  16
TORSDOF 5
ENDMDL
MODEL 2
REMARK VINA RESULT:    -7.287      1.508      1.847
REMARK INTER + INTRA:         -10.188
REMARK INTER:                  -9.190
REMARK INTRA:                  -0.999
REMARK UNBOUND:                -0.985
REMARK  Name = 
REMARK  5 active torsions:
REMARK  status: ('A' for Active; 'I' for Inactive)
REMARK    1  A    between atoms: C_2  and  C_13
REMARK    2  A    between atoms: N_3  and  CA_4
REMARK    3  A    between atoms: CA_4  and  C_5
REMARK    4  A    between atoms: CA_4  and  C_7
REMARK    5  A    between atoms: C_5  and  O_6
REMARK                            x       y       z     vdW  Elec       q    Type
REMARK                         _______ _______ _______ _____ _____    ______ ____
ROOT
ATOM      1  O   UNL     1      44.865   6.807  11.032  0.00  0.00    +0.000 OA
ATOM      2  C   UNL     1      45.641   6.007  11.546  0.00  0.00    +0.000 C 
ATOM      3  N   UNL     1      45.592   4.664  11.279  0.00  0.00    +0.000 N 
ATOM      4  H   UNL     1      46.182   4.029  11.802  0.00  0.00    +0.000 HD
ENDROOT
BRANCH   2   5
ATOM      5  C   UNL     1      46.709   6.443  12.449  0.00  0.00    +0.000 A 
ATOM      6  C   UNL     1      47.465   7.571  12.157  0.00  0.00    +0.000 A 
ATOM      7  S   UNL     1      48.662   7.910  13.323  0.00  0.00    +0.000 S 
ATOM      8  C   UNL     1      48.174   6.595  14.289  0.00  0.00    +0.000 A 
ATOM      9  N   UNL     1      48.776   6.338  15.481  0.00  0.00    +0.000 NA
ATOM     10  C   UNL     1      48.284   5.329  16.120  0.00  0.00    +0.000 A 
ATOM     11  N   UNL     1      47.252   4.545  15.669  0.00  0.00    +0.000 N 
ATOM     12  C   UNL     1      46.633   4.748  14.460  0.00  0.00    +0.000 A 
ATOM     13  O   UNL     1      45.745   4.001  14.059  0.00  0.00    +0.000 OA
ATOM     14  C   UNL     1      47.135   5.889  13.711  0.00  0.00    +0.000 A 
ATOM     15  H   UNL     1      46.928   3.761  16.216  0.00  0.00    +0.000 HD
ENDBRANCH   2   5
BRANCH   3  16
ATOM     16  CA  UNL     1      44.569   4.069  10.434  0.00  0.00    +0.000 C 
BRANCH  16  17
ATOM     17  C   UNL     1      45.226   3.392   9.244  0.00  0.00    +0.000 A 
ATOM     18  C   UNL     1      45.749   4.165   8.202  0.00  0.00    +0.000 A 
ATOM     19  C   UNL     1      46.358   3.527   7.131  0.00  0.00    +0.000 A 
ATOM     20  N   UNL     1      46.487   2.188   7.027  0.00  0.00    +0.000 NA
ATOM     21  C   UNL     1      45.990   1.455   8.043  0.00  0.00    +0.000 A 
ATOM     22  C   UNL     1      45.370   2.001   9.158  0.00  0.00    +0.000 A 
ENDBRANCH  16  17
BRANCH  16  23
ATOM     23  C   UNL     1      43.617   3.148  11.240  0.00  0.00    +0.000 C 
BRANCH  23  24
ATOM     24  O   UNL     1      44.244   2.511  12.356  0.00  0.00    +0.000 OA
ATOM     25  H   UNL     1      43.756   2.786  13.155  0.00  0.00    +0.000 HD
ENDBRANCH  23  24
ENDBRANCH  16  23
ENDBRANCH   3  16
TORSDOF 5
ENDMDL
MODEL 3
REMARK VINA RESULT:    -6.693      3.079      7.341
REMARK INTER + INTRA:          -9.438
REMARK INTER:                  -8.392
REMARK INTRA:                  -1.046
REMARK UNBOUND:                -0.985
REMARK  Name = 
REMARK  5 active torsions:
REMARK  status: ('A' for Active; 'I' for Inactive)
REMARK    1  A    between atoms: C_2  and  C_13
REMARK    2  A    between atoms: N_3  and  CA_4
REMARK    3  A    between atoms: CA_4  and  C_5
REMARK    4  A    between atoms: CA_4  and  C_7
REMARK    5  A    between atoms: C_5  and  O_6
REMARK                            x       y       z     vdW  Elec       q    Type
REMARK                         _______ _______ _______ _____ _____    ______ ____
ROOT
ATOM      1  O   UNL     1      48.636   6.134  13.788  0.00  0.00    +0.000 OA
ATOM      2  C   UNL     1      47.504   5.730  14.037  0.00  0.00    +0.000 C 
ATOM      3  N   UNL     1      47.194   5.099  15.214  0.00  0.00    +0.000 N 
ATOM      4  H   UNL     1      46.275   4.691  15.333  0.00  0.00    +0.000 HD
ENDROOT
BRANCH   2   5
ATOM      5  C   UNL     1      46.391   5.938  13.108  0.00  0.00    +0.000 A 
ATOM      6  C   UNL     1      46.051   7.217  12.687  0.00  0.00    +0.000 A 
ATOM      7  S   UNL     1      44.725   7.252  11.616  0.00  0.00    +0.000 S 
ATOM      8  C   UNL     1      44.596   5.555  11.629  0.00  0.00    +0.000 A 
ATOM      9  N   UNL     1      43.666   4.915  10.871  0.00  0.00    +0.000 NA
ATOM     10  C   UNL     1      43.702   3.627  10.957  0.00  0.00    +0.000 A 
ATOM     11  N   UNL     1      44.577   2.920  11.743  0.00  0.00    +0.000 N 
ATOM     12  C   UNL     1      45.514   3.521  12.546  0.00  0.00    +0.000 A 
ATOM     13  O   UNL     1      46.251   2.866  13.276  0.00  0.00    +0.000 OA
ATOM     14  C   UNL     1      45.530   4.973  12.467  0.00  0.00    +0.000 A 
ATOM     15  H   UNL     1      44.538   1.911  11.772  0.00  0.00    +0.000 HD
ENDBRANCH   2   5
BRANCH   3  16
ATOM     16  CA  UNL     1      48.193   4.784  16.221  0.00  0.00    +0.000 C 
BRANCH  16  17
ATOM     17  C   UNL     1      48.059   5.750  17.386  0.00  0.00    +0.000 A 
ATOM     18  C   UNL     1      47.345   5.372  18.529  0.00  0.00    +0.000 A 
ATOM     19  C   UNL     1      47.247   6.263  19.587  0.00  0.00    +0.000 A 
ATOM     20  N   UNL     1      47.808   7.491  19.591  0.00  0.00    +0.000 NA
ATOM     21  C   UNL     1      48.502   7.839  18.489  0.00  0.00    +0.000 A 
ATOM     22  C   UNL     1      48.662   7.014  17.385  0.00  0.00    +0.000 A 
ENDBRANCH  16  17
BRANCH  16  23
ATOM     23  C   UNL     1      48.149   3.289  16.633  0.00  0.00    +0.000 C 
BRANCH  23  24
ATOM     24  O   UNL     1      48.446   2.391  15.560  0.00  0.00    +0.000 OA
ATOM     25  H   UNL     1      47.965   1.562  15.739  0.00  0.00    +0.000 HD
ENDBRANCH  23  24
ENDBRANCH  16  23
ENDBRANCH   3  16
TORSDOF 5
ENDMDL
MODEL 4
REMARK VINA RESULT:    -6.551      3.164      5.013
REMARK INTER + INTRA:          -9.259
REMARK INTER:                  -8.322
REMARK INTRA:                  -0.937
REMARK UNBOUND:                -0.985
REMARK  Name = 
REMARK  5 active torsions:
REMARK  status: ('A' for Active; 'I' for Inactive)
REMARK    1  A    between atoms: C_2  and  C_13
REMARK    2  A    between atoms: N_3  and  CA_4
REMARK    3  A    between atoms: CA_4  and  C_5
REMARK    4  A    between atoms: CA_4  and  C_7
REMARK    5  A    between atoms: C_5  and  O_6
REMARK                            x       y       z     vdW  Elec       q    Type
REMARK                         _______ _______ _______ _____ _____    ______ ____
ROOT
ATOM      1  O   UNL     1      48.874   6.399  12.996  0.00  0.00    +0.000 OA
ATOM      2  C   UNL     1      47.993   6.209  13.829  0.00  0.00    +0.000 C 
ATOM      3  N   UNL     1      46.676   6.061  13.482  0.00  0.00    +0.000 N 
ATOM      4  H   UNL     1      45.971   6.010  14.208  0.00  0.00    +0.000 HD
ENDROOT
BRANCH   2   5
ATOM      5  C   UNL     1      48.298   6.081  15.257  0.00  0.00    +0.000 A 
ATOM      6  C   UNL     1      48.762   7.171  15.980  0.00  0.00    +0.000 A 
ATOM      7  S   UNL     1      49.068   6.821  17.621  0.00  0.00    +0.000 S 
ATOM      8  C   UNL     1      48.534   5.215  17.436  0.00  0.00    +0.000 A 
ATOM      9  N   UNL     1      48.497   4.361  18.493  0.00  0.00    +0.000 NA
ATOM     10  C   UNL     1      48.043   3.185  18.213  0.00  0.00    +0.000 A 
ATOM     11  N   UNL     1      47.634   2.780  16.968  0.00  0.00    +0.000 N 
ATOM     12  C   UNL     1      47.679   3.597  15.864  0.00  0.00    +0.000 A 
ATOM     13  O   UNL     1      47.353   3.194  14.752  0.00  0.00    +0.000 OA
ATOM     14  C   UNL     1      48.162   4.942  16.132  0.00  0.00    +0.000 A 
ATOM     15  H   UNL     1      47.303   1.838  16.818  0.00  0.00    +0.000 HD
ENDBRANCH   2   5
BRANCH   3  16
ATOM     16  CA  UNL     1      46.205   6.199  12.113  0.00  0.00    +0.000 C 
BRANCH  16  17
ATOM     17  C   UNL     1      45.210   5.093  11.807  0.00  0.00    +0.000 A 
ATOM     18  C   UNL     1      44.525   4.461  12.851  0.00  0.00    +0.000 A 
ATOM     19  C   UNL     1      43.609   3.463  12.548  0.00  0.00    +0.000 A 
ATOM     20  N   UNL     1      43.326   3.058  11.292  0.00  0.00    +0.000 NA
ATOM     21  C   UNL     1      43.984   3.682  10.296  0.00  0.00    +0.000 A 
ATOM     22  C   UNL     1      44.911   4.694  10.498  0.00  0.00    +0.000 A 
ENDBRANCH  16  17
BRANCH  16  23
ATOM     23  C   UNL     1      45.673   7.626  11.825  0.00  0.00    +0.000 C 
BRANCH  23  24
ATOM     24  O   UNL     1      44.909   8.181  12.899  0.00  0.00    +0.000 OA
ATOM     25  H   UNL     1      44.039   8.428  12.535  0.00  0.00    +0.000 HD
ENDBRANCH  23  24
ENDBRANCH  16  23
ENDBRANCH   3  16
TORSDOF 5
ENDMDL
MODEL 5
REMARK VINA RESULT:    -6.079      3.838      7.112
REMARK INTER + INTRA:          -8.663
REMARK INTER:                  -8.275
REMARK INTRA:                  -0.388
REMARK UNBOUND:                -0.985
REMARK  Name = 
REMARK  5 active torsions:
REMARK  status: ('A' for Active; 'I' for Inactive)
REMARK    1  A    between atoms: C_2  and  C_13
REMARK    2  A    between atoms: N_3  and  CA_4
REMARK    3  A    between atoms: CA_4  and  C_5
REMARK    4  A    between atoms: CA_4  and  C_7
REMARK    5  A    between atoms: C_5  and  O_6
REMARK                            x       y       z     vdW  Elec       q    Type
REMARK                         _______ _______ _______ _____ _____    ______ ____
ROOT
ATOM      1  O   UNL     1      47.317   3.317  14.866  0.00  0.00    +0.000 OA
ATOM      2  C   UNL     1      47.366   4.541  14.926  0.00  0.00    +0.000 C 
ATOM      3  N   UNL     1      47.656   5.206  16.089  0.00  0.00    +0.000 N 
ATOM      4  H   UNL     1      47.584   6.216  16.118  0.00  0.00    +0.000 HD
ENDROOT
BRANCH   2   5
ATOM      5  C   UNL     1      47.160   5.379  13.742  0.00  0.00    +0.000 A 
ATOM      6  C   UNL     1      48.141   6.272  13.330  0.00  0.00    +0.000 A 
ATOM      7  S   UNL     1      47.712   7.161  11.940  0.00  0.00    +0.000 S 
ATOM      8  C   UNL     1      46.226   6.342  11.805  0.00  0.00    +0.000 A 
ATOM      9  N   UNL     1      45.372   6.602  10.779  0.00  0.00    +0.000 NA
ATOM     10  C   UNL     1      44.297   5.886  10.786  0.00  0.00    +0.000 A 
ATOM     11  N   UNL     1      43.992   4.941  11.734  0.00  0.00    +0.000 N 
ATOM     12  C   UNL     1      44.810   4.663  12.802  0.00  0.00    +0.000 A 
ATOM     13  O   UNL     1      44.489   3.848  13.662  0.00  0.00    +0.000 OA
ATOM     14  C   UNL     1      46.046   5.428  12.827  0.00  0.00    +0.000 A 
ATOM     15  H   UNL     1      43.124   4.427  11.685  0.00  0.00    +0.000 HD
ENDBRANCH   2   5
BRANCH   3  16
ATOM     16  CA  UNL     1      47.848   4.522  17.357  0.00  0.00    +0.000 C 
BRANCH  16  17
ATOM     17  C   UNL     1      49.250   3.938  17.410  0.00  0.00    +0.000 A 
ATOM     18  C   UNL     1      49.434   2.555  17.311  0.00  0.00    +0.000 A 
ATOM     19  C   UNL     1      50.723   2.043  17.348  0.00  0.00    +0.000 A 
ATOM     20  N   UNL     1      51.832   2.804  17.469  0.00  0.00    +0.000 NA
ATOM     21  C   UNL     1      51.641   4.135  17.552  0.00  0.00    +0.000 A 
ATOM     22  C   UNL     1      50.393   4.740  17.518  0.00  0.00    +0.000 A 
ENDBRANCH  16  17
BRANCH  16  23
ATOM     23  C   UNL     1      47.495   5.429  18.564  0.00  0.00    +0.000 C 
BRANCH  23  24
ATOM     24  O   UNL     1      46.102   5.441  18.885  0.00  0.00    +0.000 OA
ATOM     25  H   UNL     1      45.693   4.691  18.415  0.00  0.00    +0.000 HD
ENDBRANCH  23  24
ENDBRANCH  16  23
ENDBRANCH   3  16
TORSDOF 5
ENDMDL
MODEL 6
REMARK VINA RESULT:    -5.791      4.024      5.580
REMARK INTER + INTRA:          -8.300
REMARK INTER:                  -7.289
REMARK INTRA:                  -1.011
REMARK UNBOUND:                -0.985
REMARK  Name = 
REMARK  5 active torsions:
REMARK  status: ('A' for Active; 'I' for Inactive)
REMARK    1  A    between atoms: C_2  and  C_13
REMARK    2  A    between atoms: N_3  and  CA_4
REMARK    3  A    between atoms: CA_4  and  C_5
REMARK    4  A    between atoms: CA_4  and  C_7
REMARK    5  A    between atoms: C_5  and  O_6
REMARK                            x       y       z     vdW  Elec       q    Type
REMARK                         _______ _______ _______ _____ _____    ______ ____
ROOT
ATOM      1  O   UNL     1      47.511   3.477  14.014  0.00  0.00    +0.000 OA
ATOM      2  C   UNL     1      47.404   4.558  14.586  0.00  0.00    +0.000 C 
ATOM      3  N   UNL     1      46.926   5.676  13.954  0.00  0.00    +0.000 N 
ATOM      4  H   UNL     1      46.952   6.569  14.433  0.00  0.00    +0.000 HD
ENDROOT
BRANCH   2   5
ATOM      5  C   UNL     1      47.738   4.714  16.004  0.00  0.00    +0.000 A 
ATOM      6  C   UNL     1      47.098   3.948  16.969  0.00  0.00    +0.000 A 
ATOM      7  S   UNL     1      47.617   4.281  18.558  0.00  0.00    +0.000 S 
ATOM      8  C   UNL     1      48.757   5.419  18.008  0.00  0.00    +0.000 A 
ATOM      9  N   UNL     1      49.584   6.061  18.876  0.00  0.00    +0.000 NA
ATOM     10  C   UNL     1      50.417   6.874  18.317  0.00  0.00    +0.000 A 
ATOM     11  N   UNL     1      50.491   7.113  16.967  0.00  0.00    +0.000 N 
ATOM     12  C   UNL     1      49.660   6.510  16.055  0.00  0.00    +0.000 A 
ATOM     13  O   UNL     1      49.715   6.780  14.859  0.00  0.00    +0.000 OA
ATOM     14  C   UNL     1      48.716   5.567  16.633  0.00  0.00    +0.000 A 
ATOM     15  H   UNL     1      51.159   7.774  16.600  0.00  0.00    +0.000 HD
ENDBRANCH   2   5
BRANCH   3  16
ATOM     16  CA  UNL     1      46.588   5.695  12.541  0.00  0.00    +0.000 C 
BRANCH  16  17
ATOM     17  C   UNL     1      45.079   5.618  12.381  0.00  0.00    +0.000 A 
ATOM     18  C   UNL     1      44.452   6.306  11.336  0.00  0.00    +0.000 A 
ATOM     19  C   UNL     1      43.074   6.211  11.199  0.00  0.00    +0.000 A 
ATOM     20  N   UNL     1      42.286   5.481  12.016  0.00  0.00    +0.000 NA
ATOM     21  C   UNL     1      42.903   4.814  13.010  0.00  0.00    +0.000 A 
ATOM     22  C   UNL     1      44.274   4.842  13.224  0.00  0.00    +0.000 A 
ENDBRANCH  16  17
BRANCH  16  23
ATOM     23  C   UNL     1      47.240   6.894  11.805  0.00  0.00    +0.000 C 
BRANCH  23  24
ATOM     24  O   UNL     1      48.583   7.159  12.219  0.00  0.00    +0.000 OA
ATOM     25  H   UNL     1      49.103   6.353  12.041  0.00  0.00    +0.000 HD
ENDBRANCH  23  24
ENDBRANCH  16  23
ENDBRANCH   3  16
TORSDOF 5
ENDMDL
MODEL 7
REMARK VINA RESULT:    -5.729      4.048      7.043
REMARK INTER + INTRA:          -8.221
REMARK INTER:                  -7.496
REMARK INTRA:                  -0.725
REMARK UNBOUND:                -0.985
REMARK  Name = 
REMARK  5 active torsions:
REMARK  status: ('A' for Active; 'I' for Inactive)
REMARK    1  A    between atoms: C_2  and  C_13
REMARK    2  A    between atoms: N_3  and  CA_4
REMARK    3  A    between atoms: CA_4  and  C_5
REMARK    4  A    between atoms: CA_4  and  C_7
REMARK    5  A    between atoms: C_5  and  O_6
REMARK                            x       y       z     vdW  Elec       q    Type
REMARK                         _______ _______ _______ _____ _____    ______ ____
ROOT
ATOM      1  O   UNL     1      47.391   3.142  14.863  0.00  0.00    +0.000 OA
ATOM      2  C   UNL     1      47.280   4.360  14.952  0.00  0.00    +0.000 C 
ATOM      3  N   UNL     1      47.466   5.028  16.135  0.00  0.00    +0.000 N 
ATOM      4  H   UNL     1      47.264   6.019  16.185  0.00  0.00    +0.000 HD
ENDROOT
BRANCH   2   5
ATOM      5  C   UNL     1      46.986   5.194  13.784  0.00  0.00    +0.000 A 
ATOM      6  C   UNL     1      45.859   4.953  13.009  0.00  0.00    +0.000 A 
ATOM      7  S   UNL     1      45.695   6.023  11.692  0.00  0.00    +0.000 S 
ATOM      8  C   UNL     1      47.092   6.884  12.145  0.00  0.00    +0.000 A 
ATOM      9  N   UNL     1      47.502   7.975  11.444  0.00  0.00    +0.000 NA
ATOM     10  C   UNL     1      48.559   8.547  11.918  0.00  0.00    +0.000 A 
ATOM     11  N   UNL     1      49.252   8.118  13.022  0.00  0.00    +0.000 N 
ATOM     12  C   UNL     1      48.893   7.007  13.745  0.00  0.00    +0.000 A 
ATOM     13  O   UNL     1      49.559   6.618  14.699  0.00  0.00    +0.000 OA
ATOM     14  C   UNL     1      47.693   6.340  13.265  0.00  0.00    +0.000 A 
ATOM     15  H   UNL     1      50.081   8.607  13.328  0.00  0.00    +0.000 HD
ENDBRANCH   2   5
BRANCH   3  16
ATOM     16  CA  UNL     1      47.726   4.342  17.390  0.00  0.00    +0.000 C 
BRANCH  16  17
ATOM     17  C   UNL     1      49.187   3.931  17.449  0.00  0.00    +0.000 A 
ATOM     18  C   UNL     1      49.536   2.579  17.358  0.00  0.00    +0.000 A 
ATOM     19  C   UNL     1      50.877   2.225  17.400  0.00  0.00    +0.000 A 
ATOM     20  N   UNL     1      51.886   3.114  17.519  0.00  0.00    +0.000 NA
ATOM     21  C   UNL     1      51.537   4.413  17.594  0.00  0.00    +0.000 A 
ATOM     22  C   UNL     1      50.226   4.864  17.554  0.00  0.00    +0.000 A 
ENDBRANCH  16  17
BRANCH  16  23
ATOM     23  C   UNL     1      47.253   5.172  18.611  0.00  0.00    +0.000 C 
BRANCH  23  24
ATOM     24  O   UNL     1      47.706   4.656  19.865  0.00  0.00    +0.000 OA
ATOM     25  H   UNL     1      47.011   4.057  20.197  0.00  0.00    +0.000 HD
ENDBRANCH  23  24
ENDBRANCH  16  23
ENDBRANCH   3  16
TORSDOF 5
ENDMDL
MODEL 8
REMARK VINA RESULT:    -5.593      3.810      8.494
REMARK INTER + INTRA:          -8.049
REMARK INTER:                  -6.926
REMARK INTRA:                  -1.122
REMARK UNBOUND:                -0.985
REMARK  Name = 
REMARK  5 active torsions:
REMARK  status: ('A' for Active; 'I' for Inactive)
REMARK    1  A    between atoms: C_2  and  C_13
REMARK    2  A    between atoms: N_3  and  CA_4
REMARK    3  A    between atoms: CA_4  and  C_5
REMARK    4  A    between atoms: CA_4  and  C_7
REMARK    5  A    between atoms: C_5  and  O_6
REMARK                            x       y       z     vdW  Elec       q    Type
REMARK                         _______ _______ _______ _____ _____    ______ ____
ROOT
ATOM      1  O   UNL     1      50.097   6.158  15.864  0.00  0.00    +0.000 OA
ATOM      2  C   UNL     1      48.906   6.418  15.722  0.00  0.00    +0.000 C 
ATOM      3  N   UNL     1      48.076   6.653  16.786  0.00  0.00    +0.000 N 
ATOM      4  H   UNL     1      47.081   6.761  16.628  0.00  0.00    +0.000 HD
ENDROOT
BRANCH   2   5
ATOM      5  C   UNL     1      48.298   6.540  14.394  0.00  0.00    +0.000 A 
ATOM      6  C   UNL     1      48.722   7.524  13.512  0.00  0.00    +0.000 A 
ATOM      7  S   UNL     1      47.889   7.510  12.023  0.00  0.00    +0.000 S 
ATOM      8  C   UNL     1      46.975   6.150  12.484  0.00  0.00    +0.000 A 
ATOM      9  N   UNL     1      46.077   5.586  11.632  0.00  0.00    +0.000 NA
ATOM     10  C   UNL     1      45.478   4.543  12.103  0.00  0.00    +0.000 A 
ATOM     11  N   UNL     1      45.684   4.021  13.354  0.00  0.00    +0.000 N 
ATOM     12  C   UNL     1      46.557   4.572  14.260  0.00  0.00    +0.000 A 
ATOM     13  O   UNL     1      46.686   4.112  15.391  0.00  0.00    +0.000 OA
ATOM     14  C   UNL     1      47.277   5.736  13.768  0.00  0.00    +0.000 A 
ATOM     15  H   UNL     1      45.167   3.210  13.663  0.00  0.00    +0.000 HD
ENDBRANCH   2   5
BRANCH   3  16
ATOM     16  CA  UNL     1      48.516   6.533  18.166  0.00  0.00    +0.000 C 
BRANCH  16  17
ATOM     17  C   UNL     1      48.465   7.897  18.834  0.00  0.00    +0.000 A 
ATOM     18  C   UNL     1      49.496   8.818  18.619  0.00  0.00    +0.000 A 
ATOM     19  C   UNL     1      49.424  10.063  19.227  0.00  0.00    +0.000 A 
ATOM     20  N   UNL     1      48.404  10.455  20.021  0.00  0.00    +0.000 NA
ATOM     21  C   UNL     1      47.412   9.563  20.210  0.00  0.00    +0.000 A 
ATOM     22  C   UNL     1      47.392   8.298  19.641  0.00  0.00    +0.000 A 
ENDBRANCH  16  17
BRANCH  16  23
ATOM     23  C   UNL     1      47.740   5.428  18.928  0.00  0.00    +0.000 C 
BRANCH  23  24
ATOM     24  O   UNL     1      46.538   5.016  18.272  0.00  0.00    +0.000 OA
ATOM     25  H   UNL     1      45.889   5.735  18.384  0.00  0.00    +0.000 HD
ENDBRANCH  23  24
ENDBRANCH  16  23
ENDBRANCH   3  16
TORSDOF 5
ENDMDL
MODEL 9
REMARK VINA RESULT:    -5.562      2.673      6.859
REMARK INTER + INTRA:          -8.010
REMARK INTER:                  -7.309
REMARK INTRA:                  -0.701
REMARK UNBOUND:                -0.985
REMARK  Name = 
REMARK  5 active torsions:
REMARK  status: ('A' for Active; 'I' for Inactive)
REMARK    1  A    between atoms: C_2  and  C_13
REMARK    2  A    between atoms: N_3  and  CA_4
REMARK    3  A    between atoms: CA_4  and  C_5
REMARK    4  A    between atoms: CA_4  and  C_7
REMARK    5  A    between atoms: C_5  and  O_6
REMARK                            x       y       z     vdW  Elec       q    Type
REMARK                         _______ _______ _______ _____ _____    ______ ____
ROOT
ATOM      1  O   UNL     1      45.134   7.695  12.151  0.00  0.00    +0.000 OA
ATOM      2  C   UNL     1      45.764   6.647  12.059  0.00  0.00    +0.000 C 
ATOM      3  N   UNL     1      47.126   6.596  12.206  0.00  0.00    +0.000 N 
ATOM      4  H   UNL     1      47.615   5.728  12.020  0.00  0.00    +0.000 HD
ENDROOT
BRANCH   2   5
ATOM      5  C   UNL     1      45.095   5.363  11.832  0.00  0.00    +0.000 A 
ATOM      6  C   UNL     1      44.367   4.757  12.847  0.00  0.00    +0.000 A 
ATOM      7  S   UNL     1      43.671   3.268  12.391  0.00  0.00    +0.000 S 
ATOM      8  C   UNL     1      44.268   3.411  10.803  0.00  0.00    +0.000 A 
ATOM      9  N   UNL     1      43.992   2.469   9.861  0.00  0.00    +0.000 NA
ATOM     10  C   UNL     1      44.484   2.722   8.694  0.00  0.00    +0.000 A 
ATOM     11  N   UNL     1      45.239   3.826   8.385  0.00  0.00    +0.000 N 
ATOM     12  C   UNL     1      45.567   4.788   9.308  0.00  0.00    +0.000 A 
ATOM     13  O   UNL     1      46.286   5.740   9.016  0.00  0.00    +0.000 OA
ATOM     14  C   UNL     1      45.017   4.562  10.635  0.00  0.00    +0.000 A 
ATOM     15  H   UNL     1      45.604   3.952   7.453  0.00  0.00    +0.000 HD
ENDBRANCH   2   5
BRANCH   3  16
ATOM     16  CA  UNL     1      47.939   7.785  12.398  0.00  0.00    +0.000 C 
BRANCH  16  17
ATOM     17  C   UNL     1      48.324   7.904  13.863  0.00  0.00    +0.000 A 
ATOM     18  C   UNL     1      48.473   9.167  14.445  0.00  0.00    +0.000 A 
ATOM     19  C   UNL     1      48.811   9.254  15.788  0.00  0.00    +0.000 A 
ATOM     20  N   UNL     1      49.002   8.183  16.586  0.00  0.00    +0.000 NA
ATOM     21  C   UNL     1      48.844   6.972  16.017  0.00  0.00    +0.000 A 
ATOM     22  C   UNL     1      48.502   6.784  14.685  0.00  0.00    +0.000 A 
ENDBRANCH  16  17
BRANCH  16  23
ATOM     23  C   UNL     1      49.145   7.825  11.424  0.00  0.00    +0.000 C 
BRANCH  23  24
ATOM     24  O   UNL     1      50.331   7.229  11.954  0.00  0.00    +0.000 OA
ATOM     25  H   UNL     1      50.135   6.286  12.106  0.00  0.00    +0.000 HD
ENDBRANCH  23  24
ENDBRANCH  16  23
ENDBRANCH   3  16
TORSDOF 5
ENDMDL
