MODEL 1
REMARK VINA RESULT:    -8.954      0.000      0.000
REMARK INTER + INTRA:         -13.973
REMARK INTER:                 -12.879
REMARK INTRA:                  -1.093
REMARK UNBOUND:                -1.093
REMARK  Name = 
REMARK  9 active torsions:
REMARK  status: ('A' for Active; 'I' for Inactive)
REMARK    1  A    between atoms: C_1  and  O_2
REMARK    2  A    between atoms: O_2  and  C_3
REMARK    3  A    between atoms: C_5  and  C_6
REMARK    4  A    between atoms: C_14  and  C_15
REMARK    5  A    between atoms: C_15  and  O_16
REMARK    6  A    between atoms: C_15  and  C_17
REMARK    7  A    between atoms: C_17  and  O_18
REMARK    8  A    between atoms: O_18  and  C_19
REMARK    9  A    between atoms: C_22  and  C_23
REMARK                            x       y       z     vdW  Elec       q    Type
REMARK                         _______ _______ _______ _____ _____    ______ ____
ROOT
ATOM      1  C   UNL     1      43.247   4.863  12.319  0.00  0.00    +0.000 C 
ENDROOT
BRANCH   1   6
ATOM      2  C   UNL     1      46.717   4.569  13.939  0.00  0.00    +0.000 A 
ATOM      3  C   UNL     1      47.291   5.783  13.558  0.00  0.00    +0.000 A 
ATOM      4  C   UNL     1      46.588   6.718  12.772  0.00  0.00    +0.000 A 
ATOM      5  C   UNL     1      45.267   6.393  12.402  0.00  0.00    +0.000 A 
ATOM      6  C   UNL     1      44.658   5.184  12.785  0.00  0.00    +0.000 A 
ATOM      7  C   UNL     1      45.401   4.287  13.569  0.00  0.00    +0.000 A 
BRANCH   4   8
ATOM      8  C   UNL     1      47.233   7.981  12.332  0.00  0.00    +0.000 A 
ATOM      9  C   UNL     1      48.581   8.024  11.930  0.00  0.00    +0.000 A 
ATOM     10  C   UNL     1      49.188   9.217  11.521  0.00  0.00    +0.000 A 
ATOM     11  C   UNL     1      48.452  10.399  11.489  0.00  0.00    +0.000 A 
ATOM     12  C   UNL     1      47.119  10.381  11.877  0.00  0.00    +0.000 A 
ATOM     13 CL   UNL     1      46.195  11.834  11.827  0.00  0.00    +0.000 Cl
ATOM     14  C   UNL     1      46.518   9.195  12.304  0.00  0.00    +0.000 A 
ENDBRANCH   4   8
BRANCH   2  16
ATOM     15  C   UNL     1      47.498   3.803  16.054  0.00  0.00    +0.000 C 
ATOM     16  O   UNL     1      47.336   3.582  14.656  0.00  0.00    +0.000 OA
ENDBRANCH   2  16
ENDBRANCH   1   6
BRANCH   1  17
ATOM     17  O   UNL     1      42.547   6.085  12.059  0.00  0.00    +0.000 OA
ATOM     18  H   UNL     1      43.104   6.820  12.360  0.00  0.00    +0.000 HD
ENDBRANCH   1  17
BRANCH   1  19
ATOM     19  C   UNL     1      43.225   3.953  11.077  0.00  0.00    +0.000 C 
BRANCH  19  20
ATOM     20  O   UNL     1      43.669   4.679   9.914  0.00  0.00    +0.000 OA
BRANCH  20  21
ATOM     21  C   UNL     1      44.599   3.969   9.184  0.00  0.00    +0.000 A 
ATOM     22  C   UNL     1      44.715   2.597   9.396  0.00  0.00    +0.000 A 
ATOM     23  N   UNL     1      45.606   1.815   8.725  0.00  0.00    +0.000 NA
ATOM     24  C   UNL     1      46.381   2.486   7.824  0.00  0.00    +0.000 A 
ATOM     25  C   UNL     1      46.265   3.851   7.613  0.00  0.00    +0.000 A 
ATOM     26  N   UNL     1      45.376   4.621   8.288  0.00  0.00    +0.000 NA
BRANCH  24  27
ATOM     27  C   UNL     1      47.383   1.719   7.035  0.00  0.00    +0.000 C 
ATOM     28  N   UNL     1      48.395   2.445   6.474  0.00  0.00    +0.000 N 
ATOM     29  O   UNL     1      47.304   0.507   6.887  0.00  0.00    +0.000 OA
ATOM     30  H   UNL     1      48.443   3.449   6.609  0.00  0.00    +0.000 HD
ATOM     31  H   UNL     1      49.104   1.968   5.934  0.00  0.00    +0.000 HD
ENDBRANCH  24  27
ENDBRANCH  20  21
ENDBRANCH  19  20
ENDBRANCH   1  19
TORSDOF 8
ENDMDL
MODEL 2
REMARK VINA RESULT:    -8.921      1.140      1.456
REMARK INTER + INTRA:         -13.925
REMARK INTER:                 -12.809
REMARK INTRA:                  -1.116
REMARK UNBOUND:                -1.093
REMARK  Name = 
REMARK  9 active torsions:
REMARK  status: ('A' for Active; 'I' for Inactive)
REMARK    1  A    between atoms: C_1  and  O_2
REMARK    2  A    between atoms: O_2  and  C_3
REMARK    3  A    between atoms: C_5  and  C_6
REMARK    4  A    between atoms: C_14  and  C_15
REMARK    5  A    between atoms: C_15  and  O_16
REMARK    6  A    between atoms: C_15  and  C_17
REMARK    7  A    between atoms: C_17  and  O_18
REMARK    8  A    between atoms: O_18  and  C_19
REMARK    9  A    between atoms: C_22  and  C_23
REMARK                            x       y       z     vdW  Elec       q    Type
REMARK                         _______ _______ _______ _____ _____    ______ ____
ROOT
ATOM      1  C   UNL     1      43.349   5.052  12.239  0.00  0.00    +0.000 C 
ENDROOT
BRANCH   1   6
ATOM      2  C   UNL     1      46.760   4.578  13.939  0.00  0.00    +0.000 A 
ATOM      3  C   UNL     1      47.417   5.744  13.544  0.00  0.00    +0.000 A 
ATOM      4  C   UNL     1      46.791   6.703  12.722  0.00  0.00    +0.000 A 
ATOM      5  C   UNL     1      45.460   6.454  12.331  0.00  0.00    +0.000 A 
ATOM      6  C   UNL     1      44.767   5.295  12.728  0.00  0.00    +0.000 A 
ATOM      7  C   UNL     1      45.436   4.371  13.548  0.00  0.00    +0.000 A 
BRANCH   4   8
ATOM      8  C   UNL     1      47.524   7.912  12.268  0.00  0.00    +0.000 A 
ATOM      9  C   UNL     1      46.908   9.176  12.218  0.00  0.00    +0.000 A 
ATOM     10  C   UNL     1      47.599  10.314  11.784  0.00  0.00    +0.000 A 
ATOM     11  C   UNL     1      48.935  10.215  11.404  0.00  0.00    +0.000 A 
ATOM     12  C   UNL     1      49.566   8.979  11.449  0.00  0.00    +0.000 A 
ATOM     13 CL   UNL     1      51.223   8.848  10.995  0.00  0.00    +0.000 Cl
ATOM     14  C   UNL     1      48.871   7.840  11.863  0.00  0.00    +0.000 A 
ENDBRANCH   4   8
BRANCH   2  16
ATOM     15  C   UNL     1      47.476   3.825  16.081  0.00  0.00    +0.000 C 
ATOM     16  O   UNL     1      47.301   3.571  14.691  0.00  0.00    +0.000 OA
ENDBRANCH   2  16
ENDBRANCH   1   6
BRANCH   1  17
ATOM     17  O   UNL     1      42.765   6.301  11.851  0.00  0.00    +0.000 OA
ATOM     18  H   UNL     1      43.362   7.012  12.132  0.00  0.00    +0.000 HD
ENDBRANCH   1  17
BRANCH   1  19
ATOM     19  C   UNL     1      43.285   4.042  11.078  0.00  0.00    +0.000 C 
BRANCH  19  20
ATOM     20  O   UNL     1      43.628   4.684   9.835  0.00  0.00    +0.000 OA
BRANCH  20  21
ATOM     21  C   UNL     1      44.566   3.967   9.122  0.00  0.00    +0.000 A 
ATOM     22  C   UNL     1      44.666   2.594   9.335  0.00  0.00    +0.000 A 
ATOM     23  N   UNL     1      45.563   1.803   8.682  0.00  0.00    +0.000 NA
ATOM     24  C   UNL     1      46.362   2.469   7.797  0.00  0.00    +0.000 A 
ATOM     25  C   UNL     1      46.263   3.835   7.586  0.00  0.00    +0.000 A 
ATOM     26  N   UNL     1      45.368   4.612   8.244  0.00  0.00    +0.000 NA
BRANCH  24  27
ATOM     27  C   UNL     1      47.373   1.693   7.028  0.00  0.00    +0.000 C 
ATOM     28  N   UNL     1      48.424   2.404   6.523  0.00  0.00    +0.000 N 
ATOM     29  O   UNL     1      47.268   0.487   6.848  0.00  0.00    +0.000 OA
ATOM     30  H   UNL     1      48.494   3.403   6.685  0.00  0.00    +0.000 HD
ATOM     31  H   UNL     1      49.140   1.921   5.999  0.00  0.00    +0.000 HD
ENDBRANCH  24  27
ENDBRANCH  20  21
ENDBRANCH  19  20
ENDBRANCH   1  19
TORSDOF 8
ENDMDL
MODEL 3
REMARK VINA RESULT:    -8.441      2.457      4.405
REMARK INTER + INTRA:         -13.236
REMARK INTER:                 -12.185
REMARK INTRA:                  -1.051
REMARK UNBOUND:                -1.093
REMARK  Name = 
REMARK  9 active torsions:
REMARK  status: ('A' for Active; 'I' for Inactive)
REMARK    1  A    between atoms: C_1  and  O_2
REMARK    2  A    between atoms: O_2  and  C_3
REMARK    3  A    between atoms: C_5  and  C_6
REMARK    4  A    between atoms: C_14  and  C_15
REMARK    5  A    between atoms: C_15  and  O_16
REMARK    6  A    between atoms: C_15  and  C_17
REMARK    7  A    between atoms: C_17  and  O_18
REMARK    8  A    between atoms: O_18  and  C_19
REMARK    9  A    between atoms: C_22  and  C_23
REMARK                            x       y       z     vdW  Elec       q    Type
REMARK                         _______ _______ _______ _____ _____    ______ ____
ROOT
ATOM      1  C   UNL     1      43.770   4.759  12.467  0.00  0.00    +0.000 C 
ENDROOT
BRANCH   1   6
ATOM      2  C   UNL     1      47.236   6.412  12.392  0.00  0.00    +0.000 A 
ATOM      3  C   UNL     1      47.798   5.902  13.564  0.00  0.00    +0.000 A 
ATOM      4  C   UNL     1      47.083   5.027  14.406  0.00  0.00    +0.000 A 
ATOM      5  C   UNL     1      45.781   4.662  14.009  0.00  0.00    +0.000 A 
ATOM      6  C   UNL     1      45.195   5.147  12.825  0.00  0.00    +0.000 A 
ATOM      7  C   UNL     1      45.950   6.016  12.020  0.00  0.00    +0.000 A 
BRANCH   4   8
ATOM      8  C   UNL     1      47.678   4.537  15.675  0.00  0.00    +0.000 A 
ATOM      9  C   UNL     1      47.759   3.164  15.974  0.00  0.00    +0.000 A 
ATOM     10  C   UNL     1      48.315   2.705  17.174  0.00  0.00    +0.000 A 
ATOM     11  C   UNL     1      48.820   3.612  18.101  0.00  0.00    +0.000 A 
ATOM     12  C   UNL     1      48.755   4.973  17.827  0.00  0.00    +0.000 A 
ATOM     13 CL   UNL     1      49.389   6.104  18.960  0.00  0.00    +0.000 Cl
ATOM     14  C   UNL     1      48.182   5.432  16.639  0.00  0.00    +0.000 A 
ENDBRANCH   4   8
BRANCH   2  16
ATOM     15  C   UNL     1      49.188   7.644  11.810  0.00  0.00    +0.000 C 
ATOM     16  O   UNL     1      47.831   7.303  11.541  0.00  0.00    +0.000 OA
ENDBRANCH   2  16
ENDBRANCH   1   6
BRANCH   1  17
ATOM     17  O   UNL     1      42.860   5.612  13.171  0.00  0.00    +0.000 OA
ATOM     18  H   UNL     1      43.192   6.521  13.111  0.00  0.00    +0.000 HD
ENDBRANCH   1  17
BRANCH   1  19
ATOM     19  C   UNL     1      43.501   4.814  10.952  0.00  0.00    +0.000 C 
BRANCH  19  20
ATOM     20  O   UNL     1      43.393   3.481  10.414  0.00  0.00    +0.000 OA
BRANCH  20  21
ATOM     21  C   UNL     1      44.386   3.211   9.496  0.00  0.00    +0.000 A 
ATOM     22  C   UNL     1      44.919   4.262   8.753  0.00  0.00    +0.000 A 
ATOM     23  N   UNL     1      45.898   4.092   7.821  0.00  0.00    +0.000 NA
ATOM     24  C   UNL     1      46.318   2.801   7.673  0.00  0.00    +0.000 A 
ATOM     25  C   UNL     1      45.788   1.755   8.412  0.00  0.00    +0.000 A 
ATOM     26  N   UNL     1      44.811   1.936   9.335  0.00  0.00    +0.000 NA
BRANCH  24  27
ATOM     27  C   UNL     1      47.391   2.511   6.683  0.00  0.00    +0.000 C 
ATOM     28  N   UNL     1      47.350   3.226   5.520  0.00  0.00    +0.000 N 
ATOM     29  O   UNL     1      48.258   1.673   6.890  0.00  0.00    +0.000 OA
ATOM     30  H   UNL     1      46.624   3.918   5.368  0.00  0.00    +0.000 HD
ATOM     31  H   UNL     1      48.060   3.070   4.819  0.00  0.00    +0.000 HD
ENDBRANCH  24  27
ENDBRANCH  20  21
ENDBRANCH  19  20
ENDBRANCH   1  19
TORSDOF 8
ENDMDL
MODEL 4
REMARK VINA RESULT:    -8.153      1.825      2.376
REMARK INTER + INTRA:         -12.821
REMARK INTER:                 -11.926
REMARK INTRA:                  -0.895
REMARK UNBOUND:                -1.093
REMARK  Name = 
REMARK  9 active torsions:
REMARK  status: ('A' for Active; 'I' for Inactive)
REMARK    1  A    between atoms: C_1  and  O_2
REMARK    2  A    between atoms: O_2  and  C_3
REMARK    3  A    between atoms: C_5  and  C_6
REMARK    4  A    between atoms: C_14  and  C_15
REMARK    5  A    between atoms: C_15  and  O_16
REMARK    6  A    between atoms: C_15  and  C_17
REMARK    7  A    between atoms: C_17  and  O_18
REMARK    8  A    between atoms: O_18  and  C_19
REMARK    9  A    between atoms: C_22  and  C_23
REMARK                            x       y       z     vdW  Elec       q    Type
REMARK                         _______ _______ _______ _____ _____    ______ ____
ROOT
ATOM      1  C   UNL     1      43.736   4.520  12.723  0.00  0.00    +0.000 C 
ENDROOT
BRANCH   1   6
ATOM      2  C   UNL     1      47.095   6.376  12.867  0.00  0.00    +0.000 A 
ATOM      3  C   UNL     1      46.711   7.651  12.448  0.00  0.00    +0.000 A 
ATOM      4  C   UNL     1      45.377   7.945  12.104  0.00  0.00    +0.000 A 
ATOM      5  C   UNL     1      44.431   6.907  12.223  0.00  0.00    +0.000 A 
ATOM      6  C   UNL     1      44.786   5.616  12.658  0.00  0.00    +0.000 A 
ATOM      7  C   UNL     1      46.129   5.375  12.989  0.00  0.00    +0.000 A 
BRANCH   4   8
ATOM      8  C   UNL     1      44.997   9.293  11.610  0.00  0.00    +0.000 A 
ATOM      9  C   UNL     1      45.826  10.413  11.803  0.00  0.00    +0.000 A 
ATOM     10  C   UNL     1      45.463  11.684  11.341  0.00  0.00    +0.000 A 
ATOM     11  C   UNL     1      44.263  11.861  10.658  0.00  0.00    +0.000 A 
ATOM     12  C   UNL     1      43.430  10.769  10.451  0.00  0.00    +0.000 A 
ATOM     13 CL   UNL     1      41.950  10.974   9.594  0.00  0.00    +0.000 Cl
ATOM     14  C   UNL     1      43.782   9.505  10.929  0.00  0.00    +0.000 A 
ENDBRANCH   4   8
BRANCH   2  16
ATOM     15  C   UNL     1      49.259   6.991  13.644  0.00  0.00    +0.000 C 
ATOM     16  O   UNL     1      48.370   5.984  13.172  0.00  0.00    +0.000 OA
ENDBRANCH   2  16
ENDBRANCH   1   6
BRANCH   1  17
ATOM     17  O   UNL     1      42.459   5.107  13.000  0.00  0.00    +0.000 OA
ATOM     18  H   UNL     1      41.773   4.473  12.738  0.00  0.00    +0.000 HD
ENDBRANCH   1  17
BRANCH   1  19
ATOM     19  C   UNL     1      43.675   3.678  11.435  0.00  0.00    +0.000 C 
BRANCH  19  20
ATOM     20  O   UNL     1      43.981   4.494  10.287  0.00  0.00    +0.000 OA
BRANCH  20  21
ATOM     21  C   UNL     1      44.837   3.858   9.412  0.00  0.00    +0.000 A 
ATOM     22  C   UNL     1      44.949   2.471   9.471  0.00  0.00    +0.000 A 
ATOM     23  N   UNL     1      45.770   1.757   8.651  0.00  0.00    +0.000 NA
ATOM     24  C   UNL     1      46.478   2.513   7.763  0.00  0.00    +0.000 A 
ATOM     25  C   UNL     1      46.367   3.894   7.705  0.00  0.00    +0.000 A 
ATOM     26  N   UNL     1      45.548   4.595   8.528  0.00  0.00    +0.000 NA
BRANCH  24  27
ATOM     27  C   UNL     1      47.400   1.826   6.819  0.00  0.00    +0.000 C 
ATOM     28  N   UNL     1      48.445   2.568   6.346  0.00  0.00    +0.000 N 
ATOM     29  O   UNL     1      47.231   0.664   6.474  0.00  0.00    +0.000 OA
ATOM     30  H   UNL     1      48.570   3.530   6.645  0.00  0.00    +0.000 HD
ATOM     31  H   UNL     1      49.103   2.144   5.707  0.00  0.00    +0.000 HD
ENDBRANCH  24  27
ENDBRANCH  20  21
ENDBRANCH  19  20
ENDBRANCH   1  19
TORSDOF 8
ENDMDL
MODEL 5
REMARK VINA RESULT:    -7.671      2.156      3.450
REMARK INTER + INTRA:         -12.128
REMARK INTER:                 -11.132
REMARK INTRA:                  -0.996
REMARK UNBOUND:                -1.093
REMARK  Name = 
REMARK  9 active torsions:
REMARK  status: ('A' for Active; 'I' for Inactive)
REMARK    1  A    between atoms: C_1  and  O_2
REMARK    2  A    between atoms: O_2  and  C_3
REMARK    3  A    between atoms: C_5  and  C_6
REMARK    4  A    between atoms: C_14  and  C_15
REMARK    5  A    between atoms: C_15  and  O_16
REMARK    6  A    between atoms: C_15  and  C_17
REMARK    7  A    between atoms: C_17  and  O_18
REMARK    8  A    between atoms: O_18  and  C_19
REMARK    9  A    between atoms: C_22  and  C_23
REMARK                            x       y       z     vdW  Elec       q    Type
REMARK                         _______ _______ _______ _____ _____    ______ ____
ROOT
ATOM      1  C   UNL     1      43.838   4.409  12.791  0.00  0.00    +0.000 C 
ENDROOT
BRANCH   1   6
ATOM      2  C   UNL     1      44.927   7.902  11.625  0.00  0.00    +0.000 A 
ATOM      3  C   UNL     1      46.186   7.999  12.219  0.00  0.00    +0.000 A 
ATOM      4  C   UNL     1      46.712   6.958  13.010  0.00  0.00    +0.000 A 
ATOM      5  C   UNL     1      45.928   5.796  13.159  0.00  0.00    +0.000 A 
ATOM      6  C   UNL     1      44.662   5.664  12.558  0.00  0.00    +0.000 A 
ATOM      7  C   UNL     1      44.184   6.730  11.780  0.00  0.00    +0.000 A 
BRANCH   4   8
ATOM      8  C   UNL     1      48.030   7.101  13.678  0.00  0.00    +0.000 A 
ATOM      9  C   UNL     1      48.265   6.594  14.970  0.00  0.00    +0.000 A 
ATOM     10  C   UNL     1      49.507   6.735  15.599  0.00  0.00    +0.000 A 
ATOM     11  C   UNL     1      50.554   7.375  14.941  0.00  0.00    +0.000 A 
ATOM     12  C   UNL     1      50.348   7.879  13.664  0.00  0.00    +0.000 A 
ATOM     13 CL   UNL     1      51.640   8.660  12.835  0.00  0.00    +0.000 Cl
ATOM     14  C   UNL     1      49.103   7.757  13.043  0.00  0.00    +0.000 A 
ENDBRANCH   4   8
BRANCH   2  16
ATOM     15  C   UNL     1      44.323  10.196  11.422  0.00  0.00    +0.000 C 
ATOM     16  O   UNL     1      44.314   8.877  10.885  0.00  0.00    +0.000 OA
ENDBRANCH   2  16
ENDBRANCH   1   6
BRANCH   1  17
ATOM     17  O   UNL     1      42.447   4.732  12.684  0.00  0.00    +0.000 OA
ATOM     18  H   UNL     1      42.175   4.590  11.764  0.00  0.00    +0.000 HD
ENDBRANCH   1  17
BRANCH   1  19
ATOM     19  C   UNL     1      44.203   3.269  11.822  0.00  0.00    +0.000 C 
BRANCH  19  20
ATOM     20  O   UNL     1      43.676   3.539  10.508  0.00  0.00    +0.000 OA
BRANCH  20  21
ATOM     21  C   UNL     1      44.582   3.234   9.514  0.00  0.00    +0.000 A 
ATOM     22  C   UNL     1      45.030   4.254   8.677  0.00  0.00    +0.000 A 
ATOM     23  N   UNL     1      45.919   4.050   7.666  0.00  0.00    +0.000 NA
ATOM     24  C   UNL     1      46.340   2.757   7.537  0.00  0.00    +0.000 A 
ATOM     25  C   UNL     1      45.895   1.742   8.370  0.00  0.00    +0.000 A 
ATOM     26  N   UNL     1      45.006   1.958   9.371  0.00  0.00    +0.000 NA
BRANCH  24  27
ATOM     27  C   UNL     1      47.318   2.430   6.465  0.00  0.00    +0.000 C 
ATOM     28  N   UNL     1      47.227   3.167   5.318  0.00  0.00    +0.000 N 
ATOM     29  O   UNL     1      48.154   1.546   6.594  0.00  0.00    +0.000 OA
ATOM     30  H   UNL     1      46.529   3.898   5.231  0.00  0.00    +0.000 HD
ATOM     31  H   UNL     1      47.874   2.988   4.563  0.00  0.00    +0.000 HD
ENDBRANCH  24  27
ENDBRANCH  20  21
ENDBRANCH  19  20
ENDBRANCH   1  19
TORSDOF 8
ENDMDL
MODEL 6
REMARK VINA RESULT:    -7.261      2.199      3.499
REMARK INTER + INTRA:         -11.537
REMARK INTER:                 -10.794
REMARK INTRA:                  -0.743
REMARK UNBOUND:                -1.093
REMARK  Name = 
REMARK  9 active torsions:
REMARK  status: ('A' for Active; 'I' for Inactive)
REMARK    1  A    between atoms: C_1  and  O_2
REMARK    2  A    between atoms: O_2  and  C_3
REMARK    3  A    between atoms: C_5  and  C_6
REMARK    4  A    between atoms: C_14  and  C_15
REMARK    5  A    between atoms: C_15  and  O_16
REMARK    6  A    between atoms: C_15  and  C_17
REMARK    7  A    between atoms: C_17  and  O_18
REMARK    8  A    between atoms: O_18  and  C_19
REMARK    9  A    between atoms: C_22  and  C_23
REMARK                            x       y       z     vdW  Elec       q    Type
REMARK                         _______ _______ _______ _____ _____    ______ ____
ROOT
ATOM      1  C   UNL     1      45.356   4.986  11.707  0.00  0.00    +0.000 C 
ENDROOT
BRANCH   1   6
ATOM      2  C   UNL     1      45.439   8.779  12.301  0.00  0.00    +0.000 A 
ATOM      3  C   UNL     1      46.813   9.021  12.274  0.00  0.00    +0.000 A 
ATOM      4  C   UNL     1      47.743   7.981  12.074  0.00  0.00    +0.000 A 
ATOM      5  C   UNL     1      47.232   6.683  11.874  0.00  0.00    +0.000 A 
ATOM      6  C   UNL     1      45.851   6.412  11.879  0.00  0.00    +0.000 A 
ATOM      7  C   UNL     1      44.967   7.483  12.083  0.00  0.00    +0.000 A 
BRANCH   4   8
ATOM      8  C   UNL     1      49.203   8.249  12.101  0.00  0.00    +0.000 A 
ATOM      9  C   UNL     1      49.791   9.048  13.100  0.00  0.00    +0.000 A 
ATOM     10  C   UNL     1      51.167   9.304  13.120  0.00  0.00    +0.000 A 
ATOM     11  C   UNL     1      51.994   8.750  12.146  0.00  0.00    +0.000 A 
ATOM     12  C   UNL     1      51.437   7.955  11.153  0.00  0.00    +0.000 A 
ATOM     13 CL   UNL     1      52.452   7.253   9.951  0.00  0.00    +0.000 Cl
ATOM     14  C   UNL     1      50.062   7.716  11.120  0.00  0.00    +0.000 A 
ENDBRANCH   4   8
BRANCH   2  16
ATOM     15  C   UNL     1      43.893  10.350  11.402  0.00  0.00    +0.000 C 
ATOM     16  O   UNL     1      44.466   9.712  12.538  0.00  0.00    +0.000 OA
ENDBRANCH   2  16
ENDBRANCH   1   6
BRANCH   1  17
ATOM     17  O   UNL     1      45.571   4.262  12.923  0.00  0.00    +0.000 OA
ATOM     18  H   UNL     1      46.523   4.265  13.111  0.00  0.00    +0.000 HD
ENDBRANCH   1  17
BRANCH   1  19
ATOM     19  C   UNL     1      43.875   4.916  11.292  0.00  0.00    +0.000 C 
BRANCH  19  20
ATOM     20  O   UNL     1      43.752   4.979   9.857  0.00  0.00    +0.000 OA
BRANCH  20  21
ATOM     21  C   UNL     1      44.589   4.084   9.225  0.00  0.00    +0.000 A 
ATOM     22  C   UNL     1      44.445   2.725   9.493  0.00  0.00    +0.000 A 
ATOM     23  N   UNL     1      45.228   1.767   8.921  0.00  0.00    +0.000 NA
ATOM     24  C   UNL     1      46.170   2.250   8.059  0.00  0.00    +0.000 A 
ATOM     25  C   UNL     1      46.314   3.602   7.792  0.00  0.00    +0.000 A 
ATOM     26  N   UNL     1      45.530   4.547   8.370  0.00  0.00    +0.000 NA
BRANCH  24  27
ATOM     27  C   UNL     1      47.072   1.283   7.376  0.00  0.00    +0.000 C 
ATOM     28  N   UNL     1      48.131   1.818   6.700  0.00  0.00    +0.000 N 
ATOM     29  O   UNL     1      46.876   0.075   7.409  0.00  0.00    +0.000 OA
ATOM     30  H   UNL     1      48.278   2.821   6.686  0.00  0.00    +0.000 HD
ATOM     31  H   UNL     1      48.777   1.202   6.226  0.00  0.00    +0.000 HD
ENDBRANCH  24  27
ENDBRANCH  20  21
ENDBRANCH  19  20
ENDBRANCH   1  19
TORSDOF 8
ENDMDL
MODEL 7
REMARK VINA RESULT:    -7.146      4.333      7.733
REMARK INTER + INTRA:         -11.373
REMARK INTER:                 -10.252
REMARK INTRA:                  -1.121
REMARK UNBOUND:                -1.093
REMARK  Name = 
REMARK  9 active torsions:
REMARK  status: ('A' for Active; 'I' for Inactive)
REMARK    1  A    between atoms: C_1  and  O_2
REMARK    2  A    between atoms: O_2  and  C_3
REMARK    3  A    between atoms: C_5  and  C_6
REMARK    4  A    between atoms: C_14  and  C_15
REMARK    5  A    between atoms: C_15  and  O_16
REMARK    6  A    between atoms: C_15  and  C_17
REMARK    7  A    between atoms: C_17  and  O_18
REMARK    8  A    between atoms: O_18  and  C_19
REMARK    9  A    between atoms: C_22  and  C_23
REMARK                            x       y       z     vdW  Elec       q    Type
REMARK                         _______ _______ _______ _____ _____    ______ ____
ROOT
ATOM      1  C   UNL     1      49.044   8.420  12.433  0.00  0.00    +0.000 C 
ENDROOT
BRANCH   1   6
ATOM      2  C   UNL     1      45.284   9.120  12.092  0.00  0.00    +0.000 A 
ATOM      3  C   UNL     1      44.823   7.882  11.642  0.00  0.00    +0.000 A 
ATOM      4  C   UNL     1      45.701   6.801  11.430  0.00  0.00    +0.000 A 
ATOM      5  C   UNL     1      47.066   7.006  11.715  0.00  0.00    +0.000 A 
ATOM      6  C   UNL     1      47.556   8.238  12.186  0.00  0.00    +0.000 A 
ATOM      7  C   UNL     1      46.639   9.284  12.381  0.00  0.00    +0.000 A 
BRANCH   4   8
ATOM      8  C   UNL     1      45.201   5.507  10.900  0.00  0.00    +0.000 A 
ATOM      9  C   UNL     1      44.435   4.629  11.689  0.00  0.00    +0.000 A 
ATOM     10  C   UNL     1      43.970   3.407  11.188  0.00  0.00    +0.000 A 
ATOM     11  C   UNL     1      44.248   3.040   9.874  0.00  0.00    +0.000 A 
ATOM     12  C   UNL     1      44.999   3.892   9.074  0.00  0.00    +0.000 A 
ATOM     13 CL   UNL     1      45.338   3.455   7.443  0.00  0.00    +0.000 Cl
ATOM     14  C   UNL     1      45.481   5.102   9.580  0.00  0.00    +0.000 A 
ENDBRANCH   4   8
BRANCH   2  16
ATOM     15  C   UNL     1      43.544  10.528  11.279  0.00  0.00    +0.000 C 
ATOM     16  O   UNL     1      44.518  10.240  12.278  0.00  0.00    +0.000 OA
ENDBRANCH   2  16
ENDBRANCH   1   6
BRANCH   1  17
ATOM     17  O   UNL     1      49.279   9.738  12.943  0.00  0.00    +0.000 OA
ATOM     18  H   UNL     1      49.031  10.375  12.255  0.00  0.00    +0.000 HD
ENDBRANCH   1  17
BRANCH   1  19
ATOM     19  C   UNL     1      49.623   7.360  13.388  0.00  0.00    +0.000 C 
BRANCH  19  20
ATOM     20  O   UNL     1      49.353   7.718  14.758  0.00  0.00    +0.000 OA
BRANCH  20  21
ATOM     21  C   UNL     1      48.888   6.647  15.492  0.00  0.00    +0.000 A 
ATOM     22  C   UNL     1      49.312   6.502  16.811  0.00  0.00    +0.000 A 
ATOM     23  N   UNL     1      48.910   5.476  17.612  0.00  0.00    +0.000 NA
ATOM     24  C   UNL     1      48.055   4.595  17.015  0.00  0.00    +0.000 A 
ATOM     25  C   UNL     1      47.634   4.739  15.702  0.00  0.00    +0.000 A 
ATOM     26  N   UNL     1      48.043   5.764  14.914  0.00  0.00    +0.000 NA
BRANCH  24  27
ATOM     27  C   UNL     1      47.553   3.441  17.809  0.00  0.00    +0.000 C 
ATOM     28  N   UNL     1      48.273   3.115  18.923  0.00  0.00    +0.000 N 
ATOM     29  O   UNL     1      46.557   2.810  17.481  0.00  0.00    +0.000 OA
ATOM     30  H   UNL     1      49.095   3.651  19.179  0.00  0.00    +0.000 HD
ATOM     31  H   UNL     1      47.969   2.343  19.499  0.00  0.00    +0.000 HD
ENDBRANCH  24  27
ENDBRANCH  20  21
ENDBRANCH  19  20
ENDBRANCH   1  19
TORSDOF 8
ENDMDL
MODEL 8
REMARK VINA RESULT:    -6.621      4.793      7.147
REMARK INTER + INTRA:         -10.617
REMARK INTER:                  -9.842
REMARK INTRA:                  -0.776
REMARK UNBOUND:                -1.093
REMARK  Name = 
REMARK  9 active torsions:
REMARK  status: ('A' for Active; 'I' for Inactive)
REMARK    1  A    between atoms: C_1  and  O_2
REMARK    2  A    between atoms: O_2  and  C_3
REMARK    3  A    between atoms: C_5  and  C_6
REMARK    4  A    between atoms: C_14  and  C_15
REMARK    5  A    between atoms: C_15  and  O_16
REMARK    6  A    between atoms: C_15  and  C_17
REMARK    7  A    between atoms: C_17  and  O_18
REMARK    8  A    between atoms: O_18  and  C_19
REMARK    9  A    between atoms: C_22  and  C_23
REMARK                            x       y       z     vdW  Elec       q    Type
REMARK                         _______ _______ _______ _____ _____    ______ ____
ROOT
ATOM      1  C   UNL     1      47.542   3.356  16.929  0.00  0.00    +0.000 C 
ENDROOT
BRANCH   1   6
ATOM      2  C   UNL     1      51.130   2.057  17.360  0.00  0.00    +0.000 A 
ATOM      3  C   UNL     1      51.778   3.210  17.807  0.00  0.00    +0.000 A 
ATOM      4  C   UNL     1      51.087   4.427  17.974  0.00  0.00    +0.000 A 
ATOM      5  C   UNL     1      49.705   4.434  17.696  0.00  0.00    +0.000 A 
ATOM      6  C   UNL     1      49.024   3.282  17.260  0.00  0.00    +0.000 A 
ATOM      7  C   UNL     1      49.758   2.095  17.111  0.00  0.00    +0.000 A 
BRANCH   4   8
ATOM      8  C   UNL     1      51.803   5.656  18.400  0.00  0.00    +0.000 A 
ATOM      9  C   UNL     1      52.335   6.565  17.466  0.00  0.00    +0.000 A 
ATOM     10  C   UNL     1      53.014   7.721  17.871  0.00  0.00    +0.000 A 
ATOM     11  C   UNL     1      53.164   8.004  19.225  0.00  0.00    +0.000 A 
ATOM     12  C   UNL     1      52.644   7.124  20.166  0.00  0.00    +0.000 A 
ATOM     13 CL   UNL     1      52.810   7.471  21.845  0.00  0.00    +0.000 Cl
ATOM     14  C   UNL     1      51.983   5.961  19.763  0.00  0.00    +0.000 A 
ENDBRANCH   4   8
BRANCH   2  16
ATOM     15  C   UNL     1      53.102   0.726  17.464  0.00  0.00    +0.000 C 
ATOM     16  O   UNL     1      51.725   0.848  17.120  0.00  0.00    +0.000 OA
ENDBRANCH   2  16
ENDBRANCH   1   6
BRANCH   1  17
ATOM     17  O   UNL     1      46.824   3.810  18.082  0.00  0.00    +0.000 OA
ATOM     18  H   UNL     1      47.335   4.526  18.492  0.00  0.00    +0.000 HD
ENDBRANCH   1  17
BRANCH   1  19
ATOM     19  C   UNL     1      47.248   4.261  15.719  0.00  0.00    +0.000 C 
BRANCH  19  20
ATOM     20  O   UNL     1      47.369   3.514  14.492  0.00  0.00    +0.000 OA
BRANCH  20  21
ATOM     21  C   UNL     1      46.416   3.880  13.565  0.00  0.00    +0.000 A 
ATOM     22  C   UNL     1      46.068   5.224  13.453  0.00  0.00    +0.000 A 
ATOM     23  N   UNL     1      45.136   5.680  12.571  0.00  0.00    +0.000 NA
ATOM     24  C   UNL     1      44.566   4.708  11.800  0.00  0.00    +0.000 A 
ATOM     25  C   UNL     1      44.911   3.370  11.912  0.00  0.00    +0.000 A 
ATOM     26  N   UNL     1      45.839   2.928  12.796  0.00  0.00    +0.000 NA
BRANCH  24  27
ATOM     27  C   UNL     1      43.538   5.105  10.800  0.00  0.00    +0.000 C 
ATOM     28  N   UNL     1      43.769   4.718   9.510  0.00  0.00    +0.000 N 
ATOM     29  O   UNL     1      42.544   5.748  11.108  0.00  0.00    +0.000 OA
ATOM     30  H   UNL     1      44.599   4.183   9.275  0.00  0.00    +0.000 HD
ATOM     31  H   UNL     1      43.097   4.957   8.795  0.00  0.00    +0.000 HD
ENDBRANCH  24  27
ENDBRANCH  20  21
ENDBRANCH  19  20
ENDBRANCH   1  19
TORSDOF 8
ENDMDL
MODEL 9
REMARK VINA RESULT:    -6.424      4.494      7.304
REMARK INTER + INTRA:         -10.334
REMARK INTER:                  -9.429
REMARK INTRA:                  -0.905
REMARK UNBOUND:                -1.093
REMARK  Name = 
REMARK  9 active torsions:
REMARK  status: ('A' for Active; 'I' for Inactive)
REMARK    1  A    between atoms: C_1  and  O_2
REMARK    2  A    between atoms: O_2  and  C_3
REMARK    3  A    between atoms: C_5  and  C_6
REMARK    4  A    between atoms: C_14  and  C_15
REMARK    5  A    between atoms: C_15  and  O_16
REMARK    6  A    between atoms: C_15  and  C_17
REMARK    7  A    between atoms: C_17  and  O_18
REMARK    8  A    between atoms: O_18  and  C_19
REMARK    9  A    between atoms: C_22  and  C_23
REMARK                            x       y       z     vdW  Elec       q    Type
REMARK                         _______ _______ _______ _____ _____    ______ ____
ROOT
ATOM      1  C   UNL     1      47.014   4.141  15.071  0.00  0.00    +0.000 C 
ENDROOT
BRANCH   1   6
ATOM      2  C   UNL     1      45.319   4.973  11.728  0.00  0.00    +0.000 A 
ATOM      3  C   UNL     1      45.888   6.215  11.444  0.00  0.00    +0.000 A 
ATOM      4  C   UNL     1      46.818   6.818  12.314  0.00  0.00    +0.000 A 
ATOM      5  C   UNL     1      47.176   6.106  13.477  0.00  0.00    +0.000 A 
ATOM      6  C   UNL     1      46.630   4.844  13.780  0.00  0.00    +0.000 A 
ATOM      7  C   UNL     1      45.708   4.288  12.880  0.00  0.00    +0.000 A 
BRANCH   4   8
ATOM      8  C   UNL     1      47.373   8.164  12.023  0.00  0.00    +0.000 A 
ATOM      9  C   UNL     1      46.587   9.327  12.123  0.00  0.00    +0.000 A 
ATOM     10  C   UNL     1      47.112  10.594  11.841  0.00  0.00    +0.000 A 
ATOM     11  C   UNL     1      48.447  10.729  11.467  0.00  0.00    +0.000 A 
ATOM     12  C   UNL     1      49.243   9.596  11.366  0.00  0.00    +0.000 A 
ATOM     13 CL   UNL     1      50.899   9.753  10.918  0.00  0.00    +0.000 Cl
ATOM     14  C   UNL     1      48.715   8.330  11.627  0.00  0.00    +0.000 A 
ENDBRANCH   4   8
BRANCH   2  16
ATOM     15  C   UNL     1      44.548   4.366   9.558  0.00  0.00    +0.000 C 
ATOM     16  O   UNL     1      44.373   4.335  10.971  0.00  0.00    +0.000 OA
ENDBRANCH   2  16
ENDBRANCH   1   6
BRANCH   1  17
ATOM     17  O   UNL     1      47.655   2.899  14.759  0.00  0.00    +0.000 OA
ATOM     18  H   UNL     1      47.665   2.801  13.793  0.00  0.00    +0.000 HD
ENDBRANCH   1  17
BRANCH   1  19
ATOM     19  C   UNL     1      47.917   5.003  15.973  0.00  0.00    +0.000 C 
BRANCH  19  20
ATOM     20  O   UNL     1      48.053   4.397  17.274  0.00  0.00    +0.000 OA
BRANCH  20  21
ATOM     21  C   UNL     1      49.293   3.822  17.451  0.00  0.00    +0.000 A 
ATOM     22  C   UNL     1      50.292   4.559  18.083  0.00  0.00    +0.000 A 
ATOM     23  N   UNL     1      51.548   4.077  18.298  0.00  0.00    +0.000 NA
ATOM     24  C   UNL     1      51.751   2.806  17.843  0.00  0.00    +0.000 A 
ATOM     25  C   UNL     1      50.757   2.072  17.214  0.00  0.00    +0.000 A 
ATOM     26  N   UNL     1      49.511   2.564  17.002  0.00  0.00    +0.000 NA
BRANCH  24  27
ATOM     27  C   UNL     1      53.090   2.186  18.036  0.00  0.00    +0.000 C 
ATOM     28  N   UNL     1      54.167   2.959  17.710  0.00  0.00    +0.000 N 
ATOM     29  O   UNL     1      53.223   1.044  18.455  0.00  0.00    +0.000 OA
ATOM     30  H   UNL     1      54.036   3.905  17.366  0.00  0.00    +0.000 HD
ATOM     31  H   UNL     1      55.098   2.586  17.830  0.00  0.00    +0.000 HD
ENDBRANCH  24  27
ENDBRANCH  20  21
ENDBRANCH  19  20
ENDBRANCH   1  19
TORSDOF 8
ENDMDL
