MODEL 1
REMARK VINA RESULT:    -8.364      0.000      0.000
REMARK INTER + INTRA:         -13.634
REMARK INTER:                 -12.521
REMARK INTRA:                  -1.114
REMARK UNBOUND:                -1.114
REMARK  Name = 
REMARK  9 active torsions:
REMARK  status: ('A' for Active; 'I' for Inactive)
REMARK    1  A    between atoms: C_2  and  O_3
REMARK    2  A    between atoms: C_2  and  C_22
REMARK    3  A    between atoms: O_3  and  C_4
REMARK    4  A    between atoms: C_4  and  C_5
REMARK    5  A    between atoms: C_9  and  C_10
REMARK    6  A    between atoms: C_10  and  N_11
REMARK    7  A    between atoms: N_11  and  C_12
REMARK    8  A    between atoms: C_12  and  C_13
REMARK    9  A    between atoms: C_13  and  O_14
REMARK                            x       y       z     vdW  Elec       q    Type
REMARK                         _______ _______ _______ _____ _____    ______ ____
ROOT
ATOM      1  C   UNL     1      47.250   5.601  14.133  0.00  0.00    +0.000 A 
ATOM      2  C   UNL     1      48.297   6.480  13.818  0.00  0.00    +0.000 A 
ATOM      3  C   UNL     1      48.174   7.369  12.754  0.00  0.00    +0.000 A 
ATOM      4  C   UNL     1      47.032   7.349  11.957  0.00  0.00    +0.000 A 
ATOM      5  C   UNL     1      46.022   6.400  12.179  0.00  0.00    +0.000 A 
ATOM      6  C   UNL     1      46.114   5.563  13.305  0.00  0.00    +0.000 A 
ENDROOT
BRANCH   1   7
ATOM      7  C   UNL     1      47.369   4.704  15.338  0.00  0.00    +0.000 C 
BRANCH   7   8
ATOM      8  O   UNL     1      48.595   4.947  16.035  0.00  0.00    +0.000 OA
BRANCH   8  10
ATOM      9  O   UNL     1      47.659   4.315  18.023  0.00  0.00    +0.000 OA
ATOM     10  C   UNL     1      48.641   4.521  17.321  0.00  0.00    +0.000 C 
BRANCH  10  11
ATOM     11  C   UNL     1      50.004   4.269  17.778  0.00  0.00    +0.000 A 
ATOM     12  C   UNL     1      50.724   5.241  18.455  0.00  0.00    +0.000 A 
ATOM     13  S   UNL     1      52.268   4.711  18.952  0.00  0.00    +0.000 S 
ATOM     14  C   UNL     1      52.029   3.177  18.251  0.00  0.00    +0.000 A 
ATOM     15  N   UNL     1      52.989   2.216  18.326  0.00  0.00    +0.000 NA
ATOM     16  C   UNL     1      52.673   1.104  17.750  0.00  0.00    +0.000 A 
ATOM     17  N   UNL     1      51.491   0.870  17.095  0.00  0.00    +0.000 N 
ATOM     18  C   UNL     1      50.526   1.837  16.918  0.00  0.00    +0.000 A 
ATOM     19  O   UNL     1      49.572   1.642  16.174  0.00  0.00    +0.000 OA
ATOM     20  C   UNL     1      50.799   3.077  17.626  0.00  0.00    +0.000 A 
ATOM     21  H   UNL     1      51.329  -0.004  16.618  0.00  0.00    +0.000 HD
ENDBRANCH  10  11
ENDBRANCH   8  10
ENDBRANCH   7   8
ENDBRANCH   1   7
BRANCH   5  22
ATOM     22  C   UNL     1      45.032   6.120  11.067  0.00  0.00    +0.000 C 
BRANCH  22  23
ATOM     23  N   UNL     1      44.599   4.747  10.816  0.00  0.00    +0.000 N 
ATOM     24  C   UNL     1      45.011   4.224   9.560  0.00  0.00    +0.000 A 
ATOM     25  C   UNL     1      45.907   4.883   8.694  0.00  0.00    +0.000 A 
ATOM     26  N   UNL     1      46.355   4.399   7.505  0.00  0.00    +0.000 NA
ATOM     27  C   UNL     1      45.884   3.185   7.180  0.00  0.00    +0.000 A 
ATOM     28  C   UNL     1      44.998   2.510   7.995  0.00  0.00    +0.000 A 
ATOM     29  N   UNL     1      44.551   3.011   9.175  0.00  0.00    +0.000 NA
BRANCH  23  30
ATOM     30  C   UNL     1      43.225   4.343  11.171  0.00  0.00    +0.000 C 
BRANCH  30  31
ATOM     31  C   UNL     1      42.448   5.474  11.863  0.00  0.00    +0.000 C 
BRANCH  31  32
ATOM     32  O   UNL     1      42.530   5.338  13.284  0.00  0.00    +0.000 OA
ATOM     33  H   UNL     1      43.240   5.937  13.575  0.00  0.00    +0.000 HD
ENDBRANCH  31  32
ENDBRANCH  30  31
ENDBRANCH  23  30
ENDBRANCH  22  23
ENDBRANCH   5  22
TORSDOF 9
ENDMDL
MODEL 2
REMARK VINA RESULT:    -7.695      2.226      2.941
REMARK INTER + INTRA:         -12.633
REMARK INTER:                 -11.582
REMARK INTRA:                  -1.051
REMARK UNBOUND:                -1.114
REMARK  Name = 
REMARK  9 active torsions:
REMARK  status: ('A' for Active; 'I' for Inactive)
REMARK    1  A    between atoms: C_2  and  O_3
REMARK    2  A    between atoms: C_2  and  C_22
REMARK    3  A    between atoms: O_3  and  C_4
REMARK    4  A    between atoms: C_4  and  C_5
REMARK    5  A    between atoms: C_9  and  C_10
REMARK    6  A    between atoms: C_10  and  N_11
REMARK    7  A    between atoms: N_11  and  C_12
REMARK    8  A    between atoms: C_12  and  C_13
REMARK    9  A    between atoms: C_13  and  O_14
REMARK                            x       y       z     vdW  Elec       q    Type
REMARK                         _______ _______ _______ _____ _____    ______ ____
ROOT
ATOM      1  C   UNL     1      47.587   7.699  12.249  0.00  0.00    +0.000 A 
ATOM      2  C   UNL     1      47.169   9.036  12.309  0.00  0.00    +0.000 A 
ATOM      3  C   UNL     1      45.833   9.367  12.101  0.00  0.00    +0.000 A 
ATOM      4  C   UNL     1      44.913   8.374  11.771  0.00  0.00    +0.000 A 
ATOM      5  C   UNL     1      45.328   7.046  11.589  0.00  0.00    +0.000 A 
ATOM      6  C   UNL     1      46.660   6.706  11.884  0.00  0.00    +0.000 A 
ENDROOT
BRANCH   1   7
ATOM      7  C   UNL     1      49.021   7.354  12.558  0.00  0.00    +0.000 C 
BRANCH   7   8
ATOM      8  O   UNL     1      49.103   6.486  13.693  0.00  0.00    +0.000 OA
BRANCH   8  10
ATOM      9  O   UNL     1      48.774   8.268  15.087  0.00  0.00    +0.000 OA
ATOM     10  C   UNL     1      49.048   7.088  14.906  0.00  0.00    +0.000 C 
BRANCH  10  11
ATOM     11  C   UNL     1      49.291   6.158  16.004  0.00  0.00    +0.000 A 
ATOM     12  C   UNL     1      50.412   6.280  16.811  0.00  0.00    +0.000 A 
ATOM     13  S   UNL     1      50.464   5.129  18.070  0.00  0.00    +0.000 S 
ATOM     14  C   UNL     1      49.005   4.416  17.553  0.00  0.00    +0.000 A 
ATOM     15  N   UNL     1      48.470   3.357  18.218  0.00  0.00    +0.000 NA
ATOM     16  C   UNL     1      47.365   2.918  17.716  0.00  0.00    +0.000 A 
ATOM     17  N   UNL     1      46.752   3.433  16.602  0.00  0.00    +0.000 N 
ATOM     18  C   UNL     1      47.299   4.447  15.846  0.00  0.00    +0.000 A 
ATOM     19  O   UNL     1      46.814   4.750  14.762  0.00  0.00    +0.000 OA
ATOM     20  C   UNL     1      48.497   5.032  16.423  0.00  0.00    +0.000 A 
ATOM     21  H   UNL     1      45.918   3.007  16.228  0.00  0.00    +0.000 HD
ENDBRANCH  10  11
ENDBRANCH   8  10
ENDBRANCH   7   8
ENDBRANCH   1   7
BRANCH   5  22
ATOM     22  C   UNL     1      44.424   6.100  10.826  0.00  0.00    +0.000 C 
BRANCH  22  23
ATOM     23  N   UNL     1      44.567   4.658  11.011  0.00  0.00    +0.000 N 
ATOM     24  C   UNL     1      45.034   3.964   9.863  0.00  0.00    +0.000 A 
ATOM     25  C   UNL     1      45.496   4.605   8.695  0.00  0.00    +0.000 A 
ATOM     26  N   UNL     1      45.986   3.977   7.592  0.00  0.00    +0.000 NA
ATOM     27  C   UNL     1      46.023   2.638   7.678  0.00  0.00    +0.000 A 
ATOM     28  C   UNL     1      45.572   1.972   8.799  0.00  0.00    +0.000 A 
ATOM     29  N   UNL     1      45.075   2.611   9.889  0.00  0.00    +0.000 NA
BRANCH  23  30
ATOM     30  C   UNL     1      43.518   3.912  11.733  0.00  0.00    +0.000 C 
BRANCH  30  31
ATOM     31  C   UNL     1      43.461   4.285  13.222  0.00  0.00    +0.000 C 
BRANCH  31  32
ATOM     32  O   UNL     1      42.570   5.385  13.427  0.00  0.00    +0.000 OA
ATOM     33  H   UNL     1      42.987   6.156  13.003  0.00  0.00    +0.000 HD
ENDBRANCH  31  32
ENDBRANCH  30  31
ENDBRANCH  23  30
ENDBRANCH  22  23
ENDBRANCH   5  22
TORSDOF 9
ENDMDL
MODEL 3
REMARK VINA RESULT:    -7.332      2.400      3.099
REMARK INTER + INTRA:         -12.089
REMARK INTER:                 -10.841
REMARK INTRA:                  -1.248
REMARK UNBOUND:                -1.114
REMARK  Name = 
REMARK  9 active torsions:
REMARK  status: ('A' for Active; 'I' for Inactive)
REMARK    1  A    between atoms: C_2  and  O_3
REMARK    2  A    between atoms: C_2  and  C_22
REMARK    3  A    between atoms: O_3  and  C_4
REMARK    4  A    between atoms: C_4  and  C_5
REMARK    5  A    between atoms: C_9  and  C_10
REMARK    6  A    between atoms: C_10  and  N_11
REMARK    7  A    between atoms: N_11  and  C_12
REMARK    8  A    between atoms: C_12  and  C_13
REMARK    9  A    between atoms: C_13  and  O_14
REMARK                            x       y       z     vdW  Elec       q    Type
REMARK                         _______ _______ _______ _____ _____    ______ ____
ROOT
ATOM      1  C   UNL     1      47.369   6.975  12.730  0.00  0.00    +0.000 A 
ATOM      2  C   UNL     1      46.930   8.293  12.926  0.00  0.00    +0.000 A 
ATOM      3  C   UNL     1      45.642   8.669  12.559  0.00  0.00    +0.000 A 
ATOM      4  C   UNL     1      44.799   7.751  11.936  0.00  0.00    +0.000 A 
ATOM      5  C   UNL     1      45.254   6.461  11.621  0.00  0.00    +0.000 A 
ATOM      6  C   UNL     1      46.524   6.062  12.071  0.00  0.00    +0.000 A 
ENDROOT
BRANCH   1   7
ATOM      7  C   UNL     1      48.738   6.567  13.209  0.00  0.00    +0.000 C 
BRANCH   7   8
ATOM      8  O   UNL     1      48.708   6.212  14.594  0.00  0.00    +0.000 OA
BRANCH   8  10
ATOM      9  O   UNL     1      50.606   7.412  15.025  0.00  0.00    +0.000 OA
ATOM     10  C   UNL     1      49.564   6.888  15.399  0.00  0.00    +0.000 C 
BRANCH  10  11
ATOM     11  C   UNL     1      49.082   6.984  16.774  0.00  0.00    +0.000 A 
ATOM     12  C   UNL     1      48.552   8.167  17.265  0.00  0.00    +0.000 A 
ATOM     13  S   UNL     1      47.993   8.037  18.872  0.00  0.00    +0.000 S 
ATOM     14  C   UNL     1      48.471   6.404  18.966  0.00  0.00    +0.000 A 
ATOM     15  N   UNL     1      48.267   5.679  20.098  0.00  0.00    +0.000 NA
ATOM     16  C   UNL     1      48.681   4.458  20.029  0.00  0.00    +0.000 A 
ATOM     17  N   UNL     1      49.290   3.899  18.935  0.00  0.00    +0.000 N 
ATOM     18  C   UNL     1      49.596   4.616  17.798  0.00  0.00    +0.000 A 
ATOM     19  O   UNL     1      50.301   4.128  16.922  0.00  0.00    +0.000 OA
ATOM     20  C   UNL     1      49.070   5.970  17.797  0.00  0.00    +0.000 A 
ATOM     21  H   UNL     1      49.640   2.954  18.965  0.00  0.00    +0.000 HD
ENDBRANCH  10  11
ENDBRANCH   8  10
ENDBRANCH   7   8
ENDBRANCH   1   7
BRANCH   5  22
ATOM     22  C   UNL     1      44.496   5.656  10.587  0.00  0.00    +0.000 C 
BRANCH  22  23
ATOM     23  N   UNL     1      44.670   4.207  10.530  0.00  0.00    +0.000 N 
ATOM     24  C   UNL     1      45.294   3.737   9.344  0.00  0.00    +0.000 A 
ATOM     25  C   UNL     1      45.865   4.585   8.372  0.00  0.00    +0.000 A 
ATOM     26  N   UNL     1      46.504   4.174   7.244  0.00  0.00    +0.000 NA
ATOM     27  C   UNL     1      46.581   2.842   7.096  0.00  0.00    +0.000 A 
ATOM     28  C   UNL     1      46.027   1.978   8.018  0.00  0.00    +0.000 A 
ATOM     29  N   UNL     1      45.382   2.403   9.135  0.00  0.00    +0.000 NA
BRANCH  23  30
ATOM     30  C   UNL     1      43.572   3.327  10.975  0.00  0.00    +0.000 C 
BRANCH  30  31
ATOM     31  C   UNL     1      43.715   2.920  12.450  0.00  0.00    +0.000 C 
BRANCH  31  32
ATOM     32  O   UNL     1      45.076   2.599  12.749  0.00  0.00    +0.000 OA
ATOM     33  H   UNL     1      45.244   2.932  13.648  0.00  0.00    +0.000 HD
ENDBRANCH  31  32
ENDBRANCH  30  31
ENDBRANCH  23  30
ENDBRANCH  22  23
ENDBRANCH   5  22
TORSDOF 9
ENDMDL
MODEL 4
REMARK VINA RESULT:    -7.116      1.676      2.194
REMARK INTER + INTRA:         -11.766
REMARK INTER:                 -10.603
REMARK INTRA:                  -1.162
REMARK UNBOUND:                -1.114
REMARK  Name = 
REMARK  9 active torsions:
REMARK  status: ('A' for Active; 'I' for Inactive)
REMARK    1  A    between atoms: C_2  and  O_3
REMARK    2  A    between atoms: C_2  and  C_22
REMARK    3  A    between atoms: O_3  and  C_4
REMARK    4  A    between atoms: C_4  and  C_5
REMARK    5  A    between atoms: C_9  and  C_10
REMARK    6  A    between atoms: C_10  and  N_11
REMARK    7  A    between atoms: N_11  and  C_12
REMARK    8  A    between atoms: C_12  and  C_13
REMARK    9  A    between atoms: C_13  and  O_14
REMARK                            x       y       z     vdW  Elec       q    Type
REMARK                         _______ _______ _______ _____ _____    ______ ____
ROOT
ATOM      1  C   UNL     1      47.583   7.376  13.041  0.00  0.00    +0.000 A 
ATOM      2  C   UNL     1      47.193   8.705  13.257  0.00  0.00    +0.000 A 
ATOM      3  C   UNL     1      45.920   9.134  12.896  0.00  0.00    +0.000 A 
ATOM      4  C   UNL     1      45.045   8.257  12.258  0.00  0.00    +0.000 A 
ATOM      5  C   UNL     1      45.452   6.957  11.924  0.00  0.00    +0.000 A 
ATOM      6  C   UNL     1      46.707   6.505  12.368  0.00  0.00    +0.000 A 
ENDROOT
BRANCH   1   7
ATOM      7  C   UNL     1      48.937   6.911  13.514  0.00  0.00    +0.000 C 
BRANCH   7   8
ATOM      8  O   UNL     1      48.837   6.263  14.786  0.00  0.00    +0.000 OA
BRANCH   8  10
ATOM      9  O   UNL     1      48.655   7.829  16.441  0.00  0.00    +0.000 OA
ATOM     10  C   UNL     1      49.294   6.968  15.849  0.00  0.00    +0.000 C 
BRANCH  10  11
ATOM     11  C   UNL     1      50.628   6.549  16.267  0.00  0.00    +0.000 A 
ATOM     12  C   UNL     1      51.754   7.261  15.884  0.00  0.00    +0.000 A 
ATOM     13  S   UNL     1      53.201   6.632  16.537  0.00  0.00    +0.000 S 
ATOM     14  C   UNL     1      52.365   5.374  17.325  0.00  0.00    +0.000 A 
ATOM     15  N   UNL     1      53.028   4.461  18.084  0.00  0.00    +0.000 NA
ATOM     16  C   UNL     1      52.270   3.564  18.620  0.00  0.00    +0.000 A 
ATOM     17  N   UNL     1      50.910   3.489  18.456  0.00  0.00    +0.000 N 
ATOM     18  C   UNL     1      50.206   4.338  17.629  0.00  0.00    +0.000 A 
ATOM     19  O   UNL     1      49.027   4.123  17.369  0.00  0.00    +0.000 OA
ATOM     20  C   UNL     1      51.005   5.418  17.076  0.00  0.00    +0.000 A 
ATOM     21  H   UNL     1      50.382   2.730  18.858  0.00  0.00    +0.000 HD
ENDBRANCH  10  11
ENDBRANCH   8  10
ENDBRANCH   7   8
ENDBRANCH   1   7
BRANCH   5  22
ATOM     22  C   UNL     1      44.666   6.196  10.877  0.00  0.00    +0.000 C 
BRANCH  22  23
ATOM     23  N   UNL     1      44.550   4.743  10.976  0.00  0.00    +0.000 N 
ATOM     24  C   UNL     1      45.019   4.038   9.836  0.00  0.00    +0.000 A 
ATOM     25  C   UNL     1      45.706   4.650   8.766  0.00  0.00    +0.000 A 
ATOM     26  N   UNL     1      46.204   4.005   7.677  0.00  0.00    +0.000 NA
ATOM     27  C   UNL     1      46.011   2.676   7.675  0.00  0.00    +0.000 A 
ATOM     28  C   UNL     1      45.337   2.040   8.697  0.00  0.00    +0.000 A 
ATOM     29  N   UNL     1      44.835   2.699   9.773  0.00  0.00    +0.000 NA
BRANCH  23  30
ATOM     30  C   UNL     1      43.320   4.150  11.537  0.00  0.00    +0.000 C 
BRANCH  30  31
ATOM     31  C   UNL     1      43.288   4.223  13.072  0.00  0.00    +0.000 C 
BRANCH  31  32
ATOM     32  O   UNL     1      42.584   5.390  13.502  0.00  0.00    +0.000 OA
ATOM     33  H   UNL     1      42.912   6.124  12.952  0.00  0.00    +0.000 HD
ENDBRANCH  31  32
ENDBRANCH  30  31
ENDBRANCH  23  30
ENDBRANCH  22  23
ENDBRANCH   5  22
TORSDOF 9
ENDMDL
MODEL 5
REMARK VINA RESULT:    -6.860      2.895      3.753
REMARK INTER + INTRA:         -11.382
REMARK INTER:                  -9.756
REMARK INTRA:                  -1.627
REMARK UNBOUND:                -1.114
REMARK  Name = 
REMARK  9 active torsions:
REMARK  status: ('A' for Active; 'I' for Inactive)
REMARK    1  A    between atoms: C_2  and  O_3
REMARK    2  A    between atoms: C_2  and  C_22
REMARK    3  A    between atoms: O_3  and  C_4
REMARK    4  A    between atoms: C_4  and  C_5
REMARK    5  A    between atoms: C_9  and  C_10
REMARK    6  A    between atoms: C_10  and  N_11
REMARK    7  A    between atoms: N_11  and  C_12
REMARK    8  A    between atoms: C_12  and  C_13
REMARK    9  A    between atoms: C_13  and  O_14
REMARK                            x       y       z     vdW  Elec       q    Type
REMARK                         _______ _______ _______ _____ _____    ______ ____
ROOT
ATOM      1  C   UNL     1      49.919   7.589  15.551  0.00  0.00    +0.000 A 
ATOM      2  C   UNL     1      50.993   8.071  14.789  0.00  0.00    +0.000 A 
ATOM      3  C   UNL     1      50.887   8.170  13.405  0.00  0.00    +0.000 A 
ATOM      4  C   UNL     1      49.731   7.733  12.762  0.00  0.00    +0.000 A 
ATOM      5  C   UNL     1      48.689   7.138  13.490  0.00  0.00    +0.000 A 
ATOM      6  C   UNL     1      48.768   7.119  14.894  0.00  0.00    +0.000 A 
ENDROOT
BRANCH   1   7
ATOM      7  C   UNL     1      50.024   7.567  17.055  0.00  0.00    +0.000 C 
BRANCH   7   8
ATOM      8  O   UNL     1      48.761   7.255  17.650  0.00  0.00    +0.000 OA
BRANCH   8  10
ATOM      9  O   UNL     1      48.722   6.351  19.749  0.00  0.00    +0.000 OA
ATOM     10  C   UNL     1      48.758   6.225  18.532  0.00  0.00    +0.000 C 
BRANCH  10  11
ATOM     11  C   UNL     1      48.740   4.923  17.873  0.00  0.00    +0.000 A 
ATOM     12  C   UNL     1      47.621   4.489  17.178  0.00  0.00    +0.000 A 
ATOM     13  S   UNL     1      47.841   2.969  16.433  0.00  0.00    +0.000 S 
ATOM     14  C   UNL     1      49.426   2.836  17.044  0.00  0.00    +0.000 A 
ATOM     15  N   UNL     1      50.194   1.749  16.766  0.00  0.00    +0.000 NA
ATOM     16  C   UNL     1      51.371   1.780  17.295  0.00  0.00    +0.000 A 
ATOM     17  N   UNL     1      51.846   2.794  18.087  0.00  0.00    +0.000 N 
ATOM     18  C   UNL     1      51.077   3.873  18.468  0.00  0.00    +0.000 A 
ATOM     19  O   UNL     1      51.477   4.657  19.320  0.00  0.00    +0.000 OA
ATOM     20  C   UNL     1      49.776   3.924  17.824  0.00  0.00    +0.000 A 
ATOM     21  H   UNL     1      52.757   2.732  18.516  0.00  0.00    +0.000 HD
ENDBRANCH  10  11
ENDBRANCH   8  10
ENDBRANCH   7   8
ENDBRANCH   1   7
BRANCH   5  22
ATOM     22  C   UNL     1      47.670   6.300  12.747  0.00  0.00    +0.000 C 
BRANCH  22  23
ATOM     23  N   UNL     1      46.259   6.675  12.788  0.00  0.00    +0.000 N 
ATOM     24  C   UNL     1      45.359   5.577  12.740  0.00  0.00    +0.000 A 
ATOM     25  C   UNL     1      45.764   4.229  12.827  0.00  0.00    +0.000 A 
ATOM     26  N   UNL     1      44.932   3.153  12.825  0.00  0.00    +0.000 NA
ATOM     27  C   UNL     1      43.626   3.454  12.743  0.00  0.00    +0.000 A 
ATOM     28  C   UNL     1      43.188   4.759  12.647  0.00  0.00    +0.000 A 
ATOM     29  N   UNL     1      44.032   5.823  12.640  0.00  0.00    +0.000 NA
BRANCH  23  30
ATOM     30  C   UNL     1      45.790   7.822  11.986  0.00  0.00    +0.000 C 
BRANCH  30  31
ATOM     31  C   UNL     1      45.802   9.134  12.787  0.00  0.00    +0.000 C 
BRANCH  31  32
ATOM     32  O   UNL     1      44.494   9.711  12.820  0.00  0.00    +0.000 OA
ATOM     33  H   UNL     1      44.366  10.044  13.725  0.00  0.00    +0.000 HD
ENDBRANCH  31  32
ENDBRANCH  30  31
ENDBRANCH  23  30
ENDBRANCH  22  23
ENDBRANCH   5  22
TORSDOF 9
ENDMDL
MODEL 6
REMARK VINA RESULT:    -6.742      3.030      8.649
REMARK INTER + INTRA:         -11.206
REMARK INTER:                 -10.409
REMARK INTRA:                  -0.797
REMARK UNBOUND:                -1.114
REMARK  Name = 
REMARK  9 active torsions:
REMARK  status: ('A' for Active; 'I' for Inactive)
REMARK    1  A    between atoms: C_2  and  O_3
REMARK    2  A    between atoms: C_2  and  C_22
REMARK    3  A    between atoms: O_3  and  C_4
REMARK    4  A    between atoms: C_4  and  C_5
REMARK    5  A    between atoms: C_9  and  C_10
REMARK    6  A    between atoms: C_10  and  N_11
REMARK    7  A    between atoms: N_11  and  C_12
REMARK    8  A    between atoms: C_12  and  C_13
REMARK    9  A    between atoms: C_13  and  O_14
REMARK                            x       y       z     vdW  Elec       q    Type
REMARK                         _______ _______ _______ _____ _____    ______ ____
ROOT
ATOM      1  C   UNL     1      48.277   7.487  12.749  0.00  0.00    +0.000 A 
ATOM      2  C   UNL     1      49.434   8.130  12.287  0.00  0.00    +0.000 A 
ATOM      3  C   UNL     1      50.565   8.211  13.094  0.00  0.00    +0.000 A 
ATOM      4  C   UNL     1      50.532   7.706  14.392  0.00  0.00    +0.000 A 
ATOM      5  C   UNL     1      49.350   7.165  14.919  0.00  0.00    +0.000 A 
ATOM      6  C   UNL     1      48.239   7.009  14.071  0.00  0.00    +0.000 A 
ENDROOT
BRANCH   1   7
ATOM      7  C   UNL     1      47.091   7.338  11.830  0.00  0.00    +0.000 C 
BRANCH   7   8
ATOM      8  O   UNL     1      45.992   6.728  12.512  0.00  0.00    +0.000 OA
BRANCH   8  10
ATOM      9  O   UNL     1      44.210   7.531  11.325  0.00  0.00    +0.000 OA
ATOM     10  C   UNL     1      44.848   6.597  11.796  0.00  0.00    +0.000 C 
BRANCH  10  11
ATOM     11  C   UNL     1      44.477   5.202  11.583  0.00  0.00    +0.000 A 
ATOM     12  C   UNL     1      43.828   4.476  12.570  0.00  0.00    +0.000 A 
ATOM     13  S   UNL     1      43.432   2.888  12.085  0.00  0.00    +0.000 S 
ATOM     14  C   UNL     1      44.144   3.118  10.554  0.00  0.00    +0.000 A 
ATOM     15  N   UNL     1      44.143   2.124   9.626  0.00  0.00    +0.000 NA
ATOM     16  C   UNL     1      44.717   2.436   8.513  0.00  0.00    +0.000 A 
ATOM     17  N   UNL     1      45.305   3.646   8.248  0.00  0.00    +0.000 N 
ATOM     18  C   UNL     1      45.407   4.652   9.184  0.00  0.00    +0.000 A 
ATOM     19  O   UNL     1      46.097   5.642   8.967  0.00  0.00    +0.000 OA
ATOM     20  C   UNL     1      44.696   4.379  10.422  0.00  0.00    +0.000 A 
ATOM     21  H   UNL     1      45.786   3.807   7.376  0.00  0.00    +0.000 HD
ENDBRANCH  10  11
ENDBRANCH   8  10
ENDBRANCH   7   8
ENDBRANCH   1   7
BRANCH   5  22
ATOM     22  C   UNL     1      49.219   7.032  16.422  0.00  0.00    +0.000 C 
BRANCH  22  23
ATOM     23  N   UNL     1      49.137   5.703  17.025  0.00  0.00    +0.000 N 
ATOM     24  C   UNL     1      50.396   5.090  17.262  0.00  0.00    +0.000 A 
ATOM     25  C   UNL     1      51.631   5.753  17.107  0.00  0.00    +0.000 A 
ATOM     26  N   UNL     1      52.854   5.213  17.361  0.00  0.00    +0.000 NA
ATOM     27  C   UNL     1      52.827   3.947  17.807  0.00  0.00    +0.000 A 
ATOM     28  C   UNL     1      51.641   3.260  17.964  0.00  0.00    +0.000 A 
ATOM     29  N   UNL     1      50.428   3.808  17.695  0.00  0.00    +0.000 NA
BRANCH  23  30
ATOM     30  C   UNL     1      48.128   4.745  16.534  0.00  0.00    +0.000 C 
BRANCH  30  31
ATOM     31  C   UNL     1      47.056   4.439  17.592  0.00  0.00    +0.000 C 
BRANCH  31  32
ATOM     32  O   UNL     1      46.587   3.095  17.453  0.00  0.00    +0.000 OA
ATOM     33  H   UNL     1      46.414   2.772  18.355  0.00  0.00    +0.000 HD
ENDBRANCH  31  32
ENDBRANCH  30  31
ENDBRANCH  23  30
ENDBRANCH  22  23
ENDBRANCH   5  22
TORSDOF 9
ENDMDL
MODEL 7
REMARK VINA RESULT:    -6.624      3.926      4.771
REMARK INTER + INTRA:         -11.030
REMARK INTER:                  -9.596
REMARK INTRA:                  -1.434
REMARK UNBOUND:                -1.114
REMARK  Name = 
REMARK  9 active torsions:
REMARK  status: ('A' for Active; 'I' for Inactive)
REMARK    1  A    between atoms: C_2  and  O_3
REMARK    2  A    between atoms: C_2  and  C_22
REMARK    3  A    between atoms: O_3  and  C_4
REMARK    4  A    between atoms: C_4  and  C_5
REMARK    5  A    between atoms: C_9  and  C_10
REMARK    6  A    between atoms: C_10  and  N_11
REMARK    7  A    between atoms: N_11  and  C_12
REMARK    8  A    between atoms: C_12  and  C_13
REMARK    9  A    between atoms: C_13  and  O_14
REMARK                            x       y       z     vdW  Elec       q    Type
REMARK                         _______ _______ _______ _____ _____    ______ ____
ROOT
ATOM      1  C   UNL     1      47.205   6.930  13.043  0.00  0.00    +0.000 A 
ATOM      2  C   UNL     1      46.899   8.296  13.127  0.00  0.00    +0.000 A 
ATOM      3  C   UNL     1      45.706   8.784  12.602  0.00  0.00    +0.000 A 
ATOM      4  C   UNL     1      44.836   7.925  11.934  0.00  0.00    +0.000 A 
ATOM      5  C   UNL     1      45.174   6.578  11.733  0.00  0.00    +0.000 A 
ATOM      6  C   UNL     1      46.338   6.074  12.339  0.00  0.00    +0.000 A 
ENDROOT
BRANCH   1   7
ATOM      7  C   UNL     1      48.463   6.409  13.689  0.00  0.00    +0.000 C 
BRANCH   7   8
ATOM      8  O   UNL     1      48.455   6.662  15.097  0.00  0.00    +0.000 OA
BRANCH   8  10
ATOM      9  O   UNL     1      50.683   6.782  15.592  0.00  0.00    +0.000 OA
ATOM     10  C   UNL     1      49.559   7.267  15.599  0.00  0.00    +0.000 C 
BRANCH  10  11
ATOM     11  C   UNL     1      49.282   8.609  16.102  0.00  0.00    +0.000 A 
ATOM     12  C   UNL     1      49.745   9.733  15.435  0.00  0.00    +0.000 A 
ATOM     13  S   UNL     1      49.252  11.196  16.162  0.00  0.00    +0.000 S 
ATOM     14  C   UNL     1      48.432  10.368  17.404  0.00  0.00    +0.000 A 
ATOM     15  N   UNL     1      47.769  11.047  18.379  0.00  0.00    +0.000 NA
ATOM     16  C   UNL     1      47.195  10.293  19.255  0.00  0.00    +0.000 A 
ATOM     17  N   UNL     1      47.233   8.922  19.254  0.00  0.00    +0.000 N 
ATOM     18  C   UNL     1      47.961   8.192  18.339  0.00  0.00    +0.000 A 
ATOM     19  O   UNL     1      48.117   6.985  18.482  0.00  0.00    +0.000 OA
ATOM     20  C   UNL     1      48.551   8.995  17.281  0.00  0.00    +0.000 A 
ATOM     21  H   UNL     1      46.809   8.392  20.000  0.00  0.00    +0.000 HD
ENDBRANCH  10  11
ENDBRANCH   8  10
ENDBRANCH   7   8
ENDBRANCH   1   7
BRANCH   5  22
ATOM     22  C   UNL     1      44.443   5.798  10.661  0.00  0.00    +0.000 C 
BRANCH  22  23
ATOM     23  N   UNL     1      44.549   4.341  10.629  0.00  0.00    +0.000 N 
ATOM     24  C   UNL     1      45.182   3.825   9.467  0.00  0.00    +0.000 A 
ATOM     25  C   UNL     1      45.820   4.630   8.500  0.00  0.00    +0.000 A 
ATOM     26  N   UNL     1      46.469   4.173   7.396  0.00  0.00    +0.000 NA
ATOM     27  C   UNL     1      46.487   2.836   7.268  0.00  0.00    +0.000 A 
ATOM     28  C   UNL     1      45.867   2.013   8.186  0.00  0.00    +0.000 A 
ATOM     29  N   UNL     1      45.212   2.485   9.278  0.00  0.00    +0.000 NA
BRANCH  23  30
ATOM     30  C   UNL     1      43.399   3.520  11.055  0.00  0.00    +0.000 C 
BRANCH  30  31
ATOM     31  C   UNL     1      43.633   2.859  12.422  0.00  0.00    +0.000 C 
BRANCH  31  32
ATOM     32  O   UNL     1      45.027   2.624  12.631  0.00  0.00    +0.000 OA
ATOM     33  H   UNL     1      45.488   3.427  12.331  0.00  0.00    +0.000 HD
ENDBRANCH  31  32
ENDBRANCH  30  31
ENDBRANCH  23  30
ENDBRANCH  22  23
ENDBRANCH   5  22
TORSDOF 9
ENDMDL
MODEL 8
REMARK VINA RESULT:    -6.623      3.525      9.052
REMARK INTER + INTRA:         -11.028
REMARK INTER:                  -9.769
REMARK INTRA:                  -1.259
REMARK UNBOUND:                -1.114
REMARK  Name = 
REMARK  9 active torsions:
REMARK  status: ('A' for Active; 'I' for Inactive)
REMARK    1  A    between atoms: C_2  and  O_3
REMARK    2  A    between atoms: C_2  and  C_22
REMARK    3  A    between atoms: O_3  and  C_4
REMARK    4  A    between atoms: C_4  and  C_5
REMARK    5  A    between atoms: C_9  and  C_10
REMARK    6  A    between atoms: C_10  and  N_11
REMARK    7  A    between atoms: N_11  and  C_12
REMARK    8  A    between atoms: C_12  and  C_13
REMARK    9  A    between atoms: C_13  and  O_14
REMARK                            x       y       z     vdW  Elec       q    Type
REMARK                         _______ _______ _______ _____ _____    ______ ____
ROOT
ATOM      1  C   UNL     1      48.077   7.849  13.793  0.00  0.00    +0.000 A 
ATOM      2  C   UNL     1      48.105   9.179  14.238  0.00  0.00    +0.000 A 
ATOM      3  C   UNL     1      48.910   9.545  15.313  0.00  0.00    +0.000 A 
ATOM      4  C   UNL     1      49.647   8.578  15.993  0.00  0.00    +0.000 A 
ATOM      5  C   UNL     1      49.545   7.223  15.642  0.00  0.00    +0.000 A 
ATOM      6  C   UNL     1      48.798   6.872  14.504  0.00  0.00    +0.000 A 
ENDROOT
BRANCH   1   7
ATOM      7  C   UNL     1      47.263   7.489  12.577  0.00  0.00    +0.000 C 
BRANCH   7   8
ATOM      8  O   UNL     1      46.153   6.660  12.934  0.00  0.00    +0.000 OA
BRANCH   8  10
ATOM      9  O   UNL     1      44.664   7.594  11.472  0.00  0.00    +0.000 OA
ATOM     10  C   UNL     1      45.133   6.617  12.042  0.00  0.00    +0.000 C 
BRANCH  10  11
ATOM     11  C   UNL     1      44.679   5.256  11.776  0.00  0.00    +0.000 A 
ATOM     12  C   UNL     1      44.039   4.510  12.754  0.00  0.00    +0.000 A 
ATOM     13  S   UNL     1      43.538   2.973  12.207  0.00  0.00    +0.000 S 
ATOM     14  C   UNL     1      44.189   3.250  10.657  0.00  0.00    +0.000 A 
ATOM     15  N   UNL     1      44.092   2.309   9.679  0.00  0.00    +0.000 NA
ATOM     16  C   UNL     1      44.630   2.652   8.557  0.00  0.00    +0.000 A 
ATOM     17  N   UNL     1      45.268   3.845   8.327  0.00  0.00    +0.000 N 
ATOM     18  C   UNL     1      45.467   4.792   9.308  0.00  0.00    +0.000 A 
ATOM     19  O   UNL     1      46.197   5.756   9.109  0.00  0.00    +0.000 OA
ATOM     20  C   UNL     1      44.800   4.487  10.563  0.00  0.00    +0.000 A 
ATOM     21  H   UNL     1      45.716   4.029   7.443  0.00  0.00    +0.000 HD
ENDBRANCH  10  11
ENDBRANCH   8  10
ENDBRANCH   7   8
ENDBRANCH   1   7
BRANCH   5  22
ATOM     22  C   UNL     1      49.996   6.178  16.641  0.00  0.00    +0.000 C 
BRANCH  22  23
ATOM     23  N   UNL     1      49.000   5.455  17.429  0.00  0.00    +0.000 N 
ATOM     24  C   UNL     1      48.926   5.857  18.790  0.00  0.00    +0.000 A 
ATOM     25  C   UNL     1      49.612   6.972  19.315  0.00  0.00    +0.000 A 
ATOM     26  N   UNL     1      49.536   7.411  20.600  0.00  0.00    +0.000 NA
ATOM     27  C   UNL     1      48.718   6.697  21.390  0.00  0.00    +0.000 A 
ATOM     28  C   UNL     1      48.036   5.595  20.918  0.00  0.00    +0.000 A 
ATOM     29  N   UNL     1      48.130   5.161  19.635  0.00  0.00    +0.000 NA
BRANCH  23  30
ATOM     30  C   UNL     1      48.866   3.995  17.266  0.00  0.00    +0.000 C 
BRANCH  30  31
ATOM     31  C   UNL     1      47.546   3.606  16.582  0.00  0.00    +0.000 C 
BRANCH  31  32
ATOM     32  O   UNL     1      46.560   3.266  17.559  0.00  0.00    +0.000 OA
ATOM     33  H   UNL     1      45.758   3.765  17.323  0.00  0.00    +0.000 HD
ENDBRANCH  31  32
ENDBRANCH  30  31
ENDBRANCH  23  30
ENDBRANCH  22  23
ENDBRANCH   5  22
TORSDOF 9
ENDMDL
MODEL 9
REMARK VINA RESULT:    -6.391      3.859      8.049
REMARK INTER + INTRA:         -10.680
REMARK INTER:                  -8.986
REMARK INTRA:                  -1.694
REMARK UNBOUND:                -1.114
REMARK  Name = 
REMARK  9 active torsions:
REMARK  status: ('A' for Active; 'I' for Inactive)
REMARK    1  A    between atoms: C_2  and  O_3
REMARK    2  A    between atoms: C_2  and  C_22
REMARK    3  A    between atoms: O_3  and  C_4
REMARK    4  A    between atoms: C_4  and  C_5
REMARK    5  A    between atoms: C_9  and  C_10
REMARK    6  A    between atoms: C_10  and  N_11
REMARK    7  A    between atoms: N_11  and  C_12
REMARK    8  A    between atoms: C_12  and  C_13
REMARK    9  A    between atoms: C_13  and  O_14
REMARK                            x       y       z     vdW  Elec       q    Type
REMARK                         _______ _______ _______ _____ _____    ______ ____
ROOT
ATOM      1  C   UNL     1      48.278   4.459  17.341  0.00  0.00    +0.000 A 
ATOM      2  C   UNL     1      48.689   4.054  18.620  0.00  0.00    +0.000 A 
ATOM      3  C   UNL     1      49.368   4.937  19.454  0.00  0.00    +0.000 A 
ATOM      4  C   UNL     1      49.697   6.212  18.999  0.00  0.00    +0.000 A 
ATOM      5  C   UNL     1      49.401   6.600  17.684  0.00  0.00    +0.000 A 
ATOM      6  C   UNL     1      48.641   5.736  16.876  0.00  0.00    +0.000 A 
ENDROOT
BRANCH   1   7
ATOM      7  C   UNL     1      47.473   3.515  16.485  0.00  0.00    +0.000 C 
BRANCH   7   8
ATOM      8  O   UNL     1      46.588   4.237  15.625  0.00  0.00    +0.000 OA
BRANCH   8  10
ATOM      9  O   UNL     1      47.247   3.045  13.789  0.00  0.00    +0.000 OA
ATOM     10  C   UNL     1      46.773   4.055  14.294  0.00  0.00    +0.000 C 
BRANCH  10  11
ATOM     11  C   UNL     1      46.284   5.178  13.501  0.00  0.00    +0.000 A 
ATOM     12  C   UNL     1      47.073   6.296  13.282  0.00  0.00    +0.000 A 
ATOM     13  S   UNL     1      46.330   7.458  12.277  0.00  0.00    +0.000 S 
ATOM     14  C   UNL     1      44.920   6.512  12.132  0.00  0.00    +0.000 A 
ATOM     15  N   UNL     1      43.868   6.935  11.382  0.00  0.00    +0.000 NA
ATOM     16  C   UNL     1      42.867   6.120  11.363  0.00  0.00    +0.000 A 
ATOM     17  N   UNL     1      42.817   4.925  12.035  0.00  0.00    +0.000 N 
ATOM     18  C   UNL     1      43.822   4.495  12.875  0.00  0.00    +0.000 A 
ATOM     19  O   UNL     1      43.659   3.516  13.595  0.00  0.00    +0.000 OA
ATOM     20  C   UNL     1      45.005   5.337  12.858  0.00  0.00    +0.000 A 
ATOM     21  H   UNL     1      41.983   4.360  12.023  0.00  0.00    +0.000 HD
ENDBRANCH  10  11
ENDBRANCH   8  10
ENDBRANCH   7   8
ENDBRANCH   1   7
BRANCH   5  22
ATOM     22  C   UNL     1      50.135   7.787  17.094  0.00  0.00    +0.000 C 
BRANCH  22  23
ATOM     23  N   UNL     1      49.374   8.885  16.503  0.00  0.00    +0.000 N 
ATOM     24  C   UNL     1      49.510   9.000  15.093  0.00  0.00    +0.000 A 
ATOM     25  C   UNL     1      50.170   8.046  14.291  0.00  0.00    +0.000 A 
ATOM     26  N   UNL     1      50.287   8.100  12.937  0.00  0.00    +0.000 NA
ATOM     27  C   UNL     1      49.700   9.163  12.365  0.00  0.00    +0.000 A 
ATOM     28  C   UNL     1      49.053  10.124  13.114  0.00  0.00    +0.000 A 
ATOM     29  N   UNL     1      48.953  10.062  14.467  0.00  0.00    +0.000 NA
BRANCH  23  30
ATOM     30  C   UNL     1      49.354  10.198  17.175  0.00  0.00    +0.000 C 
BRANCH  30  31
ATOM     31  C   UNL     1      48.078  10.406  18.006  0.00  0.00    +0.000 C 
BRANCH  31  32
ATOM     32  O   UNL     1      47.384  11.578  17.571  0.00  0.00    +0.000 OA
ATOM     33  H   UNL     1      47.963  12.011  16.919  0.00  0.00    +0.000 HD
ENDBRANCH  31  32
ENDBRANCH  30  31
ENDBRANCH  23  30
ENDBRANCH  22  23
ENDBRANCH   5  22
TORSDOF 9
ENDMDL
