MODEL 1
REMARK VINA RESULT:    -8.670      0.000      0.000
REMARK INTER + INTRA:         -11.764
REMARK INTER:                 -11.204
REMARK INTRA:                  -0.559
REMARK UNBOUND:                -0.559
REMARK  Name = 
REMARK  6 active torsions:
REMARK  status: ('A' for Active; 'I' for Inactive)
REMARK    1  A    between atoms: C_1  and  C_2
REMARK    2  A    between atoms: C_6  and  C_7
REMARK    3  A    between atoms: C_7  and  C_8
REMARK    4  A    between atoms: C_11  and  C_12
REMARK    5  A    between atoms: C_12  and  N_13
REMARK    6  A    between atoms: C_14  and  C_16
REMARK                            x       y       z     vdW  Elec       q    Type
REMARK                         _______ _______ _______ _____ _____    ______ ____
ROOT
ATOM      1  C   UNL     1      46.745   7.539  13.171  0.00  0.00    +0.000 C 
ENDROOT
BRANCH   1   5
ATOM      2  C   UNL     1      44.931   4.604  10.657  0.00  0.00    +0.000 A 
ATOM      3  C   UNL     1      45.641   5.656  10.076  0.00  0.00    +0.000 A 
ATOM      4  C   UNL     1      46.237   6.620  10.886  0.00  0.00    +0.000 A 
ATOM      5  C   UNL     1      46.092   6.523  12.267  0.00  0.00    +0.000 A 
ATOM      6  N   UNL     1      45.400   5.514  12.856  0.00  0.00    +0.000 NA
ATOM      7  C   UNL     1      44.849   4.582  12.044  0.00  0.00    +0.000 A 
BRANCH   2   8
ATOM      8  C   UNL     1      44.318   3.517   9.818  0.00  0.00    +0.000 C 
BRANCH   8  14
ATOM      9  C   UNL     1      46.830  -0.295   7.682  0.00  0.00    +0.000 C 
ATOM     10  C   UNL     1      46.454   1.157   7.696  0.00  0.00    +0.000 A 
ATOM     11  C   UNL     1      46.946   2.038   6.728  0.00  0.00    +0.000 A 
ATOM     12  C   UNL     1      46.603   3.389   6.766  0.00  0.00    +0.000 A 
ATOM     13  C   UNL     1      45.758   3.869   7.767  0.00  0.00    +0.000 A 
ATOM     14  C   UNL     1      45.236   3.001   8.734  0.00  0.00    +0.000 A 
ATOM     15  C   UNL     1      45.600   1.646   8.695  0.00  0.00    +0.000 A 
ENDBRANCH   8  14
ENDBRANCH   2   8
ENDBRANCH   1   5
BRANCH   1  16
ATOM     16  N   UNL     1      47.246   6.947  14.391  0.00  0.00    +0.000 N 
ATOM     17  C   UNL     1      48.566   6.652  14.589  0.00  0.00    +0.000 C 
ATOM     18  O   UNL     1      49.421   6.870  13.734  0.00  0.00    +0.000 OA
ATOM     19  H   UNL     1      46.540   6.530  14.990  0.00  0.00    +0.000 HD
BRANCH  17  20
ATOM     20  C   UNL     1      48.926   6.135  15.919  0.00  0.00    +0.000 A 
ATOM     21  C   UNL     1      49.852   6.818  16.694  0.00  0.00    +0.000 A 
ATOM     22  S   UNL     1      50.097   6.129  18.235  0.00  0.00    +0.000 S 
ATOM     23  C   UNL     1      49.013   4.859  17.901  0.00  0.00    +0.000 A 
ATOM     24  N   UNL     1      48.770   3.884  18.819  0.00  0.00    +0.000 NA
ATOM     25  C   UNL     1      47.954   2.968  18.419  0.00  0.00    +0.000 A 
ATOM     26  N   UNL     1      47.358   2.936  17.187  0.00  0.00    +0.000 N 
ATOM     27  C   UNL     1      47.527   3.929  16.251  0.00  0.00    +0.000 A 
ATOM     28  O   UNL     1      46.905   3.917  15.196  0.00  0.00    +0.000 OA
ATOM     29  C   UNL     1      48.459   4.973  16.638  0.00  0.00    +0.000 A 
ATOM     30  H   UNL     1      46.716   2.199  16.939  0.00  0.00    +0.000 HD
ENDBRANCH  17  20
ENDBRANCH   1  16
TORSDOF 5
ENDMDL
MODEL 2
REMARK VINA RESULT:    -8.605      2.032      3.590
REMARK INTER + INTRA:         -11.680
REMARK INTER:                 -10.619
REMARK INTRA:                  -1.062
REMARK UNBOUND:                -0.559
REMARK  Name = 
REMARK  6 active torsions:
REMARK  status: ('A' for Active; 'I' for Inactive)
REMARK    1  A    between atoms: C_1  and  C_2
REMARK    2  A    between atoms: C_6  and  C_7
REMARK    3  A    between atoms: C_7  and  C_8
REMARK    4  A    between atoms: C_11  and  C_12
REMARK    5  A    between atoms: C_12  and  N_13
REMARK    6  A    between atoms: C_14  and  C_16
REMARK                            x       y       z     vdW  Elec       q    Type
REMARK                         _______ _______ _______ _____ _____    ______ ____
ROOT
ATOM      1  C   UNL     1      46.590   4.560  14.663  0.00  0.00    +0.000 C 
ENDROOT
BRANCH   1   5
ATOM      2  C   UNL     1      45.001   4.149  10.721  0.00  0.00    +0.000 A 
ATOM      3  C   UNL     1      45.566   5.367  11.108  0.00  0.00    +0.000 A 
ATOM      4  C   UNL     1      46.086   5.512  12.391  0.00  0.00    +0.000 A 
ATOM      5  C   UNL     1      46.013   4.439  13.274  0.00  0.00    +0.000 A 
ATOM      6  N   UNL     1      45.464   3.248  12.926  0.00  0.00    +0.000 NA
ATOM      7  C   UNL     1      44.983   3.129  11.666  0.00  0.00    +0.000 A 
BRANCH   2   8
ATOM      8  C   UNL     1      44.475   3.937   9.328  0.00  0.00    +0.000 C 
BRANCH   8  14
ATOM      9  C   UNL     1      46.754  -0.258   7.712  0.00  0.00    +0.000 C 
ATOM     10  C   UNL     1      46.568   1.228   7.621  0.00  0.00    +0.000 A 
ATOM     11  C   UNL     1      47.299   1.991   6.706  0.00  0.00    +0.000 A 
ATOM     12  C   UNL     1      47.128   3.373   6.646  0.00  0.00    +0.000 A 
ATOM     13  C   UNL     1      46.220   4.005   7.497  0.00  0.00    +0.000 A 
ATOM     14  C   UNL     1      45.462   3.258   8.408  0.00  0.00    +0.000 A 
ATOM     15  C   UNL     1      45.653   1.869   8.468  0.00  0.00    +0.000 A 
ENDBRANCH   8  14
ENDBRANCH   2   8
ENDBRANCH   1   5
BRANCH   1  16
ATOM     16  N   UNL     1      47.362   5.771  14.834  0.00  0.00    +0.000 N 
ATOM     17  C   UNL     1      48.448   5.852  15.660  0.00  0.00    +0.000 C 
ATOM     18  O   UNL     1      48.841   4.894  16.321  0.00  0.00    +0.000 OA
ATOM     19  H   UNL     1      46.911   6.621  14.508  0.00  0.00    +0.000 HD
BRANCH  17  20
ATOM     20  C   UNL     1      49.177   7.130  15.654  0.00  0.00    +0.000 A 
ATOM     21  C   UNL     1      49.388   7.808  16.846  0.00  0.00    +0.000 A 
ATOM     22  S   UNL     1      50.314   9.229  16.673  0.00  0.00    +0.000 S 
ATOM     23  C   UNL     1      50.421   9.020  14.987  0.00  0.00    +0.000 A 
ATOM     24  N   UNL     1      51.084   9.919  14.209  0.00  0.00    +0.000 NA
ATOM     25  C   UNL     1      51.056   9.654  12.947  0.00  0.00    +0.000 A 
ATOM     26  N   UNL     1      50.428   8.573  12.390  0.00  0.00    +0.000 N 
ATOM     27  C   UNL     1      49.798   7.608  13.139  0.00  0.00    +0.000 A 
ATOM     28  O   UNL     1      49.329   6.605  12.616  0.00  0.00    +0.000 OA
ATOM     29  C   UNL     1      49.775   7.871  14.567  0.00  0.00    +0.000 A 
ATOM     30  H   UNL     1      50.455   8.411  11.395  0.00  0.00    +0.000 HD
ENDBRANCH  17  20
ENDBRANCH   1  16
TORSDOF 5
ENDMDL
MODEL 3
REMARK VINA RESULT:    -8.276      1.557      2.403
REMARK INTER + INTRA:         -11.254
REMARK INTER:                 -10.554
REMARK INTRA:                  -0.700
REMARK UNBOUND:                -0.559
REMARK  Name = 
REMARK  6 active torsions:
REMARK  status: ('A' for Active; 'I' for Inactive)
REMARK    1  A    between atoms: C_1  and  C_2
REMARK    2  A    between atoms: C_6  and  C_7
REMARK    3  A    between atoms: C_7  and  C_8
REMARK    4  A    between atoms: C_11  and  C_12
REMARK    5  A    between atoms: C_12  and  N_13
REMARK    6  A    between atoms: C_14  and  C_16
REMARK                            x       y       z     vdW  Elec       q    Type
REMARK                         _______ _______ _______ _____ _____    ______ ____
ROOT
ATOM      1  C   UNL     1      47.102   6.750  13.333  0.00  0.00    +0.000 C 
ENDROOT
BRANCH   1   5
ATOM      2  C   UNL     1      45.059   4.676  10.209  0.00  0.00    +0.000 A 
ATOM      3  C   UNL     1      45.830   5.798   9.896  0.00  0.00    +0.000 A 
ATOM      4  C   UNL     1      46.500   6.482  10.906  0.00  0.00    +0.000 A 
ATOM      5  C   UNL     1      46.369   6.042  12.219  0.00  0.00    +0.000 A 
ATOM      6  N   UNL     1      45.620   4.960  12.553  0.00  0.00    +0.000 NA
ATOM      7  C   UNL     1      44.996   4.303  11.547  0.00  0.00    +0.000 A 
BRANCH   2   8
ATOM      8  C   UNL     1      44.362   3.881   9.140  0.00  0.00    +0.000 C 
BRANCH   8  14
ATOM      9  C   UNL     1      47.348   3.116   5.152  0.00  0.00    +0.000 C 
ATOM     10  C   UNL     1      46.739   2.609   6.425  0.00  0.00    +0.000 A 
ATOM     11  C   UNL     1      47.011   1.319   6.890  0.00  0.00    +0.000 A 
ATOM     12  C   UNL     1      46.422   0.855   8.066  0.00  0.00    +0.000 A 
ATOM     13  C   UNL     1      45.561   1.680   8.791  0.00  0.00    +0.000 A 
ATOM     14  C   UNL     1      45.291   2.984   8.355  0.00  0.00    +0.000 A 
ATOM     15  C   UNL     1      45.878   3.434   7.163  0.00  0.00    +0.000 A 
ENDBRANCH   8  14
ENDBRANCH   2   8
ENDBRANCH   1   5
BRANCH   1  16
ATOM     16  N   UNL     1      47.212   5.936  14.522  0.00  0.00    +0.000 N 
ATOM     17  C   UNL     1      48.348   5.871  15.279  0.00  0.00    +0.000 C 
ATOM     18  O   UNL     1      49.361   6.504  14.994  0.00  0.00    +0.000 OA
ATOM     19  H   UNL     1      46.495   5.224  14.626  0.00  0.00    +0.000 HD
BRANCH  17  20
ATOM     20  C   UNL     1      48.267   5.065  16.508  0.00  0.00    +0.000 A 
ATOM     21  C   UNL     1      47.845   3.746  16.438  0.00  0.00    +0.000 A 
ATOM     22  S   UNL     1      47.883   2.933  17.937  0.00  0.00    +0.000 S 
ATOM     23  C   UNL     1      48.414   4.334  18.745  0.00  0.00    +0.000 A 
ATOM     24  N   UNL     1      48.633   4.328  20.089  0.00  0.00    +0.000 NA
ATOM     25  C   UNL     1      48.999   5.466  20.574  0.00  0.00    +0.000 A 
ATOM     26  N   UNL     1      49.169   6.610  19.840  0.00  0.00    +0.000 N 
ATOM     27  C   UNL     1      49.018   6.649  18.474  0.00  0.00    +0.000 A 
ATOM     28  O   UNL     1      49.270   7.664  17.837  0.00  0.00    +0.000 OA
ATOM     29  C   UNL     1      48.578   5.400  17.879  0.00  0.00    +0.000 A 
ATOM     30  H   UNL     1      49.473   7.467  20.275  0.00  0.00    +0.000 HD
ENDBRANCH  17  20
ENDBRANCH   1  16
TORSDOF 5
ENDMDL
MODEL 4
REMARK VINA RESULT:    -8.213      2.793      3.987
REMARK INTER + INTRA:         -11.173
REMARK INTER:                 -10.313
REMARK INTRA:                  -0.860
REMARK UNBOUND:                -0.559
REMARK  Name = 
REMARK  6 active torsions:
REMARK  status: ('A' for Active; 'I' for Inactive)
REMARK    1  A    between atoms: C_1  and  C_2
REMARK    2  A    between atoms: C_6  and  C_7
REMARK    3  A    between atoms: C_7  and  C_8
REMARK    4  A    between atoms: C_11  and  C_12
REMARK    5  A    between atoms: C_12  and  N_13
REMARK    6  A    between atoms: C_14  and  C_16
REMARK                            x       y       z     vdW  Elec       q    Type
REMARK                         _______ _______ _______ _____ _____    ______ ____
ROOT
ATOM      1  C   UNL     1      47.209   5.184  14.603  0.00  0.00    +0.000 C 
ENDROOT
BRANCH   1   5
ATOM      2  C   UNL     1      45.012   4.038  11.126  0.00  0.00    +0.000 A 
ATOM      3  C   UNL     1      45.482   5.348  11.238  0.00  0.00    +0.000 A 
ATOM      4  C   UNL     1      46.199   5.733  12.367  0.00  0.00    +0.000 A 
ATOM      5  C   UNL     1      46.416   4.802  13.378  0.00  0.00    +0.000 A 
ATOM      6  N   UNL     1      45.964   3.524  13.298  0.00  0.00    +0.000 NA
ATOM      7  C   UNL     1      45.287   3.173  12.180  0.00  0.00    +0.000 A 
BRANCH   2   8
ATOM      8  C   UNL     1      44.279   3.571   9.899  0.00  0.00    +0.000 C 
BRANCH   8  14
ATOM      9  C   UNL     1      46.792  -0.190   7.675  0.00  0.00    +0.000 C 
ATOM     10  C   UNL     1      46.411   1.261   7.720  0.00  0.00    +0.000 A 
ATOM     11  C   UNL     1      46.895   2.162   6.767  0.00  0.00    +0.000 A 
ATOM     12  C   UNL     1      46.547   3.511   6.832  0.00  0.00    +0.000 A 
ATOM     13  C   UNL     1      45.706   3.969   7.848  0.00  0.00    +0.000 A 
ATOM     14  C   UNL     1      45.193   3.080   8.801  0.00  0.00    +0.000 A 
ATOM     15  C   UNL     1      45.561   1.727   8.733  0.00  0.00    +0.000 A 
ENDBRANCH   8  14
ENDBRANCH   2   8
ENDBRANCH   1   5
BRANCH   1  16
ATOM     16  N   UNL     1      47.686   6.547  14.546  0.00  0.00    +0.000 N 
ATOM     17  C   UNL     1      48.839   6.960  15.153  0.00  0.00    +0.000 C 
ATOM     18  O   UNL     1      49.551   6.193  15.797  0.00  0.00    +0.000 OA
ATOM     19  H   UNL     1      46.999   7.234  14.249  0.00  0.00    +0.000 HD
BRANCH  17  20
ATOM     20  C   UNL     1      49.231   8.360  14.925  0.00  0.00    +0.000 A 
ATOM     21  C   UNL     1      49.994   8.688  13.813  0.00  0.00    +0.000 A 
ATOM     22  S   UNL     1      50.295  10.359  13.656  0.00  0.00    +0.000 S 
ATOM     23  C   UNL     1      49.461  10.701  15.100  0.00  0.00    +0.000 A 
ATOM     24  N   UNL     1      49.354  11.977  15.565  0.00  0.00    +0.000 NA
ATOM     25  C   UNL     1      48.726  12.084  16.686  0.00  0.00    +0.000 A 
ATOM     26  N   UNL     1      48.193  11.036  17.387  0.00  0.00    +0.000 N 
ATOM     27  C   UNL     1      48.224   9.740  16.929  0.00  0.00    +0.000 A 
ATOM     28  O   UNL     1      47.654   8.840  17.534  0.00  0.00    +0.000 OA
ATOM     29  C   UNL     1      48.945   9.557  15.682  0.00  0.00    +0.000 A 
ATOM     30  H   UNL     1      47.698  11.187  18.253  0.00  0.00    +0.000 HD
ENDBRANCH  17  20
ENDBRANCH   1  16
TORSDOF 5
ENDMDL
MODEL 5
REMARK VINA RESULT:    -8.148      1.026      1.659
REMARK INTER + INTRA:         -11.089
REMARK INTER:                 -10.111
REMARK INTRA:                  -0.979
REMARK UNBOUND:                -0.559
REMARK  Name = 
REMARK  6 active torsions:
REMARK  status: ('A' for Active; 'I' for Inactive)
REMARK    1  A    between atoms: C_1  and  C_2
REMARK    2  A    between atoms: C_6  and  C_7
REMARK    3  A    between atoms: C_7  and  C_8
REMARK    4  A    between atoms: C_11  and  C_12
REMARK    5  A    between atoms: C_12  and  N_13
REMARK    6  A    between atoms: C_14  and  C_16
REMARK                            x       y       z     vdW  Elec       q    Type
REMARK                         _______ _______ _______ _____ _____    ______ ____
ROOT
ATOM      1  C   UNL     1      47.490   8.031  13.509  0.00  0.00    +0.000 C 
ENDROOT
BRANCH   1   5
ATOM      2  C   UNL     1      44.728   5.812  11.126  0.00  0.00    +0.000 A 
ATOM      3  C   UNL     1      44.471   7.158  11.396  0.00  0.00    +0.000 A 
ATOM      4  C   UNL     1      45.365   7.891  12.172  0.00  0.00    +0.000 A 
ATOM      5  C   UNL     1      46.493   7.256  12.683  0.00  0.00    +0.000 A 
ATOM      6  N   UNL     1      46.763   5.948  12.442  0.00  0.00    +0.000 NA
ATOM      7  C   UNL     1      45.886   5.265  11.668  0.00  0.00    +0.000 A 
BRANCH   2   8
ATOM      8  C   UNL     1      43.814   5.001  10.250  0.00  0.00    +0.000 C 
BRANCH   8  14
ATOM      9  C   UNL     1      46.867   3.654   6.473  0.00  0.00    +0.000 C 
ATOM     10  C   UNL     1      46.007   3.267   7.639  0.00  0.00    +0.000 A 
ATOM     11  C   UNL     1      45.852   1.927   8.006  0.00  0.00    +0.000 A 
ATOM     12  C   UNL     1      45.034   1.581   9.081  0.00  0.00    +0.000 A 
ATOM     13  C   UNL     1      44.370   2.573   9.804  0.00  0.00    +0.000 A 
ATOM     14  C   UNL     1      44.528   3.924   9.467  0.00  0.00    +0.000 A 
ATOM     15  C   UNL     1      45.342   4.258   8.374  0.00  0.00    +0.000 A 
ENDBRANCH   8  14
ENDBRANCH   2   8
ENDBRANCH   1   5
BRANCH   1  16
ATOM     16  N   UNL     1      47.862   7.333  14.718  0.00  0.00    +0.000 N 
ATOM     17  C   UNL     1      49.160   7.075  15.062  0.00  0.00    +0.000 C 
ATOM     18  O   UNL     1      50.104   7.420  14.356  0.00  0.00    +0.000 OA
ATOM     19  H   UNL     1      47.109   6.823  15.172  0.00  0.00    +0.000 HD
BRANCH  17  20
ATOM     20  C   UNL     1      49.373   6.433  16.369  0.00  0.00    +0.000 A 
ATOM     21  C   UNL     1      50.207   7.033  17.301  0.00  0.00    +0.000 A 
ATOM     22  S   UNL     1      50.284   6.201  18.788  0.00  0.00    +0.000 S 
ATOM     23  C   UNL     1      49.246   4.977  18.220  0.00  0.00    +0.000 A 
ATOM     24  N   UNL     1      48.906   3.922  19.011  0.00  0.00    +0.000 NA
ATOM     25  C   UNL     1      48.142   3.054  18.440  0.00  0.00    +0.000 A 
ATOM     26  N   UNL     1      47.684   3.142  17.153  0.00  0.00    +0.000 N 
ATOM     27  C   UNL     1      47.953   4.216  16.337  0.00  0.00    +0.000 A 
ATOM     28  O   UNL     1      47.449   4.308  15.225  0.00  0.00    +0.000 OA
ATOM     29  C   UNL     1      48.833   5.212  16.921  0.00  0.00    +0.000 A 
ATOM     30  H   UNL     1      47.075   2.436  16.768  0.00  0.00    +0.000 HD
ENDBRANCH  17  20
ENDBRANCH   1  16
TORSDOF 5
ENDMDL
MODEL 6
REMARK VINA RESULT:    -7.768      2.224      3.090
REMARK INTER + INTRA:         -10.597
REMARK INTER:                  -9.552
REMARK INTRA:                  -1.046
REMARK UNBOUND:                -0.559
REMARK  Name = 
REMARK  6 active torsions:
REMARK  status: ('A' for Active; 'I' for Inactive)
REMARK    1  A    between atoms: C_1  and  C_2
REMARK    2  A    between atoms: C_6  and  C_7
REMARK    3  A    between atoms: C_7  and  C_8
REMARK    4  A    between atoms: C_11  and  C_12
REMARK    5  A    between atoms: C_12  and  N_13
REMARK    6  A    between atoms: C_14  and  C_16
REMARK                            x       y       z     vdW  Elec       q    Type
REMARK                         _______ _______ _______ _____ _____    ______ ____
ROOT
ATOM      1  C   UNL     1      48.259   7.207  14.136  0.00  0.00    +0.000 C 
ENDROOT
BRANCH   1   5
ATOM      2  C   UNL     1      45.154   5.686  11.632  0.00  0.00    +0.000 A 
ATOM      3  C   UNL     1      45.616   6.989  11.434  0.00  0.00    +0.000 A 
ATOM      4  C   UNL     1      46.628   7.496  12.245  0.00  0.00    +0.000 A 
ATOM      5  C   UNL     1      47.146   6.693  13.256  0.00  0.00    +0.000 A 
ATOM      6  N   UNL     1      46.710   5.426  13.475  0.00  0.00    +0.000 NA
ATOM      7  C   UNL     1      45.739   4.954  12.659  0.00  0.00    +0.000 A 
BRANCH   2   8
ATOM      8  C   UNL     1      44.099   5.086  10.744  0.00  0.00    +0.000 C 
BRANCH   8  14
ATOM      9  C   UNL     1      46.798   3.791   6.689  0.00  0.00    +0.000 C 
ATOM     10  C   UNL     1      45.936   3.389   7.849  0.00  0.00    +0.000 A 
ATOM     11  C   UNL     1      45.612   2.049   8.075  0.00  0.00    +0.000 A 
ATOM     12  C   UNL     1      44.794   1.692   9.147  0.00  0.00    +0.000 A 
ATOM     13  C   UNL     1      44.300   2.674  10.007  0.00  0.00    +0.000 A 
ATOM     14  C   UNL     1      44.629   4.021   9.812  0.00  0.00    +0.000 A 
ATOM     15  C   UNL     1      45.441   4.369   8.722  0.00  0.00    +0.000 A 
ENDBRANCH   8  14
ENDBRANCH   2   8
ENDBRANCH   1   5
BRANCH   1  16
ATOM     16  N   UNL     1      48.109   6.790  15.512  0.00  0.00    +0.000 N 
ATOM     17  C   UNL     1      49.157   6.376  16.285  0.00  0.00    +0.000 C 
ATOM     18  O   UNL     1      50.307   6.327  15.856  0.00  0.00    +0.000 OA
ATOM     19  H   UNL     1      47.157   6.579  15.798  0.00  0.00    +0.000 HD
BRANCH  17  20
ATOM     20  C   UNL     1      48.849   6.069  17.691  0.00  0.00    +0.000 A 
ATOM     21  C   UNL     1      49.093   4.796  18.186  0.00  0.00    +0.000 A 
ATOM     22  S   UNL     1      48.754   4.631  19.850  0.00  0.00    +0.000 S 
ATOM     23  C   UNL     1      48.216   6.243  19.956  0.00  0.00    +0.000 A 
ATOM     24  N   UNL     1      47.760   6.754  21.133  0.00  0.00    +0.000 NA
ATOM     25  C   UNL     1      47.354   7.976  21.061  0.00  0.00    +0.000 A 
ATOM     26  N   UNL     1      47.362   8.736  19.922  0.00  0.00    +0.000 N 
ATOM     27  C   UNL     1      47.867   8.282  18.726  0.00  0.00    +0.000 A 
ATOM     28  O   UNL     1      47.946   9.020  17.752  0.00  0.00    +0.000 OA
ATOM     29  C   UNL     1      48.313   6.901  18.744  0.00  0.00    +0.000 A 
ATOM     30  H   UNL     1      47.044   9.693  19.933  0.00  0.00    +0.000 HD
ENDBRANCH  17  20
ENDBRANCH   1  16
TORSDOF 5
ENDMDL
MODEL 7
REMARK VINA RESULT:    -7.573      3.660      9.555
REMARK INTER + INTRA:         -10.346
REMARK INTER:                  -9.229
REMARK INTRA:                  -1.118
REMARK UNBOUND:                -0.559
REMARK  Name = 
REMARK  6 active torsions:
REMARK  status: ('A' for Active; 'I' for Inactive)
REMARK    1  A    between atoms: C_1  and  C_2
REMARK    2  A    between atoms: C_6  and  C_7
REMARK    3  A    between atoms: C_7  and  C_8
REMARK    4  A    between atoms: C_11  and  C_12
REMARK    5  A    between atoms: C_12  and  N_13
REMARK    6  A    between atoms: C_14  and  C_16
REMARK                            x       y       z     vdW  Elec       q    Type
REMARK                         _______ _______ _______ _____ _____    ______ ____
ROOT
ATOM      1  C   UNL     1      47.685   3.865  16.180  0.00  0.00    +0.000 C 
ENDROOT
BRANCH   1   5
ATOM      2  C   UNL     1      48.142   6.402  19.584  0.00  0.00    +0.000 A 
ATOM      3  C   UNL     1      49.250   6.134  18.777  0.00  0.00    +0.000 A 
ATOM      4  C   UNL     1      49.113   5.308  17.665  0.00  0.00    +0.000 A 
ATOM      5  C   UNL     1      47.869   4.746  17.391  0.00  0.00    +0.000 A 
ATOM      6  N   UNL     1      46.778   4.985  18.163  0.00  0.00    +0.000 NA
ATOM      7  C   UNL     1      46.937   5.807  19.227  0.00  0.00    +0.000 A 
BRANCH   2   8
ATOM      8  C   UNL     1      48.239   7.330  20.763  0.00  0.00    +0.000 C 
BRANCH   8  14
ATOM      9  C   UNL     1      47.691  11.482  17.958  0.00  0.00    +0.000 C 
ATOM     10  C   UNL     1      47.317  10.685  19.173  0.00  0.00    +0.000 A 
ATOM     11  C   UNL     1      46.382  11.170  20.092  0.00  0.00    +0.000 A 
ATOM     12  C   UNL     1      46.058  10.426  21.226  0.00  0.00    +0.000 A 
ATOM     13  C   UNL     1      46.662   9.187  21.448  0.00  0.00    +0.000 A 
ATOM     14  C   UNL     1      47.586   8.673  20.529  0.00  0.00    +0.000 A 
ATOM     15  C   UNL     1      47.914   9.437  19.399  0.00  0.00    +0.000 A 
ENDBRANCH   8  14
ENDBRANCH   2   8
ENDBRANCH   1   5
BRANCH   1  16
ATOM     16  N   UNL     1      46.815   4.464  15.193  0.00  0.00    +0.000 N 
ATOM     17  C   UNL     1      47.254   5.357  14.256  0.00  0.00    +0.000 C 
ATOM     18  O   UNL     1      48.427   5.715  14.192  0.00  0.00    +0.000 OA
ATOM     19  H   UNL     1      45.821   4.385  15.388  0.00  0.00    +0.000 HD
BRANCH  17  20
ATOM     20  C   UNL     1      46.261   5.806  13.267  0.00  0.00    +0.000 A 
ATOM     21  C   UNL     1      46.090   7.162  13.031  0.00  0.00    +0.000 A 
ATOM     22  S   UNL     1      44.957   7.508  11.804  0.00  0.00    +0.000 S 
ATOM     23  C   UNL     1      44.613   5.856  11.580  0.00  0.00    +0.000 A 
ATOM     24  N   UNL     1      43.692   5.449  10.664  0.00  0.00    +0.000 NA
ATOM     25  C   UNL     1      43.507   4.173  10.625  0.00  0.00    +0.000 A 
ATOM     26  N   UNL     1      44.158   3.265  11.417  0.00  0.00    +0.000 N 
ATOM     27  C   UNL     1      45.137   3.623  12.314  0.00  0.00    +0.000 A 
ATOM     28  O   UNL     1      45.766   2.777  12.937  0.00  0.00    +0.000 OA
ATOM     29  C   UNL     1      45.366   5.053  12.418  0.00  0.00    +0.000 A 
ATOM     30  H   UNL     1      43.981   2.276  11.328  0.00  0.00    +0.000 HD
ENDBRANCH  17  20
ENDBRANCH   1  16
TORSDOF 5
ENDMDL
MODEL 8
REMARK VINA RESULT:    -7.431      2.364      3.254
REMARK INTER + INTRA:         -10.162
REMARK INTER:                  -9.773
REMARK INTRA:                  -0.389
REMARK UNBOUND:                -0.559
REMARK  Name = 
REMARK  6 active torsions:
REMARK  status: ('A' for Active; 'I' for Inactive)
REMARK    1  A    between atoms: C_1  and  C_2
REMARK    2  A    between atoms: C_6  and  C_7
REMARK    3  A    between atoms: C_7  and  C_8
REMARK    4  A    between atoms: C_11  and  C_12
REMARK    5  A    between atoms: C_12  and  N_13
REMARK    6  A    between atoms: C_14  and  C_16
REMARK                            x       y       z     vdW  Elec       q    Type
REMARK                         _______ _______ _______ _____ _____    ______ ____
ROOT
ATOM      1  C   UNL     1      46.678   4.274  15.970  0.00  0.00    +0.000 C 
ENDROOT
BRANCH   1   5
ATOM      2  C   UNL     1      45.904   5.440  11.936  0.00  0.00    +0.000 A 
ATOM      3  C   UNL     1      47.099   5.832  12.545  0.00  0.00    +0.000 A 
ATOM      4  C   UNL     1      47.362   5.458  13.860  0.00  0.00    +0.000 A 
ATOM      5  C   UNL     1      46.412   4.713  14.551  0.00  0.00    +0.000 A 
ATOM      6  N   UNL     1      45.240   4.325  13.987  0.00  0.00    +0.000 NA
ATOM      7  C   UNL     1      45.020   4.687  12.701  0.00  0.00    +0.000 A 
BRANCH   2   8
ATOM      8  C   UNL     1      45.608   5.780  10.502  0.00  0.00    +0.000 C 
BRANCH   8  14
ATOM      9  C   UNL     1      46.691   3.431   6.176  0.00  0.00    +0.000 C 
ATOM     10  C   UNL     1      46.011   3.427   7.514  0.00  0.00    +0.000 A 
ATOM     11  C   UNL     1      45.264   2.324   7.938  0.00  0.00    +0.000 A 
ATOM     12  C   UNL     1      44.622   2.342   9.175  0.00  0.00    +0.000 A 
ATOM     13  C   UNL     1      44.728   3.461  10.003  0.00  0.00    +0.000 A 
ATOM     14  C   UNL     1      45.488   4.569   9.607  0.00  0.00    +0.000 A 
ATOM     15  C   UNL     1      46.118   4.544   8.353  0.00  0.00    +0.000 A 
ENDBRANCH   8  14
ENDBRANCH   2   8
ENDBRANCH   1   5
BRANCH   1  16
ATOM     16  N   UNL     1      48.092   4.180  16.259  0.00  0.00    +0.000 N 
ATOM     17  C   UNL     1      48.678   4.805  17.324  0.00  0.00    +0.000 C 
ATOM     18  O   UNL     1      48.038   5.497  18.111  0.00  0.00    +0.000 OA
ATOM     19  H   UNL     1      48.668   3.839  15.495  0.00  0.00    +0.000 HD
BRANCH  17  20
ATOM     20  C   UNL     1      50.111   4.537  17.529  0.00  0.00    +0.000 A 
ATOM     21  C   UNL     1      50.968   5.582  17.843  0.00  0.00    +0.000 A 
ATOM     22  S   UNL     1      52.576   5.089  18.124  0.00  0.00    +0.000 S 
ATOM     23  C   UNL     1      52.197   3.466  17.781  0.00  0.00    +0.000 A 
ATOM     24  N   UNL     1      53.153   2.497  17.825  0.00  0.00    +0.000 NA
ATOM     25  C   UNL     1      52.732   1.319  17.509  0.00  0.00    +0.000 A 
ATOM     26  N   UNL     1      51.444   1.018  17.156  0.00  0.00    +0.000 N 
ATOM     27  C   UNL     1      50.433   1.950  17.156  0.00  0.00    +0.000 A 
ATOM     28  O   UNL     1      49.274   1.628  16.927  0.00  0.00    +0.000 OA
ATOM     29  C   UNL     1      50.857   3.301  17.476  0.00  0.00    +0.000 A 
ATOM     30  H   UNL     1      51.173   0.072  16.935  0.00  0.00    +0.000 HD
ENDBRANCH  17  20
ENDBRANCH   1  16
TORSDOF 5
ENDMDL
MODEL 9
REMARK VINA RESULT:    -7.349      3.268      5.499
REMARK INTER + INTRA:         -10.056
REMARK INTER:                  -9.322
REMARK INTRA:                  -0.735
REMARK UNBOUND:                -0.559
REMARK  Name = 
REMARK  6 active torsions:
REMARK  status: ('A' for Active; 'I' for Inactive)
REMARK    1  A    between atoms: C_1  and  C_2
REMARK    2  A    between atoms: C_6  and  C_7
REMARK    3  A    between atoms: C_7  and  C_8
REMARK    4  A    between atoms: C_11  and  C_12
REMARK    5  A    between atoms: C_12  and  N_13
REMARK    6  A    between atoms: C_14  and  C_16
REMARK                            x       y       z     vdW  Elec       q    Type
REMARK                         _______ _______ _______ _____ _____    ______ ____
ROOT
ATOM      1  C   UNL     1      48.024   3.336  17.787  0.00  0.00    +0.000 C 
ENDROOT
BRANCH   1   5
ATOM      2  C   UNL     1      47.335   5.452  14.143  0.00  0.00    +0.000 A 
ATOM      3  C   UNL     1      48.073   6.062  15.159  0.00  0.00    +0.000 A 
ATOM      4  C   UNL     1      48.304   5.382  16.352  0.00  0.00    +0.000 A 
ATOM      5  C   UNL     1      47.771   4.107  16.514  0.00  0.00    +0.000 A 
ATOM      6  N   UNL     1      47.044   3.493  15.545  0.00  0.00    +0.000 NA
ATOM      7  C   UNL     1      46.853   4.171  14.389  0.00  0.00    +0.000 A 
BRANCH   2   8
ATOM      8  C   UNL     1      47.109   6.134  12.822  0.00  0.00    +0.000 C 
BRANCH   8  14
ATOM      9  C   UNL     1      44.551   4.106   8.982  0.00  0.00    +0.000 C 
ATOM     10  C   UNL     1      44.549   4.791  10.317  0.00  0.00    +0.000 A 
ATOM     11  C   UNL     1      43.351   5.105  10.963  0.00  0.00    +0.000 A 
ATOM     12  C   UNL     1      43.365   5.758  12.195  0.00  0.00    +0.000 A 
ATOM     13  C   UNL     1      44.579   6.097  12.795  0.00  0.00    +0.000 A 
ATOM     14  C   UNL     1      45.792   5.773  12.174  0.00  0.00    +0.000 A 
ATOM     15  C   UNL     1      45.765   5.128  10.928  0.00  0.00    +0.000 A 
ENDBRANCH   8  14
ENDBRANCH   2   8
ENDBRANCH   1   5
BRANCH   1  16
ATOM     16  N   UNL     1      49.430   3.087  18.008  0.00  0.00    +0.000 N 
ATOM     17  C   UNL     1      50.175   2.259  17.216  0.00  0.00    +0.000 C 
ATOM     18  O   UNL     1      49.693   1.663  16.256  0.00  0.00    +0.000 OA
ATOM     19  H   UNL     1      49.778   3.356  18.925  0.00  0.00    +0.000 HD
BRANCH  17  20
ATOM     20  C   UNL     1      51.612   2.183  17.522  0.00  0.00    +0.000 A 
ATOM     21  C   UNL     1      52.220   0.944  17.668  0.00  0.00    +0.000 A 
ATOM     22  S   UNL     1      53.900   1.031  17.944  0.00  0.00    +0.000 S 
ATOM     23  C   UNL     1      53.869   2.733  17.933  0.00  0.00    +0.000 A 
ATOM     24  N   UNL     1      55.004   3.457  18.134  0.00  0.00    +0.000 NA
ATOM     25  C   UNL     1      54.828   4.735  18.134  0.00  0.00    +0.000 A 
ATOM     26  N   UNL     1      53.622   5.357  17.952  0.00  0.00    +0.000 N 
ATOM     27  C   UNL     1      52.460   4.670  17.688  0.00  0.00    +0.000 A 
ATOM     28  O   UNL     1      51.418   5.262  17.436  0.00  0.00    +0.000 OA
ATOM     29  C   UNL     1      52.596   3.225  17.704  0.00  0.00    +0.000 A 
ATOM     30  H   UNL     1      53.551   6.363  17.948  0.00  0.00    +0.000 HD
ENDBRANCH  17  20
ENDBRANCH   1  16
TORSDOF 5
ENDMDL
