MODEL 1
REMARK VINA RESULT:    -7.730      0.000      0.000
REMARK INTER + INTRA:         -11.291
REMARK INTER:                 -10.441
REMARK INTRA:                  -0.850
REMARK UNBOUND:                -0.850
REMARK  Name = 
REMARK  7 active torsions:
REMARK  status: ('A' for Active; 'I' for Inactive)
REMARK    1  A    between atoms: C_1  and  O_2
REMARK    2  A    between atoms: O_2  and  C_3
REMARK    3  A    between atoms: C_5  and  O_6
REMARK    4  A    between atoms: O_6  and  C_7
REMARK    5  A    between atoms: C_7  and  C_8
REMARK    6  A    between atoms: C_13  and  N_14
REMARK    7  A    between atoms: C_22  and  C_23
REMARK                            x       y       z     vdW  Elec       q    Type
REMARK                         _______ _______ _______ _____ _____    ______ ____
ROOT
ATOM      1  O   UNL     1      46.226   4.248  15.139  0.00  0.00    +0.000 OA
ENDROOT
BRANCH   1   4
ATOM      2  C   UNL     1      49.101   2.584  16.606  0.00  0.00    +0.000 A 
ATOM      3  C   UNL     1      48.110   2.938  15.694  0.00  0.00    +0.000 A 
ATOM      4  C   UNL     1      47.210   3.930  16.054  0.00  0.00    +0.000 A 
ATOM      5  N   UNL     1      47.243   4.580  17.234  0.00  0.00    +0.000 NA
ATOM      6  C   UNL     1      48.215   4.204  18.105  0.00  0.00    +0.000 A 
ATOM      7  C   UNL     1      49.148   3.217  17.845  0.00  0.00    +0.000 A 
BRANCH   6   8
ATOM      8  C   UNL     1      48.235   4.935  19.410  0.00  0.00    +0.000 C 
ATOM      9  N   UNL     1      47.100   5.648  19.695  0.00  0.00    +0.000 N 
ATOM     10  O   UNL     1      49.191   4.907  20.175  0.00  0.00    +0.000 OA
ATOM     11  H   UNL     1      46.330   5.647  19.038  0.00  0.00    +0.000 HD
ATOM     12  H   UNL     1      47.040   6.167  20.559  0.00  0.00    +0.000 HD
ENDBRANCH   6   8
BRANCH   2  14
ATOM     13  C   UNL     1      51.142   1.619  17.322  0.00  0.00    +0.000 C 
ATOM     14  O   UNL     1      50.039   1.608  16.422  0.00  0.00    +0.000 OA
ENDBRANCH   2  14
ENDBRANCH   1   4
BRANCH   1  15
ATOM     15  C   UNL     1      46.657   4.031  13.794  0.00  0.00    +0.000 C 
BRANCH  15  16
ATOM     16  C   UNL     1      45.482   4.137  12.858  0.00  0.00    +0.000 A 
ATOM     17  C   UNL     1      44.298   4.752  13.262  0.00  0.00    +0.000 A 
ATOM     18  C   UNL     1      43.258   4.885  12.354  0.00  0.00    +0.000 A 
ATOM     19  F   UNL     1      42.126   5.490  12.738  0.00  0.00    +0.000 F 
ATOM     20  C   UNL     1      43.370   4.409  11.048  0.00  0.00    +0.000 A 
ATOM     21  C   UNL     1      44.533   3.763  10.610  0.00  0.00    +0.000 A 
ATOM     22  C   UNL     1      45.575   3.637  11.545  0.00  0.00    +0.000 A 
BRANCH  21  23
ATOM     23  N   UNL     1      44.675   3.292   9.317  0.00  0.00    +0.000 N 
ATOM     24  C   UNL     1      44.702   1.863   9.002  0.00  0.00    +0.000 C 
ATOM     25  C   UNL     1      46.066   1.477   8.435  0.00  0.00    +0.000 C 
ATOM     26  C   UNL     1      46.443   2.369   7.252  0.00  0.00    +0.000 C 
ATOM     27  C   UNL     1      46.358   3.846   7.632  0.00  0.00    +0.000 C 
ATOM     28  C   UNL     1      44.987   4.200   8.211  0.00  0.00    +0.000 C 
ENDBRANCH  21  23
ENDBRANCH  15  16
ENDBRANCH   1  15
TORSDOF 6
ENDMDL
MODEL 2
REMARK VINA RESULT:    -7.644      1.423      2.583
REMARK INTER + INTRA:         -11.175
REMARK INTER:                 -10.298
REMARK INTRA:                  -0.878
REMARK UNBOUND:                -0.850
REMARK  Name = 
REMARK  7 active torsions:
REMARK  status: ('A' for Active; 'I' for Inactive)
REMARK    1  A    between atoms: C_1  and  O_2
REMARK    2  A    between atoms: O_2  and  C_3
REMARK    3  A    between atoms: C_5  and  O_6
REMARK    4  A    between atoms: O_6  and  C_7
REMARK    5  A    between atoms: C_7  and  C_8
REMARK    6  A    between atoms: C_13  and  N_14
REMARK    7  A    between atoms: C_22  and  C_23
REMARK                            x       y       z     vdW  Elec       q    Type
REMARK                         _______ _______ _______ _____ _____    ______ ____
ROOT
ATOM      1  O   UNL     1      47.005   3.131  14.741  0.00  0.00    +0.000 OA
ENDROOT
BRANCH   1   4
ATOM      2  C   UNL     1      48.205   4.811  17.729  0.00  0.00    +0.000 A 
ATOM      3  C   UNL     1      47.418   4.494  16.625  0.00  0.00    +0.000 A 
ATOM      4  C   UNL     1      47.792   3.412  15.841  0.00  0.00    +0.000 A 
ATOM      5  N   UNL     1      48.869   2.642  16.090  0.00  0.00    +0.000 NA
ATOM      6  C   UNL     1      49.622   2.984  17.167  0.00  0.00    +0.000 A 
ATOM      7  C   UNL     1      49.340   4.052  18.001  0.00  0.00    +0.000 A 
BRANCH   6   8
ATOM      8  C   UNL     1      50.814   2.119  17.427  0.00  0.00    +0.000 C 
ATOM      9  N   UNL     1      51.764   2.670  18.246  0.00  0.00    +0.000 N 
ATOM     10  O   UNL     1      50.943   1.000  16.947  0.00  0.00    +0.000 OA
ATOM     11  H   UNL     1      51.621   3.598  18.625  0.00  0.00    +0.000 HD
ATOM     12  H   UNL     1      52.598   2.145  18.468  0.00  0.00    +0.000 HD
ENDBRANCH   6   8
BRANCH   2  14
ATOM     13  C   UNL     1      48.354   7.147  18.087  0.00  0.00    +0.000 C 
ATOM     14  O   UNL     1      47.997   5.859  18.579  0.00  0.00    +0.000 OA
ENDBRANCH   2  14
ENDBRANCH   1   4
BRANCH   1  15
ATOM     15  C   UNL     1      47.101   4.149  13.743  0.00  0.00    +0.000 C 
BRANCH  15  16
ATOM     16  C   UNL     1      45.833   4.188  12.930  0.00  0.00    +0.000 A 
ATOM     17  C   UNL     1      44.656   4.710  13.465  0.00  0.00    +0.000 A 
ATOM     18  C   UNL     1      43.525   4.786  12.667  0.00  0.00    +0.000 A 
ATOM     19  F   UNL     1      42.398   5.303  13.177  0.00  0.00    +0.000 F 
ATOM     20  C   UNL     1      43.537   4.344  11.346  0.00  0.00    +0.000 A 
ATOM     21  C   UNL     1      44.691   3.790  10.778  0.00  0.00    +0.000 A 
ATOM     22  C   UNL     1      45.829   3.721  11.602  0.00  0.00    +0.000 A 
BRANCH  21  23
ATOM     23  N   UNL     1      44.735   3.354   9.466  0.00  0.00    +0.000 N 
ATOM     24  C   UNL     1      44.728   1.934   9.111  0.00  0.00    +0.000 C 
ATOM     25  C   UNL     1      46.044   1.556   8.435  0.00  0.00    +0.000 C 
ATOM     26  C   UNL     1      46.341   2.478   7.253  0.00  0.00    +0.000 C 
ATOM     27  C   UNL     1      46.294   3.945   7.678  0.00  0.00    +0.000 C 
ATOM     28  C   UNL     1      44.972   4.291   8.365  0.00  0.00    +0.000 C 
ENDBRANCH  21  23
ENDBRANCH  15  16
ENDBRANCH   1  15
TORSDOF 6
ENDMDL
MODEL 3
REMARK VINA RESULT:    -7.379      2.164      2.969
REMARK INTER + INTRA:         -10.817
REMARK INTER:                  -9.840
REMARK INTRA:                  -0.976
REMARK UNBOUND:                -0.850
REMARK  Name = 
REMARK  7 active torsions:
REMARK  status: ('A' for Active; 'I' for Inactive)
REMARK    1  A    between atoms: C_1  and  O_2
REMARK    2  A    between atoms: O_2  and  C_3
REMARK    3  A    between atoms: C_5  and  O_6
REMARK    4  A    between atoms: O_6  and  C_7
REMARK    5  A    between atoms: C_7  and  C_8
REMARK    6  A    between atoms: C_13  and  N_14
REMARK    7  A    between atoms: C_22  and  C_23
REMARK                            x       y       z     vdW  Elec       q    Type
REMARK                         _______ _______ _______ _____ _____    ______ ____
ROOT
ATOM      1  O   UNL     1      48.052   5.742  13.231  0.00  0.00    +0.000 OA
ENDROOT
BRANCH   1   4
ATOM      2  C   UNL     1      48.815   7.071  16.523  0.00  0.00    +0.000 A 
ATOM      3  C   UNL     1      48.667   6.986  15.141  0.00  0.00    +0.000 A 
ATOM      4  C   UNL     1      48.170   5.807  14.605  0.00  0.00    +0.000 A 
ATOM      5  N   UNL     1      47.814   4.739  15.345  0.00  0.00    +0.000 NA
ATOM      6  C   UNL     1      47.980   4.850  16.688  0.00  0.00    +0.000 A 
ATOM      7  C   UNL     1      48.481   5.977  17.316  0.00  0.00    +0.000 A 
BRANCH   6   8
ATOM      8  C   UNL     1      47.580   3.654  17.493  0.00  0.00    +0.000 C 
ATOM      9  N   UNL     1      48.506   3.236  18.413  0.00  0.00    +0.000 N 
ATOM     10  O   UNL     1      46.508   3.081  17.347  0.00  0.00    +0.000 OA
ATOM     11  H   UNL     1      49.382   3.737  18.505  0.00  0.00    +0.000 HD
ATOM     12  H   UNL     1      48.306   2.436  18.994  0.00  0.00    +0.000 HD
ENDBRANCH   6   8
BRANCH   2  14
ATOM     13  C   UNL     1      48.577   9.354  17.109  0.00  0.00    +0.000 C 
ATOM     14  O   UNL     1      49.319   8.143  17.204  0.00  0.00    +0.000 OA
ENDBRANCH   2  14
ENDBRANCH   1   4
BRANCH   1  15
ATOM     15  C   UNL     1      46.891   6.432  12.762  0.00  0.00    +0.000 C 
BRANCH  15  16
ATOM     16  C   UNL     1      45.822   5.438  12.389  0.00  0.00    +0.000 A 
ATOM     17  C   UNL     1      44.819   5.093  13.293  0.00  0.00    +0.000 A 
ATOM     18  C   UNL     1      43.817   4.221  12.894  0.00  0.00    +0.000 A 
ATOM     19  F   UNL     1      42.844   3.902  13.758  0.00  0.00    +0.000 F 
ATOM     20  C   UNL     1      43.797   3.676  11.611  0.00  0.00    +0.000 A 
ATOM     21  C   UNL     1      44.800   3.978  10.681  0.00  0.00    +0.000 A 
ATOM     22  C   UNL     1      45.808   4.863  11.104  0.00  0.00    +0.000 A 
BRANCH  21  23
ATOM     23  N   UNL     1      44.799   3.461   9.398  0.00  0.00    +0.000 N 
ATOM     24  C   UNL     1      44.719   2.024   9.131  0.00  0.00    +0.000 C 
ATOM     25  C   UNL     1      46.003   1.543   8.460  0.00  0.00    +0.000 C 
ATOM     26  C   UNL     1      46.321   2.375   7.219  0.00  0.00    +0.000 C 
ATOM     27  C   UNL     1      46.352   3.866   7.553  0.00  0.00    +0.000 C 
ATOM     28  C   UNL     1      45.060   4.316   8.238  0.00  0.00    +0.000 C 
ENDBRANCH  21  23
ENDBRANCH  15  16
ENDBRANCH   1  15
TORSDOF 6
ENDMDL
MODEL 4
REMARK VINA RESULT:    -7.153      3.606      8.223
REMARK INTER + INTRA:         -10.511
REMARK INTER:                  -9.513
REMARK INTRA:                  -0.998
REMARK UNBOUND:                -0.850
REMARK  Name = 
REMARK  7 active torsions:
REMARK  status: ('A' for Active; 'I' for Inactive)
REMARK    1  A    between atoms: C_1  and  O_2
REMARK    2  A    between atoms: O_2  and  C_3
REMARK    3  A    between atoms: C_5  and  O_6
REMARK    4  A    between atoms: O_6  and  C_7
REMARK    5  A    between atoms: C_7  and  C_8
REMARK    6  A    between atoms: C_13  and  N_14
REMARK    7  A    between atoms: C_22  and  C_23
REMARK                            x       y       z     vdW  Elec       q    Type
REMARK                         _______ _______ _______ _____ _____    ______ ____
ROOT
ATOM      1  O   UNL     1      46.433   6.733  11.107  0.00  0.00    +0.000 OA
ENDROOT
BRANCH   1   4
ATOM      2  C   UNL     1      45.226   4.251   8.747  0.00  0.00    +0.000 A 
ATOM      3  C   UNL     1      45.902   5.352   9.267  0.00  0.00    +0.000 A 
ATOM      4  C   UNL     1      45.769   5.624  10.621  0.00  0.00    +0.000 A 
ATOM      5  N   UNL     1      45.031   4.879  11.467  0.00  0.00    +0.000 NA
ATOM      6  C   UNL     1      44.377   3.819  10.926  0.00  0.00    +0.000 A 
ATOM      7  C   UNL     1      44.434   3.475   9.587  0.00  0.00    +0.000 A 
BRANCH   6   8
ATOM      8  C   UNL     1      43.561   3.004  11.879  0.00  0.00    +0.000 C 
ATOM      9  N   UNL     1      43.605   3.420  13.184  0.00  0.00    +0.000 N 
ATOM     10  O   UNL     1      42.901   2.034  11.530  0.00  0.00    +0.000 OA
ATOM     11  H   UNL     1      44.162   4.228  13.434  0.00  0.00    +0.000 HD
ATOM     12  H   UNL     1      43.079   2.919  13.886  0.00  0.00    +0.000 HD
ENDBRANCH   6   8
BRANCH   2  14
ATOM     13  C   UNL     1      46.453   3.362   6.926  0.00  0.00    +0.000 C 
ATOM     14  O   UNL     1      45.223   3.868   7.436  0.00  0.00    +0.000 OA
ENDBRANCH   2  14
ENDBRANCH   1   4
BRANCH   1  15
ATOM     15  C   UNL     1      46.095   7.003  12.469  0.00  0.00    +0.000 C 
BRANCH  15  16
ATOM     16  C   UNL     1      47.337   6.969  13.321  0.00  0.00    +0.000 A 
ATOM     17  C   UNL     1      48.441   7.761  13.009  0.00  0.00    +0.000 A 
ATOM     18  C   UNL     1      49.543   7.749  13.849  0.00  0.00    +0.000 A 
ATOM     19  F   UNL     1      50.598   8.523  13.558  0.00  0.00    +0.000 F 
ATOM     20  C   UNL     1      49.574   6.955  14.995  0.00  0.00    +0.000 A 
ATOM     21  C   UNL     1      48.497   6.126  15.331  0.00  0.00    +0.000 A 
ATOM     22  C   UNL     1      47.388   6.152  14.466  0.00  0.00    +0.000 A 
BRANCH  21  23
ATOM     23  N   UNL     1      48.496   5.337  16.466  0.00  0.00    +0.000 N 
ATOM     24  C   UNL     1      49.584   5.368  17.444  0.00  0.00    +0.000 C 
ATOM     25  C   UNL     1      50.294   4.017  17.482  0.00  0.00    +0.000 C 
ATOM     26  C   UNL     1      49.301   2.879  17.713  0.00  0.00    +0.000 C 
ATOM     27  C   UNL     1      48.169   2.924  16.688  0.00  0.00    +0.000 C 
ATOM     28  C   UNL     1      47.487   4.293  16.661  0.00  0.00    +0.000 C 
ENDBRANCH  21  23
ENDBRANCH  15  16
ENDBRANCH   1  15
TORSDOF 6
ENDMDL
MODEL 5
REMARK VINA RESULT:    -7.110      1.741      2.843
REMARK INTER + INTRA:         -10.453
REMARK INTER:                  -9.550
REMARK INTRA:                  -0.902
REMARK UNBOUND:                -0.850
REMARK  Name = 
REMARK  7 active torsions:
REMARK  status: ('A' for Active; 'I' for Inactive)
REMARK    1  A    between atoms: C_1  and  O_2
REMARK    2  A    between atoms: O_2  and  C_3
REMARK    3  A    between atoms: C_5  and  O_6
REMARK    4  A    between atoms: O_6  and  C_7
REMARK    5  A    between atoms: C_7  and  C_8
REMARK    6  A    between atoms: C_13  and  N_14
REMARK    7  A    between atoms: C_22  and  C_23
REMARK                            x       y       z     vdW  Elec       q    Type
REMARK                         _______ _______ _______ _____ _____    ______ ____
ROOT
ATOM      1  O   UNL     1      46.564   3.838  15.628  0.00  0.00    +0.000 OA
ENDROOT
BRANCH   1   4
ATOM      2  C   UNL     1      48.542   5.124  18.388  0.00  0.00    +0.000 A 
ATOM      3  C   UNL     1      47.510   4.981  17.465  0.00  0.00    +0.000 A 
ATOM      4  C   UNL     1      47.591   3.947  16.544  0.00  0.00    +0.000 A 
ATOM      5  N   UNL     1      48.609   3.066  16.494  0.00  0.00    +0.000 NA
ATOM      6  C   UNL     1      49.605   3.239  17.400  0.00  0.00    +0.000 A 
ATOM      7  C   UNL     1      49.623   4.247  18.348  0.00  0.00    +0.000 A 
BRANCH   6   8
ATOM      8  C   UNL     1      50.727   2.253  17.329  0.00  0.00    +0.000 C 
ATOM      9  N   UNL     1      51.800   2.533  18.133  0.00  0.00    +0.000 N 
ATOM     10  O   UNL     1      50.701   1.264  16.606  0.00  0.00    +0.000 OA
ATOM     11  H   UNL     1      51.785   3.360  18.718  0.00  0.00    +0.000 HD
ATOM     12  H   UNL     1      52.596   1.912  18.140  0.00  0.00    +0.000 HD
ENDBRANCH   6   8
BRANCH   2  14
ATOM     13  C   UNL     1      49.705   7.028  19.184  0.00  0.00    +0.000 C 
ATOM     14  O   UNL     1      48.632   6.105  19.334  0.00  0.00    +0.000 OA
ENDBRANCH   2  14
ENDBRANCH   1   4
BRANCH   1  15
ATOM     15  C   UNL     1      47.048   3.562  14.312  0.00  0.00    +0.000 C 
BRANCH  15  16
ATOM     16  C   UNL     1      46.292   4.389  13.305  0.00  0.00    +0.000 A 
ATOM     17  C   UNL     1      45.972   5.720  13.569  0.00  0.00    +0.000 A 
ATOM     18  C   UNL     1      45.329   6.469  12.594  0.00  0.00    +0.000 A 
ATOM     19  F   UNL     1      45.035   7.753  12.842  0.00  0.00    +0.000 F 
ATOM     20  C   UNL     1      44.990   5.916  11.361  0.00  0.00    +0.000 A 
ATOM     21  C   UNL     1      45.272   4.576  11.065  0.00  0.00    +0.000 A 
ATOM     22  C   UNL     1      45.923   3.833  12.066  0.00  0.00    +0.000 A 
BRANCH  21  23
ATOM     23  N   UNL     1      44.957   4.006   9.846  0.00  0.00    +0.000 N 
ATOM     24  C   UNL     1      44.509   2.618   9.721  0.00  0.00    +0.000 C 
ATOM     25  C   UNL     1      45.531   1.806   8.928  0.00  0.00    +0.000 C 
ATOM     26  C   UNL     1      45.839   2.469   7.586  0.00  0.00    +0.000 C 
ATOM     27  C   UNL     1      46.261   3.924   7.779  0.00  0.00    +0.000 C 
ATOM     28  C   UNL     1      45.228   4.708   8.589  0.00  0.00    +0.000 C 
ENDBRANCH  21  23
ENDBRANCH  15  16
ENDBRANCH   1  15
TORSDOF 6
ENDMDL
MODEL 6
REMARK VINA RESULT:    -6.923      3.416      9.174
REMARK INTER + INTRA:         -10.201
REMARK INTER:                  -9.301
REMARK INTRA:                  -0.900
REMARK UNBOUND:                -0.850
REMARK  Name = 
REMARK  7 active torsions:
REMARK  status: ('A' for Active; 'I' for Inactive)
REMARK    1  A    between atoms: C_1  and  O_2
REMARK    2  A    between atoms: O_2  and  C_3
REMARK    3  A    between atoms: C_5  and  O_6
REMARK    4  A    between atoms: O_6  and  C_7
REMARK    5  A    between atoms: C_7  and  C_8
REMARK    6  A    between atoms: C_13  and  N_14
REMARK    7  A    between atoms: C_22  and  C_23
REMARK                            x       y       z     vdW  Elec       q    Type
REMARK                         _______ _______ _______ _____ _____    ______ ____
ROOT
ATOM      1  O   UNL     1      47.417   3.123  14.559  0.00  0.00    +0.000 OA
ENDROOT
BRANCH   1   4
ATOM      2  C   UNL     1      46.166   5.853  12.517  0.00  0.00    +0.000 A 
ATOM      3  C   UNL     1      46.907   5.153  13.466  0.00  0.00    +0.000 A 
ATOM      4  C   UNL     1      46.683   3.790  13.598  0.00  0.00    +0.000 A 
ATOM      5  N   UNL     1      45.796   3.100  12.856  0.00  0.00    +0.000 NA
ATOM      6  C   UNL     1      45.082   3.814  11.947  0.00  0.00    +0.000 A 
ATOM      7  C   UNL     1      45.221   5.177  11.751  0.00  0.00    +0.000 A 
BRANCH   6   8
ATOM      8  C   UNL     1      44.101   3.032  11.133  0.00  0.00    +0.000 C 
ATOM      9  N   UNL     1      44.644   2.308  10.105  0.00  0.00    +0.000 N 
ATOM     10  O   UNL     1      42.897   3.033  11.359  0.00  0.00    +0.000 OA
ATOM     11  H   UNL     1      45.645   2.332   9.950  0.00  0.00    +0.000 HD
ATOM     12  H   UNL     1      44.044   1.754   9.511  0.00  0.00    +0.000 HD
ENDBRANCH   6   8
BRANCH   2  14
ATOM     13  C   UNL     1      45.066   7.810  11.761  0.00  0.00    +0.000 C 
ATOM     14  O   UNL     1      46.239   7.198  12.286  0.00  0.00    +0.000 OA
ENDBRANCH   2  14
ENDBRANCH   1   4
BRANCH   1  15
ATOM     15  C   UNL     1      47.285   3.729  15.847  0.00  0.00    +0.000 C 
BRANCH  15  16
ATOM     16  C   UNL     1      48.574   3.585  16.614  0.00  0.00    +0.000 A 
ATOM     17  C   UNL     1      49.225   2.355  16.694  0.00  0.00    +0.000 A 
ATOM     18  C   UNL     1      50.440   2.273  17.357  0.00  0.00    +0.000 A 
ATOM     19  F   UNL     1      51.075   1.094  17.420  0.00  0.00    +0.000 F 
ATOM     20  C   UNL     1      51.019   3.393  17.952  0.00  0.00    +0.000 A 
ATOM     21  C   UNL     1      50.386   4.641  17.916  0.00  0.00    +0.000 A 
ATOM     22  C   UNL     1      49.154   4.704  17.240  0.00  0.00    +0.000 A 
BRANCH  21  23
ATOM     23  N   UNL     1      50.943   5.770  18.487  0.00  0.00    +0.000 N 
ATOM     24  C   UNL     1      51.276   5.847  19.910  0.00  0.00    +0.000 C 
ATOM     25  C   UNL     1      50.415   6.906  20.595  0.00  0.00    +0.000 C 
ATOM     26  C   UNL     1      50.518   8.249  19.873  0.00  0.00    +0.000 C 
ATOM     27  C   UNL     1      50.198   8.098  18.387  0.00  0.00    +0.000 C 
ATOM     28  C   UNL     1      51.063   7.020  17.731  0.00  0.00    +0.000 C 
ENDBRANCH  21  23
ENDBRANCH  15  16
ENDBRANCH   1  15
TORSDOF 6
ENDMDL
MODEL 7
REMARK VINA RESULT:    -6.860      2.985      4.420
REMARK INTER + INTRA:         -10.116
REMARK INTER:                  -9.013
REMARK INTRA:                  -1.103
REMARK UNBOUND:                -0.850
REMARK  Name = 
REMARK  7 active torsions:
REMARK  status: ('A' for Active; 'I' for Inactive)
REMARK    1  A    between atoms: C_1  and  O_2
REMARK    2  A    between atoms: O_2  and  C_3
REMARK    3  A    between atoms: C_5  and  O_6
REMARK    4  A    between atoms: O_6  and  C_7
REMARK    5  A    between atoms: C_7  and  C_8
REMARK    6  A    between atoms: C_13  and  N_14
REMARK    7  A    between atoms: C_22  and  C_23
REMARK                            x       y       z     vdW  Elec       q    Type
REMARK                         _______ _______ _______ _____ _____    ______ ____
ROOT
ATOM      1  O   UNL     1      49.101   7.558  14.656  0.00  0.00    +0.000 OA
ENDROOT
BRANCH   1   4
ATOM      2  C   UNL     1      48.552   6.685  18.138  0.00  0.00    +0.000 A 
ATOM      3  C   UNL     1      48.846   7.431  17.000  0.00  0.00    +0.000 A 
ATOM      4  C   UNL     1      48.786   6.799  15.766  0.00  0.00    +0.000 A 
ATOM      5  N   UNL     1      48.451   5.505  15.602  0.00  0.00    +0.000 NA
ATOM      6  C   UNL     1      48.180   4.802  16.732  0.00  0.00    +0.000 A 
ATOM      7  C   UNL     1      48.227   5.338  18.007  0.00  0.00    +0.000 A 
BRANCH   6   8
ATOM      8  C   UNL     1      47.811   3.367  16.530  0.00  0.00    +0.000 C 
ATOM      9  N   UNL     1      47.017   2.828  17.508  0.00  0.00    +0.000 N 
ATOM     10  O   UNL     1      48.188   2.711  15.567  0.00  0.00    +0.000 OA
ATOM     11  H   UNL     1      46.724   3.403  18.289  0.00  0.00    +0.000 HD
ATOM     12  H   UNL     1      46.725   1.864  17.440  0.00  0.00    +0.000 HD
ENDBRANCH   6   8
BRANCH   2  14
ATOM     13  C   UNL     1      47.607   8.099  19.785  0.00  0.00    +0.000 C 
ATOM     14  O   UNL     1      48.598   7.144  19.423  0.00  0.00    +0.000 OA
ENDBRANCH   2  14
ENDBRANCH   1   4
BRANCH   1  15
ATOM     15  C   UNL     1      48.815   6.867  13.438  0.00  0.00    +0.000 C 
BRANCH  15  16
ATOM     16  C   UNL     1      47.476   7.306  12.905  0.00  0.00    +0.000 A 
ATOM     17  C   UNL     1      47.196   8.656  12.695  0.00  0.00    +0.000 A 
ATOM     18  C   UNL     1      45.976   9.018  12.146  0.00  0.00    +0.000 A 
ATOM     19  F   UNL     1      45.714  10.315  11.931  0.00  0.00    +0.000 F 
ATOM     20  C   UNL     1      45.020   8.062  11.807  0.00  0.00    +0.000 A 
ATOM     21  C   UNL     1      45.251   6.698  12.024  0.00  0.00    +0.000 A 
ATOM     22  C   UNL     1      46.494   6.350  12.582  0.00  0.00    +0.000 A 
BRANCH  21  23
ATOM     23  N   UNL     1      44.326   5.728  11.686  0.00  0.00    +0.000 N 
ATOM     24  C   UNL     1      43.239   5.333  12.584  0.00  0.00    +0.000 C 
ATOM     25  C   UNL     1      43.414   3.877  13.010  0.00  0.00    +0.000 C 
ATOM     26  C   UNL     1      43.561   2.962  11.794  0.00  0.00    +0.000 C 
ATOM     27  C   UNL     1      44.682   3.448  10.877  0.00  0.00    +0.000 C 
ATOM     28  C   UNL     1      44.490   4.912  10.480  0.00  0.00    +0.000 C 
ENDBRANCH  21  23
ENDBRANCH  15  16
ENDBRANCH   1  15
TORSDOF 6
ENDMDL
MODEL 8
REMARK VINA RESULT:    -6.787      3.099      4.601
REMARK INTER + INTRA:         -10.017
REMARK INTER:                  -9.002
REMARK INTRA:                  -1.015
REMARK UNBOUND:                -0.850
REMARK  Name = 
REMARK  7 active torsions:
REMARK  status: ('A' for Active; 'I' for Inactive)
REMARK    1  A    between atoms: C_1  and  O_2
REMARK    2  A    between atoms: O_2  and  C_3
REMARK    3  A    between atoms: C_5  and  O_6
REMARK    4  A    between atoms: O_6  and  C_7
REMARK    5  A    between atoms: C_7  and  C_8
REMARK    6  A    between atoms: C_13  and  N_14
REMARK    7  A    between atoms: C_22  and  C_23
REMARK                            x       y       z     vdW  Elec       q    Type
REMARK                         _______ _______ _______ _____ _____    ______ ____
ROOT
ATOM      1  O   UNL     1      48.468   6.568  16.529  0.00  0.00    +0.000 OA
ENDROOT
BRANCH   1   4
ATOM      2  C   UNL     1      48.708   4.465  19.480  0.00  0.00    +0.000 A 
ATOM      3  C   UNL     1      48.456   5.568  18.668  0.00  0.00    +0.000 A 
ATOM      4  C   UNL     1      48.708   5.454  17.308  0.00  0.00    +0.000 A 
ATOM      5  N   UNL     1      49.174   4.333  16.724  0.00  0.00    +0.000 NA
ATOM      6  C   UNL     1      49.420   3.279  17.544  0.00  0.00    +0.000 A 
ATOM      7  C   UNL     1      49.216   3.300  18.913  0.00  0.00    +0.000 A 
BRANCH   6   8
ATOM      8  C   UNL     1      49.938   2.045  16.878  0.00  0.00    +0.000 C 
ATOM      9  N   UNL     1      50.930   1.390  17.559  0.00  0.00    +0.000 N 
ATOM     10  O   UNL     1      49.516   1.641  15.801  0.00  0.00    +0.000 OA
ATOM     11  H   UNL     1      51.253   1.754  18.447  0.00  0.00    +0.000 HD
ATOM     12  H   UNL     1      51.330   0.547  17.171  0.00  0.00    +0.000 HD
ENDBRANCH   6   8
BRANCH   2  14
ATOM     13  C   UNL     1      49.501   5.150  21.604  0.00  0.00    +0.000 C 
ATOM     14  O   UNL     1      48.548   4.423  20.836  0.00  0.00    +0.000 OA
ENDBRANCH   2  14
ENDBRANCH   1   4
BRANCH   1  15
ATOM     15  C   UNL     1      49.488   6.764  15.548  0.00  0.00    +0.000 C 
BRANCH  15  16
ATOM     16  C   UNL     1      48.861   6.971  14.194  0.00  0.00    +0.000 A 
ATOM     17  C   UNL     1      49.488   7.758  13.228  0.00  0.00    +0.000 A 
ATOM     18  C   UNL     1      48.911   7.877  11.972  0.00  0.00    +0.000 A 
ATOM     19  F   UNL     1      49.522   8.620  11.039  0.00  0.00    +0.000 F 
ATOM     20  C   UNL     1      47.715   7.234  11.659  0.00  0.00    +0.000 A 
ATOM     21  C   UNL     1      47.041   6.455  12.608  0.00  0.00    +0.000 A 
ATOM     22  C   UNL     1      47.640   6.347  13.876  0.00  0.00    +0.000 A 
BRANCH  21  23
ATOM     23  N   UNL     1      45.859   5.798  12.321  0.00  0.00    +0.000 N 
ATOM     24  C   UNL     1      45.342   4.712  13.155  0.00  0.00    +0.000 C 
ATOM     25  C   UNL     1      45.324   3.406  12.364  0.00  0.00    +0.000 C 
ATOM     26  C   UNL     1      44.569   3.572  11.045  0.00  0.00    +0.000 C 
ATOM     27  C   UNL     1      45.128   4.743  10.239  0.00  0.00    +0.000 C 
ATOM     28  C   UNL     1      45.149   6.033  11.060  0.00  0.00    +0.000 C 
ENDBRANCH  21  23
ENDBRANCH  15  16
ENDBRANCH   1  15
TORSDOF 6
ENDMDL
MODEL 9
REMARK VINA RESULT:    -6.461      3.262      4.941
REMARK INTER + INTRA:          -9.577
REMARK INTER:                  -8.500
REMARK INTRA:                  -1.077
REMARK UNBOUND:                -0.850
REMARK  Name = 
REMARK  7 active torsions:
REMARK  status: ('A' for Active; 'I' for Inactive)
REMARK    1  A    between atoms: C_1  and  O_2
REMARK    2  A    between atoms: O_2  and  C_3
REMARK    3  A    between atoms: C_5  and  O_6
REMARK    4  A    between atoms: O_6  and  C_7
REMARK    5  A    between atoms: C_7  and  C_8
REMARK    6  A    between atoms: C_13  and  N_14
REMARK    7  A    between atoms: C_22  and  C_23
REMARK                            x       y       z     vdW  Elec       q    Type
REMARK                         _______ _______ _______ _____ _____    ______ ____
ROOT
ATOM      1  O   UNL     1      46.592   3.915  15.620  0.00  0.00    +0.000 OA
ENDROOT
BRANCH   1   4
ATOM      2  C   UNL     1      48.370   4.944  18.615  0.00  0.00    +0.000 A 
ATOM      3  C   UNL     1      47.395   4.873  17.623  0.00  0.00    +0.000 A 
ATOM      4  C   UNL     1      47.564   3.951  16.601  0.00  0.00    +0.000 A 
ATOM      5  N   UNL     1      48.613   3.111  16.514  0.00  0.00    +0.000 NA
ATOM      6  C   UNL     1      49.552   3.211  17.490  0.00  0.00    +0.000 A 
ATOM      7  C   UNL     1      49.481   4.108  18.542  0.00  0.00    +0.000 A 
BRANCH   6   8
ATOM      8  C   UNL     1      50.710   2.272  17.378  0.00  0.00    +0.000 C 
ATOM      9  N   UNL     1      51.780   2.569  18.180  0.00  0.00    +0.000 N 
ATOM     10  O   UNL     1      50.713   1.306  16.625  0.00  0.00    +0.000 OA
ATOM     11  H   UNL     1      51.740   3.377  18.789  0.00  0.00    +0.000 HD
ATOM     12  H   UNL     1      52.599   1.980  18.159  0.00  0.00    +0.000 HD
ENDBRANCH   6   8
BRANCH   2  14
ATOM     13  C   UNL     1      47.801   7.096  19.422  0.00  0.00    +0.000 C 
ATOM     14  O   UNL     1      48.373   5.816  19.666  0.00  0.00    +0.000 OA
ENDBRANCH   2  14
ENDBRANCH   1   4
BRANCH   1  15
ATOM     15  C   UNL     1      47.135   3.573  14.343  0.00  0.00    +0.000 C 
BRANCH  15  16
ATOM     16  C   UNL     1      46.687   4.576  13.312  0.00  0.00    +0.000 A 
ATOM     17  C   UNL     1      45.490   4.403  12.618  0.00  0.00    +0.000 A 
ATOM     18  C   UNL     1      45.079   5.377  11.721  0.00  0.00    +0.000 A 
ATOM     19  F   UNL     1      43.921   5.218  11.065  0.00  0.00    +0.000 F 
ATOM     20  C   UNL     1      45.842   6.522  11.493  0.00  0.00    +0.000 A 
ATOM     21  C   UNL     1      47.062   6.722  12.151  0.00  0.00    +0.000 A 
ATOM     22  C   UNL     1      47.462   5.723  13.056  0.00  0.00    +0.000 A 
BRANCH  21  23
ATOM     23  N   UNL     1      47.833   7.853  11.952  0.00  0.00    +0.000 N 
ATOM     24  C   UNL     1      49.218   7.786  11.486  0.00  0.00    +0.000 C 
ATOM     25  C   UNL     1      50.161   8.313  12.565  0.00  0.00    +0.000 C 
ATOM     26  C   UNL     1      49.742   9.708  13.029  0.00  0.00    +0.000 C 
ATOM     27  C   UNL     1      48.278   9.722  13.465  0.00  0.00    +0.000 C 
ATOM     28  C   UNL     1      47.359   9.175  12.371  0.00  0.00    +0.000 C 
ENDBRANCH  21  23
ENDBRANCH  15  16
ENDBRANCH   1  15
TORSDOF 6
ENDMDL
