MODEL 1
REMARK VINA RESULT:    -7.547      0.000      0.000
REMARK INTER + INTRA:         -12.679
REMARK INTER:                 -11.518
REMARK INTRA:                  -1.161
REMARK UNBOUND:                -1.161
REMARK  Name = 
REMARK  9 active torsions:
REMARK  status: ('A' for Active; 'I' for Inactive)
REMARK    1  A    between atoms: C_2  and  C_3
REMARK    2  A    between atoms: C_4  and  C_5
REMARK    3  A    between atoms: C_8  and  N_9
REMARK    4  A    between atoms: N_9  and  C_10
REMARK    5  A    between atoms: C_10  and  C_11
REMARK    6  A    between atoms: C_11  and  C_12
REMARK    7  A    between atoms: C_16  and  O_17
REMARK    8  A    between atoms: O_17  and  C_18
REMARK    9  A    between atoms: C_25  and  C_26
REMARK                            x       y       z     vdW  Elec       q    Type
REMARK                         _______ _______ _______ _____ _____    ______ ____
ROOT
ATOM      1  N   UNL     1      46.823   6.330  12.798  0.00  0.00    +0.000 N 
ATOM      2  H   UNL     1      47.253   5.918  11.981  0.00  0.00    +0.000 HD
ENDROOT
BRANCH   1   6
ATOM      3  C   UNL     1      48.742   5.560  16.403  0.00  0.00    +0.000 A 
ATOM      4  C   UNL     1      48.913   6.709  15.641  0.00  0.00    +0.000 A 
ATOM      5  N   UNL     1      48.274   6.971  14.474  0.00  0.00    +0.000 NA
ATOM      6  C   UNL     1      47.432   6.042  13.994  0.00  0.00    +0.000 A 
ATOM      7  C   UNL     1      47.200   4.859  14.693  0.00  0.00    +0.000 A 
ATOM      8  C   UNL     1      47.834   4.622  15.912  0.00  0.00    +0.000 A 
BRANCH   8   9
ATOM      9  C   UNL     1      47.531   3.349  16.623  0.00  0.00    +0.000 C 
ATOM     10  N   UNL     1      48.428   2.320  16.485  0.00  0.00    +0.000 N 
ATOM     11  O   UNL     1      46.525   3.196  17.302  0.00  0.00    +0.000 OA
ATOM     12  H   UNL     1      49.196   2.313  15.829  0.00  0.00    +0.000 HD
ATOM     13  H   UNL     1      48.183   1.439  16.925  0.00  0.00    +0.000 HD
ENDBRANCH   8   9
BRANCH   3  15
ATOM     14  C   UNL     1      50.799   4.992  17.599  0.00  0.00    +0.000 C 
ATOM     15  C   UNL     1      49.523   5.402  17.634  0.00  0.00    +0.000 C 
BRANCH  14  17
ATOM     16  N   UNL     1      52.245   4.560  19.935  0.00  0.00    +0.000 NA
ATOM     17  C   UNL     1      51.589   4.756  18.876  0.00  0.00    +0.000 C 
ENDBRANCH  14  17
ENDBRANCH   3  15
ENDBRANCH   1   6
BRANCH   1  18
ATOM     18  C   UNL     1      45.646   7.167  12.718  0.00  0.00    +0.000 C 
BRANCH  18  19
ATOM     19  C   UNL     1      44.787   6.905  11.485  0.00  0.00    +0.000 C 
BRANCH  19  20
ATOM     20  C   UNL     1      44.487   5.422  11.441  0.00  0.00    +0.000 A 
ATOM     21  C   UNL     1      43.862   4.801  12.527  0.00  0.00    +0.000 A 
ATOM     22  C   UNL     1      43.437   3.477  12.427  0.00  0.00    +0.000 A 
ATOM     23  C   UNL     1      43.633   2.758  11.244  0.00  0.00    +0.000 A 
ATOM     24  C   UNL     1      44.266   3.355  10.156  0.00  0.00    +0.000 A 
ATOM     25  C   UNL     1      44.687   4.685  10.259  0.00  0.00    +0.000 A 
BRANCH  24  26
ATOM     26  O   UNL     1      44.479   2.768   8.937  0.00  0.00    +0.000 OA
BRANCH  26  27
ATOM     27  C   UNL     1      45.821   2.688   8.454  0.00  0.00    +0.000 C 
ATOM     28  C   UNL     1      45.977   3.369   7.095  0.00  0.00    +0.000 C 
ATOM     29  C   UNL     1      47.016   2.568   6.323  0.00  0.00    +0.000 C 
ATOM     30  C   UNL     1      47.233   1.268   7.087  0.00  0.00    +0.000 C 
ATOM     31  C   UNL     1      46.167   1.226   8.171  0.00  0.00    +0.000 C 
ENDBRANCH  26  27
ENDBRANCH  24  26
ENDBRANCH  19  20
ENDBRANCH  18  19
ENDBRANCH   1  18
TORSDOF 9
ENDMDL
MODEL 2
REMARK VINA RESULT:    -6.866      2.122      3.135
REMARK INTER + INTRA:         -11.639
REMARK INTER:                 -10.781
REMARK INTRA:                  -0.858
REMARK UNBOUND:                -1.161
REMARK  Name = 
REMARK  9 active torsions:
REMARK  status: ('A' for Active; 'I' for Inactive)
REMARK    1  A    between atoms: C_2  and  C_3
REMARK    2  A    between atoms: C_4  and  C_5
REMARK    3  A    between atoms: C_8  and  N_9
REMARK    4  A    between atoms: N_9  and  C_10
REMARK    5  A    between atoms: C_10  and  C_11
REMARK    6  A    between atoms: C_11  and  C_12
REMARK    7  A    between atoms: C_16  and  O_17
REMARK    8  A    between atoms: O_17  and  C_18
REMARK    9  A    between atoms: C_25  and  C_26
REMARK                            x       y       z     vdW  Elec       q    Type
REMARK                         _______ _______ _______ _____ _____    ______ ____
ROOT
ATOM      1  N   UNL     1      46.972   3.775  15.563  0.00  0.00    +0.000 N 
ATOM      2  H   UNL     1      46.170   3.941  16.156  0.00  0.00    +0.000 HD
ENDROOT
BRANCH   1   6
ATOM      3  C   UNL     1      50.478   2.641  17.486  0.00  0.00    +0.000 A 
ATOM      4  C   UNL     1      49.853   1.916  16.478  0.00  0.00    +0.000 A 
ATOM      5  N   UNL     1      48.719   2.293  15.837  0.00  0.00    +0.000 NA
ATOM      6  C   UNL     1      48.131   3.438  16.217  0.00  0.00    +0.000 A 
ATOM      7  C   UNL     1      48.688   4.230  17.220  0.00  0.00    +0.000 A 
ATOM      8  C   UNL     1      49.876   3.849  17.842  0.00  0.00    +0.000 A 
BRANCH   8   9
ATOM      9  C   UNL     1      50.435   4.744  18.892  0.00  0.00    +0.000 C 
ATOM     10  N   UNL     1      50.102   4.474  20.196  0.00  0.00    +0.000 N 
ATOM     11  O   UNL     1      51.157   5.696  18.632  0.00  0.00    +0.000 OA
ATOM     12  H   UNL     1      49.398   3.808  20.481  0.00  0.00    +0.000 HD
ATOM     13  H   UNL     1      50.439   5.124  20.898  0.00  0.00    +0.000 HD
ENDBRANCH   8   9
BRANCH   3  15
ATOM     14  C   UNL     1      52.898   2.604  17.838  0.00  0.00    +0.000 C 
ATOM     15  C   UNL     1      51.688   2.095  18.108  0.00  0.00    +0.000 C 
BRANCH  14  17
ATOM     16  N   UNL     1      55.210   1.489  18.908  0.00  0.00    +0.000 NA
ATOM     17  C   UNL     1      54.161   1.995  18.423  0.00  0.00    +0.000 C 
ENDBRANCH  14  17
ENDBRANCH   3  15
ENDBRANCH   1   6
BRANCH   1  18
ATOM     18  C   UNL     1      46.908   3.885  14.122  0.00  0.00    +0.000 C 
BRANCH  18  19
ATOM     19  C   UNL     1      46.296   5.193  13.630  0.00  0.00    +0.000 C 
BRANCH  19  20
ATOM     20  C   UNL     1      45.062   4.850  12.826  0.00  0.00    +0.000 A 
ATOM     21  C   UNL     1      43.863   5.535  13.054  0.00  0.00    +0.000 A 
ATOM     22  C   UNL     1      42.773   5.338  12.208  0.00  0.00    +0.000 A 
ATOM     23  C   UNL     1      42.864   4.456  11.128  0.00  0.00    +0.000 A 
ATOM     24  C   UNL     1      44.045   3.753  10.894  0.00  0.00    +0.000 A 
ATOM     25  C   UNL     1      45.138   3.956  11.742  0.00  0.00    +0.000 A 
BRANCH  24  26
ATOM     26  O   UNL     1      44.266   2.894   9.850  0.00  0.00    +0.000 OA
BRANCH  26  27
ATOM     27  C   UNL     1      45.535   2.946   9.194  0.00  0.00    +0.000 C 
ATOM     28  C   UNL     1      45.536   3.946   8.040  0.00  0.00    +0.000 C 
ATOM     29  C   UNL     1      46.448   3.371   6.965  0.00  0.00    +0.000 C 
ATOM     30  C   UNL     1      46.725   1.922   7.346  0.00  0.00    +0.000 C 
ATOM     31  C   UNL     1      45.804   1.604   8.513  0.00  0.00    +0.000 C 
ENDBRANCH  26  27
ENDBRANCH  24  26
ENDBRANCH  19  20
ENDBRANCH  18  19
ENDBRANCH   1  18
TORSDOF 9
ENDMDL
MODEL 3
REMARK VINA RESULT:    -6.514      1.943      3.219
REMARK INTER + INTRA:         -11.102
REMARK INTER:                  -9.942
REMARK INTRA:                  -1.160
REMARK UNBOUND:                -1.161
REMARK  Name = 
REMARK  9 active torsions:
REMARK  status: ('A' for Active; 'I' for Inactive)
REMARK    1  A    between atoms: C_2  and  C_3
REMARK    2  A    between atoms: C_4  and  C_5
REMARK    3  A    between atoms: C_8  and  N_9
REMARK    4  A    between atoms: N_9  and  C_10
REMARK    5  A    between atoms: C_10  and  C_11
REMARK    6  A    between atoms: C_11  and  C_12
REMARK    7  A    between atoms: C_16  and  O_17
REMARK    8  A    between atoms: O_17  and  C_18
REMARK    9  A    between atoms: C_25  and  C_26
REMARK                            x       y       z     vdW  Elec       q    Type
REMARK                         _______ _______ _______ _____ _____    ______ ____
ROOT
ATOM      1  N   UNL     1      48.235   7.701  15.718  0.00  0.00    +0.000 N 
ATOM      2  H   UNL     1      47.470   8.108  16.239  0.00  0.00    +0.000 HD
ENDROOT
BRANCH   1   6
ATOM      3  C   UNL     1      50.118   4.441  17.480  0.00  0.00    +0.000 A 
ATOM      4  C   UNL     1      50.616   5.739  17.471  0.00  0.00    +0.000 A 
ATOM      5  N   UNL     1      49.995   6.807  16.913  0.00  0.00    +0.000 NA
ATOM      6  C   UNL     1      48.822   6.601  16.293  0.00  0.00    +0.000 A 
ATOM      7  C   UNL     1      48.248   5.332  16.254  0.00  0.00    +0.000 A 
ATOM      8  C   UNL     1      48.879   4.251  16.867  0.00  0.00    +0.000 A 
BRANCH   8   9
ATOM      9  C   UNL     1      48.208   2.923  16.810  0.00  0.00    +0.000 C 
ATOM     10  N   UNL     1      47.131   2.724  17.637  0.00  0.00    +0.000 N 
ATOM     11  O   UNL     1      48.586   2.024  16.073  0.00  0.00    +0.000 OA
ATOM     12  H   UNL     1      46.852   3.354  18.376  0.00  0.00    +0.000 HD
ATOM     13  H   UNL     1      46.718   1.797  17.633  0.00  0.00    +0.000 HD
ENDBRANCH   8   9
BRANCH   3  15
ATOM     14  C   UNL     1      51.949   2.820  17.455  0.00  0.00    +0.000 C 
ATOM     15  C   UNL     1      50.916   3.379  18.100  0.00  0.00    +0.000 C 
BRANCH  14  17
ATOM     16  N   UNL     1      53.384   0.714  18.568  0.00  0.00    +0.000 NA
ATOM     17  C   UNL     1      52.733   1.669  18.063  0.00  0.00    +0.000 C 
ENDBRANCH  14  17
ENDBRANCH   3  15
ENDBRANCH   1   6
BRANCH   1  18
ATOM     18  C   UNL     1      48.685   8.237  14.452  0.00  0.00    +0.000 C 
BRANCH  18  19
ATOM     19  C   UNL     1      48.642   7.230  13.307  0.00  0.00    +0.000 C 
BRANCH  19  20
ATOM     20  C   UNL     1      47.203   7.113  12.851  0.00  0.00    +0.000 A 
ATOM     21  C   UNL     1      46.450   8.266  12.606  0.00  0.00    +0.000 A 
ATOM     22  C   UNL     1      45.184   8.165  12.031  0.00  0.00    +0.000 A 
ATOM     23  C   UNL     1      44.655   6.915  11.698  0.00  0.00    +0.000 A 
ATOM     24  C   UNL     1      45.383   5.754  11.949  0.00  0.00    +0.000 A 
ATOM     25  C   UNL     1      46.656   5.860  12.522  0.00  0.00    +0.000 A 
BRANCH  24  26
ATOM     26  O   UNL     1      44.988   4.482  11.633  0.00  0.00    +0.000 OA
BRANCH  26  27
ATOM     27  C   UNL     1      44.528   4.231  10.303  0.00  0.00    +0.000 C 
ATOM     28  C   UNL     1      44.447   2.736  10.003  0.00  0.00    +0.000 C 
ATOM     29  C   UNL     1      44.804   2.566   8.533  0.00  0.00    +0.000 C 
ATOM     30  C   UNL     1      45.388   3.892   8.062  0.00  0.00    +0.000 C 
ATOM     31  C   UNL     1      45.566   4.746   9.307  0.00  0.00    +0.000 C 
ENDBRANCH  26  27
ENDBRANCH  24  26
ENDBRANCH  19  20
ENDBRANCH  18  19
ENDBRANCH   1  18
TORSDOF 9
ENDMDL
MODEL 4
REMARK VINA RESULT:    -6.487      1.902      2.537
REMARK INTER + INTRA:         -11.061
REMARK INTER:                 -10.358
REMARK INTRA:                  -0.703
REMARK UNBOUND:                -1.161
REMARK  Name = 
REMARK  9 active torsions:
REMARK  status: ('A' for Active; 'I' for Inactive)
REMARK    1  A    between atoms: C_2  and  C_3
REMARK    2  A    between atoms: C_4  and  C_5
REMARK    3  A    between atoms: C_8  and  N_9
REMARK    4  A    between atoms: N_9  and  C_10
REMARK    5  A    between atoms: C_10  and  C_11
REMARK    6  A    between atoms: C_11  and  C_12
REMARK    7  A    between atoms: C_16  and  O_17
REMARK    8  A    between atoms: O_17  and  C_18
REMARK    9  A    between atoms: C_25  and  C_26
REMARK                            x       y       z     vdW  Elec       q    Type
REMARK                         _______ _______ _______ _____ _____    ______ ____
ROOT
ATOM      1  N   UNL     1      46.774   4.307  15.665  0.00  0.00    +0.000 N 
ATOM      2  H   UNL     1      46.127   3.649  16.078  0.00  0.00    +0.000 HD
ENDROOT
BRANCH   1   6
ATOM      3  C   UNL     1      49.713   5.881  18.147  0.00  0.00    +0.000 A 
ATOM      4  C   UNL     1      49.742   5.916  16.758  0.00  0.00    +0.000 A 
ATOM      5  N   UNL     1      48.776   5.420  15.947  0.00  0.00    +0.000 NA
ATOM      6  C   UNL     1      47.719   4.821  16.518  0.00  0.00    +0.000 A 
ATOM      7  C   UNL     1      47.607   4.740  17.905  0.00  0.00    +0.000 A 
ATOM      8  C   UNL     1      48.589   5.290  18.727  0.00  0.00    +0.000 A 
BRANCH   8   9
ATOM      9  C   UNL     1      48.405   5.192  20.201  0.00  0.00    +0.000 C 
ATOM     10  N   UNL     1      48.633   3.972  20.786  0.00  0.00    +0.000 N 
ATOM     11  O   UNL     1      48.055   6.142  20.887  0.00  0.00    +0.000 OA
ATOM     12  H   UNL     1      48.775   3.111  20.278  0.00  0.00    +0.000 HD
ATOM     13  H   UNL     1      48.447   3.901  21.781  0.00  0.00    +0.000 HD
ENDBRANCH   8   9
BRANCH   3  15
ATOM     14  C   UNL     1      52.089   5.967  18.721  0.00  0.00    +0.000 C 
ATOM     15  C   UNL     1      50.845   6.436  18.896  0.00  0.00    +0.000 C 
BRANCH  14  17
ATOM     16  N   UNL     1      54.220   6.920  20.232  0.00  0.00    +0.000 NA
ATOM     17  C   UNL     1      53.253   6.487  19.546  0.00  0.00    +0.000 C 
ENDBRANCH  14  17
ENDBRANCH   3  15
ENDBRANCH   1   6
BRANCH   1  18
ATOM     18  C   UNL     1      46.711   4.687  14.271  0.00  0.00    +0.000 C 
BRANCH  18  19
ATOM     19  C   UNL     1      46.540   3.508  13.318  0.00  0.00    +0.000 C 
BRANCH  19  20
ATOM     20  C   UNL     1      45.347   3.800  12.435  0.00  0.00    +0.000 A 
ATOM     21  C   UNL     1      44.268   4.537  12.935  0.00  0.00    +0.000 A 
ATOM     22  C   UNL     1      43.246   4.947  12.081  0.00  0.00    +0.000 A 
ATOM     23  C   UNL     1      43.286   4.625  10.721  0.00  0.00    +0.000 A 
ATOM     24  C   UNL     1      44.344   3.878  10.208  0.00  0.00    +0.000 A 
ATOM     25  C   UNL     1      45.371   3.472  11.067  0.00  0.00    +0.000 A 
BRANCH  24  26
ATOM     26  O   UNL     1      44.513   3.535   8.892  0.00  0.00    +0.000 OA
BRANCH  26  27
ATOM     27  C   UNL     1      45.808   3.101   8.471  0.00  0.00    +0.000 C 
ATOM     28  C   UNL     1      46.113   3.533   7.038  0.00  0.00    +0.000 C 
ATOM     29  C   UNL     1      46.956   2.427   6.419  0.00  0.00    +0.000 C 
ATOM     30  C   UNL     1      46.882   1.232   7.362  0.00  0.00    +0.000 C 
ATOM     31  C   UNL     1      45.829   1.574   8.404  0.00  0.00    +0.000 C 
ENDBRANCH  26  27
ENDBRANCH  24  26
ENDBRANCH  19  20
ENDBRANCH  18  19
ENDBRANCH   1  18
TORSDOF 9
ENDMDL
MODEL 5
REMARK VINA RESULT:    -6.351      3.544      8.979
REMARK INTER + INTRA:         -10.853
REMARK INTER:                  -9.680
REMARK INTRA:                  -1.173
REMARK UNBOUND:                -1.161
REMARK  Name = 
REMARK  9 active torsions:
REMARK  status: ('A' for Active; 'I' for Inactive)
REMARK    1  A    between atoms: C_2  and  C_3
REMARK    2  A    between atoms: C_4  and  C_5
REMARK    3  A    between atoms: C_8  and  N_9
REMARK    4  A    between atoms: N_9  and  C_10
REMARK    5  A    between atoms: C_10  and  C_11
REMARK    6  A    between atoms: C_11  and  C_12
REMARK    7  A    between atoms: C_16  and  O_17
REMARK    8  A    between atoms: O_17  and  C_18
REMARK    9  A    between atoms: C_25  and  C_26
REMARK                            x       y       z     vdW  Elec       q    Type
REMARK                         _______ _______ _______ _____ _____    ______ ____
ROOT
ATOM      1  N   UNL     1      47.444   3.256  14.585  0.00  0.00    +0.000 N 
ATOM      2  H   UNL     1      47.672   2.464  13.999  0.00  0.00    +0.000 HD
ENDROOT
BRANCH   1   6
ATOM      3  C   UNL     1      45.898   6.593  12.648  0.00  0.00    +0.000 A 
ATOM      4  C   UNL     1      47.178   6.506  13.184  0.00  0.00    +0.000 A 
ATOM      5  N   UNL     1      47.690   5.412  13.800  0.00  0.00    +0.000 NA
ATOM      6  C   UNL     1      46.900   4.335  13.934  0.00  0.00    +0.000 A 
ATOM      7  C   UNL     1      45.602   4.334  13.426  0.00  0.00    +0.000 A 
ATOM      8  C   UNL     1      45.103   5.452  12.760  0.00  0.00    +0.000 A 
BRANCH   8   9
ATOM      9  C   UNL     1      43.716   5.385  12.221  0.00  0.00    +0.000 C 
ATOM     10  N   UNL     1      42.686   5.605  13.100  0.00  0.00    +0.000 N 
ATOM     11  O   UNL     1      43.475   5.135  11.049  0.00  0.00    +0.000 OA
ATOM     12  H   UNL     1      42.791   5.665  14.103  0.00  0.00    +0.000 HD
ATOM     13  H   UNL     1      41.744   5.498  12.736  0.00  0.00    +0.000 HD
ENDBRANCH   8   9
BRANCH   3  15
ATOM     14  C   UNL     1      45.415   8.988  12.743  0.00  0.00    +0.000 C 
ATOM     15  C   UNL     1      45.470   7.853  12.033  0.00  0.00    +0.000 C 
BRANCH  14  17
ATOM     16  N   UNL     1      44.478  11.354  11.620  0.00  0.00    +0.000 NA
ATOM     17  C   UNL     1      44.903  10.281  12.130  0.00  0.00    +0.000 C 
ENDBRANCH  14  17
ENDBRANCH   3  15
ENDBRANCH   1   6
BRANCH   1  18
ATOM     18  C   UNL     1      47.674   3.257  16.013  0.00  0.00    +0.000 C 
BRANCH  18  19
ATOM     19  C   UNL     1      48.672   2.200  16.477  0.00  0.00    +0.000 C 
BRANCH  19  20
ATOM     20  C   UNL     1      49.726   2.896  17.310  0.00  0.00    +0.000 A 
ATOM     21  C   UNL     1      51.029   2.391  17.357  0.00  0.00    +0.000 A 
ATOM     22  C   UNL     1      52.038   3.117  17.987  0.00  0.00    +0.000 A 
ATOM     23  C   UNL     1      51.759   4.352  18.579  0.00  0.00    +0.000 A 
ATOM     24  C   UNL     1      50.464   4.865  18.555  0.00  0.00    +0.000 A 
ATOM     25  C   UNL     1      49.454   4.136  17.918  0.00  0.00    +0.000 A 
BRANCH  24  26
ATOM     26  O   UNL     1      50.077   6.076  19.064  0.00  0.00    +0.000 OA
BRANCH  26  27
ATOM     27  C   UNL     1      48.916   6.699  18.511  0.00  0.00    +0.000 C 
ATOM     28  C   UNL     1      49.269   7.950  17.710  0.00  0.00    +0.000 C 
ATOM     29  C   UNL     1      48.123   8.933  17.908  0.00  0.00    +0.000 C 
ATOM     30  C   UNL     1      47.270   8.396  19.051  0.00  0.00    +0.000 C 
ATOM     31  C   UNL     1      48.041   7.229  19.647  0.00  0.00    +0.000 C 
ENDBRANCH  26  27
ENDBRANCH  24  26
ENDBRANCH  19  20
ENDBRANCH  18  19
ENDBRANCH   1  18
TORSDOF 9
ENDMDL
MODEL 6
REMARK VINA RESULT:    -6.287      3.599      8.190
REMARK INTER + INTRA:         -10.756
REMARK INTER:                  -8.749
REMARK INTRA:                  -2.007
REMARK UNBOUND:                -1.161
REMARK  Name = 
REMARK  9 active torsions:
REMARK  status: ('A' for Active; 'I' for Inactive)
REMARK    1  A    between atoms: C_2  and  C_3
REMARK    2  A    between atoms: C_4  and  C_5
REMARK    3  A    between atoms: C_8  and  N_9
REMARK    4  A    between atoms: N_9  and  C_10
REMARK    5  A    between atoms: C_10  and  C_11
REMARK    6  A    between atoms: C_11  and  C_12
REMARK    7  A    between atoms: C_16  and  O_17
REMARK    8  A    between atoms: O_17  and  C_18
REMARK    9  A    between atoms: C_25  and  C_26
REMARK                            x       y       z     vdW  Elec       q    Type
REMARK                         _______ _______ _______ _____ _____    ______ ____
ROOT
ATOM      1  N   UNL     1      47.331   3.058  14.690  0.00  0.00    +0.000 N 
ATOM      2  H   UNL     1      47.117   2.170  14.257  0.00  0.00    +0.000 HD
ENDROOT
BRANCH   1   6
ATOM      3  C   UNL     1      46.048   6.477  12.705  0.00  0.00    +0.000 A 
ATOM      4  C   UNL     1      47.305   6.312  13.274  0.00  0.00    +0.000 A 
ATOM      5  N   UNL     1      47.732   5.191  13.906  0.00  0.00    +0.000 NA
ATOM      6  C   UNL     1      46.872   4.167  14.022  0.00  0.00    +0.000 A 
ATOM      7  C   UNL     1      45.590   4.244  13.481  0.00  0.00    +0.000 A 
ATOM      8  C   UNL     1      45.180   5.389  12.799  0.00  0.00    +0.000 A 
BRANCH   8   9
ATOM      9  C   UNL     1      43.806   5.407  12.224  0.00  0.00    +0.000 C 
ATOM     10  N   UNL     1      42.763   5.622  13.089  0.00  0.00    +0.000 N 
ATOM     11  O   UNL     1      43.586   5.229  11.035  0.00  0.00    +0.000 OA
ATOM     12  H   UNL     1      42.844   5.626  14.096  0.00  0.00    +0.000 HD
ATOM     13  H   UNL     1      41.828   5.574  12.698  0.00  0.00    +0.000 HD
ENDBRANCH   8   9
BRANCH   3  15
ATOM     14  C   UNL     1      45.351   8.819  12.810  0.00  0.00    +0.000 C 
ATOM     15  C   UNL     1      45.717   7.759  12.075  0.00  0.00    +0.000 C 
BRANCH  14  17
ATOM     16  N   UNL     1      44.591  11.214  11.617  0.00  0.00    +0.000 NA
ATOM     17  C   UNL     1      44.936  10.127  12.158  0.00  0.00    +0.000 C 
ENDBRANCH  14  17
ENDBRANCH   3  15
ENDBRANCH   1   6
BRANCH   1  18
ATOM     18  C   UNL     1      48.069   3.160  15.929  0.00  0.00    +0.000 C 
BRANCH  18  19
ATOM     19  C   UNL     1      47.205   3.520  17.134  0.00  0.00    +0.000 C 
BRANCH  19  20
ATOM     20  C   UNL     1      47.957   4.549  17.949  0.00  0.00    +0.000 A 
ATOM     21  C   UNL     1      48.504   4.200  19.188  0.00  0.00    +0.000 A 
ATOM     22  C   UNL     1      49.334   5.093  19.863  0.00  0.00    +0.000 A 
ATOM     23  C   UNL     1      49.626   6.344  19.312  0.00  0.00    +0.000 A 
ATOM     24  C   UNL     1      49.079   6.716  18.086  0.00  0.00    +0.000 A 
ATOM     25  C   UNL     1      48.250   5.815  17.409  0.00  0.00    +0.000 A 
BRANCH  24  26
ATOM     26  O   UNL     1      49.321   7.894  17.430  0.00  0.00    +0.000 OA
BRANCH  26  27
ATOM     27  C   UNL     1      49.000   7.967  16.039  0.00  0.00    +0.000 C 
ATOM     28  C   UNL     1      50.253   7.975  15.167  0.00  0.00    +0.000 C 
ATOM     29  C   UNL     1      49.945   8.860  13.967  0.00  0.00    +0.000 C 
ATOM     30  C   UNL     1      48.655   9.607  14.286  0.00  0.00    +0.000 C 
ATOM     31  C   UNL     1      48.344   9.317  15.746  0.00  0.00    +0.000 C 
ENDBRANCH  26  27
ENDBRANCH  24  26
ENDBRANCH  19  20
ENDBRANCH  18  19
ENDBRANCH   1  18
TORSDOF 9
ENDMDL
MODEL 7
REMARK VINA RESULT:    -6.197      3.164      8.125
REMARK INTER + INTRA:         -10.619
REMARK INTER:                  -9.124
REMARK INTRA:                  -1.495
REMARK UNBOUND:                -1.161
REMARK  Name = 
REMARK  9 active torsions:
REMARK  status: ('A' for Active; 'I' for Inactive)
REMARK    1  A    between atoms: C_2  and  C_3
REMARK    2  A    between atoms: C_4  and  C_5
REMARK    3  A    between atoms: C_8  and  N_9
REMARK    4  A    between atoms: N_9  and  C_10
REMARK    5  A    between atoms: C_10  and  C_11
REMARK    6  A    between atoms: C_11  and  C_12
REMARK    7  A    between atoms: C_16  and  O_17
REMARK    8  A    between atoms: O_17  and  C_18
REMARK    9  A    between atoms: C_25  and  C_26
REMARK                            x       y       z     vdW  Elec       q    Type
REMARK                         _______ _______ _______ _____ _____    ______ ____
ROOT
ATOM      1  N   UNL     1      49.751   7.741  14.112  0.00  0.00    +0.000 N 
ATOM      2  H   UNL     1      50.373   7.906  13.332  0.00  0.00    +0.000 HD
ENDROOT
BRANCH   1   6
ATOM      3  C   UNL     1      46.208   5.764  13.208  0.00  0.00    +0.000 A 
ATOM      4  C   UNL     1      47.286   5.198  13.878  0.00  0.00    +0.000 A 
ATOM      5  N   UNL     1      48.436   5.846  14.190  0.00  0.00    +0.000 NA
ATOM      6  C   UNL     1      48.564   7.125  13.801  0.00  0.00    +0.000 A 
ATOM      7  C   UNL     1      47.533   7.773  13.124  0.00  0.00    +0.000 A 
ATOM      8  C   UNL     1      46.341   7.105  12.846  0.00  0.00    +0.000 A 
BRANCH   8   9
ATOM      9  C   UNL     1      45.266   7.855  12.139  0.00  0.00    +0.000 C 
ATOM     10  N   UNL     1      44.807   9.006  12.728  0.00  0.00    +0.000 N 
ATOM     11  O   UNL     1      44.787   7.478  11.079  0.00  0.00    +0.000 OA
ATOM     12  H   UNL     1      45.040   9.302  13.666  0.00  0.00    +0.000 HD
ATOM     13  H   UNL     1      44.035   9.478  12.268  0.00  0.00    +0.000 HD
ENDBRANCH   8   9
BRANCH   3  15
ATOM     14  C   UNL     1      45.142   3.830  12.159  0.00  0.00    +0.000 C 
ATOM     15  C   UNL     1      45.038   4.931  12.916  0.00  0.00    +0.000 C 
BRANCH  14  17
ATOM     16  N   UNL     1      42.905   2.318  11.488  0.00  0.00    +0.000 NA
ATOM     17  C   UNL     1      43.920   3.004  11.793  0.00  0.00    +0.000 C 
ENDBRANCH  14  17
ENDBRANCH   3  15
ENDBRANCH   1   6
BRANCH   1  18
ATOM     18  C   UNL     1      50.085   8.126  15.466  0.00  0.00    +0.000 C 
BRANCH  18  19
ATOM     19  C   UNL     1      49.063   9.057  16.111  0.00  0.00    +0.000 C 
BRANCH  19  20
ATOM     20  C   UNL     1      48.598   8.410  17.397  0.00  0.00    +0.000 A 
ATOM     21  C   UNL     1      48.056   9.194  18.421  0.00  0.00    +0.000 A 
ATOM     22  C   UNL     1      47.478   8.587  19.535  0.00  0.00    +0.000 A 
ATOM     23  C   UNL     1      47.436   7.194  19.641  0.00  0.00    +0.000 A 
ATOM     24  C   UNL     1      47.984   6.397  18.639  0.00  0.00    +0.000 A 
ATOM     25  C   UNL     1      48.559   7.009  17.520  0.00  0.00    +0.000 A 
BRANCH  24  26
ATOM     26  O   UNL     1      47.968   5.027  18.612  0.00  0.00    +0.000 OA
BRANCH  26  27
ATOM     27  C   UNL     1      48.706   4.366  17.582  0.00  0.00    +0.000 C 
ATOM     28  C   UNL     1      47.894   3.248  16.931  0.00  0.00    +0.000 C 
ATOM     29  C   UNL     1      48.880   2.149  16.564  0.00  0.00    +0.000 C 
ATOM     30  C   UNL     1      50.192   2.476  17.268  0.00  0.00    +0.000 C 
ATOM     31  C   UNL     1      49.895   3.636  18.205  0.00  0.00    +0.000 C 
ENDBRANCH  26  27
ENDBRANCH  24  26
ENDBRANCH  19  20
ENDBRANCH  18  19
ENDBRANCH   1  18
TORSDOF 9
ENDMDL
MODEL 8
REMARK VINA RESULT:    -6.192      2.208      3.336
REMARK INTER + INTRA:         -10.612
REMARK INTER:                 -10.328
REMARK INTRA:                  -0.284
REMARK UNBOUND:                -1.161
REMARK  Name = 
REMARK  9 active torsions:
REMARK  status: ('A' for Active; 'I' for Inactive)
REMARK    1  A    between atoms: C_2  and  C_3
REMARK    2  A    between atoms: C_4  and  C_5
REMARK    3  A    between atoms: C_8  and  N_9
REMARK    4  A    between atoms: N_9  and  C_10
REMARK    5  A    between atoms: C_10  and  C_11
REMARK    6  A    between atoms: C_11  and  C_12
REMARK    7  A    between atoms: C_16  and  O_17
REMARK    8  A    between atoms: O_17  and  C_18
REMARK    9  A    between atoms: C_25  and  C_26
REMARK                            x       y       z     vdW  Elec       q    Type
REMARK                         _______ _______ _______ _____ _____    ______ ____
ROOT
ATOM      1  N   UNL     1      47.038   3.671  16.275  0.00  0.00    +0.000 N 
ATOM      2  H   UNL     1      46.432   2.892  16.490  0.00  0.00    +0.000 HD
ENDROOT
BRANCH   1   6
ATOM      3  C   UNL     1      49.851   4.599  19.191  0.00  0.00    +0.000 A 
ATOM      4  C   UNL     1      48.510   4.960  19.237  0.00  0.00    +0.000 A 
ATOM      5  N   UNL     1      47.587   4.643  18.295  0.00  0.00    +0.000 NA
ATOM      6  C   UNL     1      47.995   3.953  17.219  0.00  0.00    +0.000 A 
ATOM      7  C   UNL     1      49.323   3.548  17.091  0.00  0.00    +0.000 A 
ATOM      8  C   UNL     1      50.252   3.848  18.086  0.00  0.00    +0.000 A 
BRANCH   8   9
ATOM      9  C   UNL     1      51.652   3.372  17.904  0.00  0.00    +0.000 C 
ATOM     10  N   UNL     1      51.904   2.045  18.147  0.00  0.00    +0.000 N 
ATOM     11  O   UNL     1      52.561   4.114  17.562  0.00  0.00    +0.000 OA
ATOM     12  H   UNL     1      51.248   1.406  18.574  0.00  0.00    +0.000 HD
ATOM     13  H   UNL     1      52.871   1.744  18.078  0.00  0.00    +0.000 HD
ENDBRANCH   8   9
BRANCH   3  15
ATOM     14  C   UNL     1      51.297   6.257  20.261  0.00  0.00    +0.000 C 
ATOM     15  C   UNL     1      50.741   5.037  20.271  0.00  0.00    +0.000 C 
BRANCH  14  17
ATOM     16  N   UNL     1      53.090   7.047  22.235  0.00  0.00    +0.000 NA
ATOM     17  C   UNL     1      52.276   6.689  21.339  0.00  0.00    +0.000 C 
ENDBRANCH  14  17
ENDBRANCH   3  15
ENDBRANCH   1   6
BRANCH   1  18
ATOM     18  C   UNL     1      46.911   4.442  15.058  0.00  0.00    +0.000 C 
BRANCH  18  19
ATOM     19  C   UNL     1      46.982   3.601  13.787  0.00  0.00    +0.000 C 
BRANCH  19  20
ATOM     20  C   UNL     1      46.001   4.187  12.794  0.00  0.00    +0.000 A 
ATOM     21  C   UNL     1      45.914   5.574  12.630  0.00  0.00    +0.000 A 
ATOM     22  C   UNL     1      45.135   6.109  11.606  0.00  0.00    +0.000 A 
ATOM     23  C   UNL     1      44.433   5.269  10.736  0.00  0.00    +0.000 A 
ATOM     24  C   UNL     1      44.495   3.886  10.893  0.00  0.00    +0.000 A 
ATOM     25  C   UNL     1      45.282   3.352  11.919  0.00  0.00    +0.000 A 
BRANCH  24  26
ATOM     26  O   UNL     1      43.886   2.964  10.084  0.00  0.00    +0.000 OA
BRANCH  26  27
ATOM     27  C   UNL     1      44.411   2.771   8.769  0.00  0.00    +0.000 C 
ATOM     28  C   UNL     1      45.500   1.700   8.744  0.00  0.00    +0.000 C 
ATOM     29  C   UNL     1      46.512   2.131   7.692  0.00  0.00    +0.000 C 
ATOM     30  C   UNL     1      46.191   3.577   7.332  0.00  0.00    +0.000 C 
ATOM     31  C   UNL     1      45.140   4.041   8.328  0.00  0.00    +0.000 C 
ENDBRANCH  26  27
ENDBRANCH  24  26
ENDBRANCH  19  20
ENDBRANCH  18  19
ENDBRANCH   1  18
TORSDOF 9
ENDMDL
MODEL 9
REMARK VINA RESULT:    -6.012      3.030      4.799
REMARK INTER + INTRA:         -10.336
REMARK INTER:                  -8.672
REMARK INTRA:                  -1.664
REMARK UNBOUND:                -1.161
REMARK  Name = 
REMARK  9 active torsions:
REMARK  status: ('A' for Active; 'I' for Inactive)
REMARK    1  A    between atoms: C_2  and  C_3
REMARK    2  A    between atoms: C_4  and  C_5
REMARK    3  A    between atoms: C_8  and  N_9
REMARK    4  A    between atoms: N_9  and  C_10
REMARK    5  A    between atoms: C_10  and  C_11
REMARK    6  A    between atoms: C_11  and  C_12
REMARK    7  A    between atoms: C_16  and  O_17
REMARK    8  A    between atoms: O_17  and  C_18
REMARK    9  A    between atoms: C_25  and  C_26
REMARK                            x       y       z     vdW  Elec       q    Type
REMARK                         _______ _______ _______ _____ _____    ______ ____
ROOT
ATOM      1  N   UNL     1      48.748   8.156  17.536  0.00  0.00    +0.000 N 
ATOM      2  H   UNL     1      48.748   8.590  18.449  0.00  0.00    +0.000 HD
ENDROOT
BRANCH   1   6
ATOM      3  C   UNL     1      49.911   4.166  17.490  0.00  0.00    +0.000 A 
ATOM      4  C   UNL     1      50.730   5.229  17.851  0.00  0.00    +0.000 A 
ATOM      5  N   UNL     1      50.347   6.529  17.884  0.00  0.00    +0.000 NA
ATOM      6  C   UNL     1      49.092   6.827  17.514  0.00  0.00    +0.000 A 
ATOM      7  C   UNL     1      48.201   5.823  17.137  0.00  0.00    +0.000 A 
ATOM      8  C   UNL     1      48.597   4.487  17.146  0.00  0.00    +0.000 A 
BRANCH   8   9
ATOM      9  C   UNL     1      47.596   3.457  16.753  0.00  0.00    +0.000 C 
ATOM     10  N   UNL     1      47.411   3.235  15.412  0.00  0.00    +0.000 N 
ATOM     11  O   UNL     1      46.943   2.825  17.572  0.00  0.00    +0.000 OA
ATOM     12  H   UNL     1      47.795   3.813  14.677  0.00  0.00    +0.000 HD
ATOM     13  H   UNL     1      46.686   2.574  15.154  0.00  0.00    +0.000 HD
ENDBRANCH   8   9
BRANCH   3  15
ATOM     14  C   UNL     1      51.744   2.582  17.830  0.00  0.00    +0.000 C 
ATOM     15  C   UNL     1      50.471   2.811  17.475  0.00  0.00    +0.000 C 
BRANCH  14  17
ATOM     16  N   UNL     1      52.855   0.038  17.677  0.00  0.00    +0.000 NA
ATOM     17  C   UNL     1      52.351   1.192  17.747  0.00  0.00    +0.000 C 
ENDBRANCH  14  17
ENDBRANCH   3  15
ENDBRANCH   1   6
BRANCH   1  18
ATOM     18  C   UNL     1      48.409   8.881  16.331  0.00  0.00    +0.000 C 
BRANCH  18  19
ATOM     19  C   UNL     1      49.453   8.759  15.225  0.00  0.00    +0.000 C 
BRANCH  19  20
ATOM     20  C   UNL     1      48.761   8.200  14.000  0.00  0.00    +0.000 A 
ATOM     21  C   UNL     1      49.008   8.757  12.741  0.00  0.00    +0.000 A 
ATOM     22  C   UNL     1      48.504   8.144  11.595  0.00  0.00    +0.000 A 
ATOM     23  C   UNL     1      47.747   6.974  11.691  0.00  0.00    +0.000 A 
ATOM     24  C   UNL     1      47.478   6.413  12.938  0.00  0.00    +0.000 A 
ATOM     25  C   UNL     1      47.989   7.027  14.086  0.00  0.00    +0.000 A 
BRANCH  24  26
ATOM     26  O   UNL     1      46.784   5.252  13.157  0.00  0.00    +0.000 OA
BRANCH  26  27
ATOM     27  C   UNL     1      45.590   5.031  12.403  0.00  0.00    +0.000 C 
ATOM     28  C   UNL     1      44.365   5.628  13.093  0.00  0.00    +0.000 C 
ATOM     29  C   UNL     1      43.196   4.702  12.785  0.00  0.00    +0.000 C 
ATOM     30  C   UNL     1      43.783   3.426  12.195  0.00  0.00    +0.000 C 
ATOM     31  C   UNL     1      45.291   3.532  12.365  0.00  0.00    +0.000 C 
ENDBRANCH  26  27
ENDBRANCH  24  26
ENDBRANCH  19  20
ENDBRANCH  18  19
ENDBRANCH   1  18
TORSDOF 9
ENDMDL
