MODEL 1
REMARK VINA RESULT:    -7.800      0.000      0.000
REMARK INTER + INTRA:         -11.347
REMARK INTER:                 -10.536
REMARK INTRA:                  -0.811
REMARK UNBOUND:                -0.811
REMARK  Name = 
REMARK  6 active torsions:
REMARK  status: ('A' for Active; 'I' for Inactive)
REMARK    1  A    between atoms: C_2  and  C_19
REMARK    2  A    between atoms: N_3  and  C_4
REMARK    3  A    between atoms: C_4  and  C_5
REMARK    4  A    between atoms: C_8  and  N_9
REMARK    5  A    between atoms: N_9  and  C_10
REMARK    6  A    between atoms: C_10  and  C_11
REMARK                            x       y       z     vdW  Elec       q    Type
REMARK                         _______ _______ _______ _____ _____    ______ ____
ROOT
ATOM      1  C   UNL     1      47.263   3.987  15.089  0.00  0.00    +0.000 C 
ENDROOT
BRANCH   1   2
ATOM      2  C   UNL     1      46.555   4.364  13.810  0.00  0.00    +0.000 A 
ATOM      3  N   UNL     1      45.694   3.487  13.262  0.00  0.00    +0.000 NA
ATOM      4  C   UNL     1      45.142   3.847  12.079  0.00  0.00    +0.000 A 
ATOM      5  C   UNL     1      45.395   5.035  11.421  0.00  0.00    +0.000 A 
ATOM      6  C   UNL     1      46.353   5.812  12.042  0.00  0.00    +0.000 A 
ATOM      7  N   UNL     1      46.948   5.508  13.220  0.00  0.00    +0.000 NA
BRANCH   5   8
ATOM      8  N   UNL     1      44.784   5.323  10.191  0.00  0.00    +0.000 N 
ATOM      9  H   UNL     1      44.087   6.060  10.312  0.00  0.00    +0.000 HD
BRANCH   8  10
ATOM     10  C   UNL     1      44.196   4.184   9.474  0.00  0.00    +0.000 C 
BRANCH  10  11
ATOM     11  C   UNL     1      45.243   3.424   8.701  0.00  0.00    +0.000 A 
ATOM     12  C   UNL     1      45.408   2.055   8.895  0.00  0.00    +0.000 A 
ATOM     13  N   UNL     1      46.289   1.311   8.184  0.00  0.00    +0.000 NA
ATOM     14  C   UNL     1      47.005   1.991   7.263  0.00  0.00    +0.000 A 
ATOM     15  C   UNL     1      46.852   3.353   7.064  0.00  0.00    +0.000 A 
ATOM     16  N   UNL     1      45.974   4.098   7.774  0.00  0.00    +0.000 NA
ENDBRANCH  10  11
ENDBRANCH   8  10
ENDBRANCH   5   8
ENDBRANCH   1   2
BRANCH   1  19
ATOM     17  O   UNL     1      49.525   4.525  16.626  0.00  0.00    +0.000 OA
ATOM     18  C   UNL     1      48.598   5.325  16.644  0.00  0.00    +0.000 C 
ATOM     19  N   UNL     1      47.439   5.144  15.942  0.00  0.00    +0.000 N 
ATOM     20  H   UNL     1      46.616   5.669  16.202  0.00  0.00    +0.000 HD
BRANCH  18  21
ATOM     21  C   UNL     1      48.692   6.601  17.338  0.00  0.00    +0.000 A 
ATOM     22  C   UNL     1      49.415   7.691  16.881  0.00  0.00    +0.000 A 
ATOM     23  S   UNL     1      49.701   8.844  18.117  0.00  0.00    +0.000 S 
ATOM     24  C   UNL     1      48.783   7.950  19.239  0.00  0.00    +0.000 A 
ATOM     25  N   UNL     1      48.693   8.303  20.549  0.00  0.00    +0.000 NA
ATOM     26  C   UNL     1      47.901   7.551  21.242  0.00  0.00    +0.000 A 
ATOM     27  N   UNL     1      47.155   6.512  20.739  0.00  0.00    +0.000 N 
ATOM     28  C   UNL     1      47.174   6.155  19.409  0.00  0.00    +0.000 A 
ATOM     29  O   UNL     1      46.351   5.383  18.935  0.00  0.00    +0.000 OA
ATOM     30  C   UNL     1      48.164   6.874  18.638  0.00  0.00    +0.000 A 
ATOM     31  H   UNL     1      46.457   6.056  21.305  0.00  0.00    +0.000 HD
ENDBRANCH  18  21
ENDBRANCH   1  19
TORSDOF 6
ENDMDL
MODEL 2
REMARK VINA RESULT:    -7.697      1.634      2.041
REMARK INTER + INTRA:         -11.208
REMARK INTER:                 -10.423
REMARK INTRA:                  -0.785
REMARK UNBOUND:                -0.811
REMARK  Name = 
REMARK  6 active torsions:
REMARK  status: ('A' for Active; 'I' for Inactive)
REMARK    1  A    between atoms: C_2  and  C_19
REMARK    2  A    between atoms: N_3  and  C_4
REMARK    3  A    between atoms: C_4  and  C_5
REMARK    4  A    between atoms: C_8  and  N_9
REMARK    5  A    between atoms: N_9  and  C_10
REMARK    6  A    between atoms: C_10  and  C_11
REMARK                            x       y       z     vdW  Elec       q    Type
REMARK                         _______ _______ _______ _____ _____    ______ ____
ROOT
ATOM      1  C   UNL     1      48.232   6.683  14.072  0.00  0.00    +0.000 C 
ENDROOT
BRANCH   1   2
ATOM      2  C   UNL     1      47.255   5.671  13.522  0.00  0.00    +0.000 A 
ATOM      3  N   UNL     1      47.429   4.371  13.824  0.00  0.00    +0.000 NA
ATOM      4  C   UNL     1      46.567   3.501  13.246  0.00  0.00    +0.000 A 
ATOM      5  C   UNL     1      45.539   3.858  12.396  0.00  0.00    +0.000 A 
ATOM      6  C   UNL     1      45.513   5.208  12.103  0.00  0.00    +0.000 A 
ATOM      7  N   UNL     1      46.349   6.129  12.639  0.00  0.00    +0.000 NA
BRANCH   5   8
ATOM      8  N   UNL     1      44.696   2.887  11.835  0.00  0.00    +0.000 N 
ATOM      9  H   UNL     1      45.216   2.021  11.680  0.00  0.00    +0.000 HD
BRANCH   8  10
ATOM     10  C   UNL     1      43.984   3.273  10.609  0.00  0.00    +0.000 C 
BRANCH  10  11
ATOM     11  C   UNL     1      44.861   3.115   9.394  0.00  0.00    +0.000 A 
ATOM     12  C   UNL     1      45.179   4.217   8.604  0.00  0.00    +0.000 A 
ATOM     13  N   UNL     1      46.012   4.144   7.539  0.00  0.00    +0.000 NA
ATOM     14  C   UNL     1      46.522   2.919   7.289  0.00  0.00    +0.000 A 
ATOM     15  C   UNL     1      46.211   1.815   8.065  0.00  0.00    +0.000 A 
ATOM     16  N   UNL     1      45.377   1.885   9.129  0.00  0.00    +0.000 NA
ENDBRANCH  10  11
ENDBRANCH   8  10
ENDBRANCH   5   8
ENDBRANCH   1   2
BRANCH   1  19
ATOM     17  O   UNL     1      50.172   6.071  15.977  0.00  0.00    +0.000 OA
ATOM     18  C   UNL     1      49.096   6.517  16.356  0.00  0.00    +0.000 C 
ATOM     19  N   UNL     1      48.074   6.829  15.504  0.00  0.00    +0.000 N 
ATOM     20  H   UNL     1      47.135   6.921  15.869  0.00  0.00    +0.000 HD
BRANCH  18  21
ATOM     21  C   UNL     1      48.847   6.855  17.750  0.00  0.00    +0.000 A 
ATOM     22  C   UNL     1      48.906   8.138  18.268  0.00  0.00    +0.000 A 
ATOM     23  S   UNL     1      49.023   8.142  19.979  0.00  0.00    +0.000 S 
ATOM     24  C   UNL     1      48.896   6.445  20.045  0.00  0.00    +0.000 A 
ATOM     25  N   UNL     1      49.031   5.752  21.207  0.00  0.00    +0.000 NA
ATOM     26  C   UNL     1      48.839   4.478  21.085  0.00  0.00    +0.000 A 
ATOM     27  N   UNL     1      48.476   3.842  19.922  0.00  0.00    +0.000 N 
ATOM     28  C   UNL     1      48.275   4.511  18.736  0.00  0.00    +0.000 A 
ATOM     29  O   UNL     1      47.743   3.975  17.772  0.00  0.00    +0.000 OA
ATOM     30  C   UNL     1      48.632   5.911  18.802  0.00  0.00    +0.000 A 
ATOM     31  H   UNL     1      48.209   2.870  19.927  0.00  0.00    +0.000 HD
ENDBRANCH  18  21
ENDBRANCH   1  19
TORSDOF 6
ENDMDL
MODEL 3
REMARK VINA RESULT:    -7.679      2.514      3.164
REMARK INTER + INTRA:         -11.184
REMARK INTER:                 -10.288
REMARK INTRA:                  -0.895
REMARK UNBOUND:                -0.811
REMARK  Name = 
REMARK  6 active torsions:
REMARK  status: ('A' for Active; 'I' for Inactive)
REMARK    1  A    between atoms: C_2  and  C_19
REMARK    2  A    between atoms: N_3  and  C_4
REMARK    3  A    between atoms: C_4  and  C_5
REMARK    4  A    between atoms: C_8  and  N_9
REMARK    5  A    between atoms: N_9  and  C_10
REMARK    6  A    between atoms: C_10  and  C_11
REMARK                            x       y       z     vdW  Elec       q    Type
REMARK                         _______ _______ _______ _____ _____    ______ ____
ROOT
ATOM      1  C   UNL     1      46.699   7.942  13.061  0.00  0.00    +0.000 C 
ENDROOT
BRANCH   1   2
ATOM      2  C   UNL     1      45.944   6.956  12.202  0.00  0.00    +0.000 A 
ATOM      3  N   UNL     1      44.877   6.324  12.724  0.00  0.00    +0.000 NA
ATOM      4  C   UNL     1      44.282   5.400  11.934  0.00  0.00    +0.000 A 
ATOM      5  C   UNL     1      44.686   5.081  10.653  0.00  0.00    +0.000 A 
ATOM      6  C   UNL     1      45.835   5.739  10.261  0.00  0.00    +0.000 A 
ATOM      7  N   UNL     1      46.483   6.667  11.004  0.00  0.00    +0.000 NA
BRANCH   5   8
ATOM      8  N   UNL     1      44.014   4.101   9.906  0.00  0.00    +0.000 N 
ATOM      9  H   UNL     1      43.030   4.066  10.181  0.00  0.00    +0.000 HD
BRANCH   8  10
ATOM     10  C   UNL     1      44.593   2.751   9.933  0.00  0.00    +0.000 C 
BRANCH  10  11
ATOM     11  C   UNL     1      45.412   2.483   8.696  0.00  0.00    +0.000 A 
ATOM     12  C   UNL     1      45.568   3.469   7.726  0.00  0.00    +0.000 A 
ATOM     13  N   UNL     1      46.343   3.304   6.627  0.00  0.00    +0.000 NA
ATOM     14  C   UNL     1      46.962   2.108   6.532  0.00  0.00    +0.000 A 
ATOM     15  C   UNL     1      46.811   1.118   7.490  0.00  0.00    +0.000 A 
ATOM     16  N   UNL     1      46.037   1.280   8.587  0.00  0.00    +0.000 NA
ENDBRANCH  10  11
ENDBRANCH   8  10
ENDBRANCH   5   8
ENDBRANCH   1   2
BRANCH   1  19
ATOM     17  O   UNL     1      49.188   6.772  13.517  0.00  0.00    +0.000 OA
ATOM     18  C   UNL     1      48.373   6.796  14.431  0.00  0.00    +0.000 C 
ATOM     19  N   UNL     1      47.120   7.328  14.303  0.00  0.00    +0.000 N 
ATOM     20  H   UNL     1      46.405   7.078  14.973  0.00  0.00    +0.000 HD
BRANCH  18  21
ATOM     21  C   UNL     1      48.707   6.350  15.776  0.00  0.00    +0.000 A 
ATOM     22  C   UNL     1      49.471   7.076  16.676  0.00  0.00    +0.000 A 
ATOM     23  S   UNL     1      50.060   6.104  17.959  0.00  0.00    +0.000 S 
ATOM     24  C   UNL     1      49.222   4.737  17.380  0.00  0.00    +0.000 A 
ATOM     25  N   UNL     1      49.362   3.508  17.943  0.00  0.00    +0.000 NA
ATOM     26  C   UNL     1      48.602   2.601  17.420  0.00  0.00    +0.000 A 
ATOM     27  N   UNL     1      47.681   2.820  16.423  0.00  0.00    +0.000 N 
ATOM     28  C   UNL     1      47.467   4.059  15.864  0.00  0.00    +0.000 A 
ATOM     29  O   UNL     1      46.503   4.287  15.144  0.00  0.00    +0.000 OA
ATOM     30  C   UNL     1      48.407   5.061  16.316  0.00  0.00    +0.000 A 
ATOM     31  H   UNL     1      47.027   2.101  16.158  0.00  0.00    +0.000 HD
ENDBRANCH  18  21
ENDBRANCH   1  19
TORSDOF 6
ENDMDL
MODEL 4
REMARK VINA RESULT:    -7.665      1.722      2.872
REMARK INTER + INTRA:         -11.165
REMARK INTER:                 -10.291
REMARK INTRA:                  -0.874
REMARK UNBOUND:                -0.811
REMARK  Name = 
REMARK  6 active torsions:
REMARK  status: ('A' for Active; 'I' for Inactive)
REMARK    1  A    between atoms: C_2  and  C_19
REMARK    2  A    between atoms: N_3  and  C_4
REMARK    3  A    between atoms: C_4  and  C_5
REMARK    4  A    between atoms: C_8  and  N_9
REMARK    5  A    between atoms: N_9  and  C_10
REMARK    6  A    between atoms: C_10  and  C_11
REMARK                            x       y       z     vdW  Elec       q    Type
REMARK                         _______ _______ _______ _____ _____    ______ ____
ROOT
ATOM      1  C   UNL     1      47.001   4.145  15.155  0.00  0.00    +0.000 C 
ENDROOT
BRANCH   1   2
ATOM      2  C   UNL     1      46.468   4.428  13.771  0.00  0.00    +0.000 A 
ATOM      3  N   UNL     1      46.737   5.617  13.202  0.00  0.00    +0.000 NA
ATOM      4  C   UNL     1      46.174   5.844  11.992  0.00  0.00    +0.000 A 
ATOM      5  C   UNL     1      45.368   4.948  11.318  0.00  0.00    +0.000 A 
ATOM      6  C   UNL     1      45.103   3.800  12.038  0.00  0.00    +0.000 A 
ATOM      7  N   UNL     1      45.626   3.514  13.254  0.00  0.00    +0.000 NA
BRANCH   5   8
ATOM      8  N   UNL     1      44.818   5.270  10.068  0.00  0.00    +0.000 N 
ATOM      9  H   UNL     1      44.138   6.026  10.170  0.00  0.00    +0.000 HD
BRANCH   8  10
ATOM     10  C   UNL     1      44.226   4.158   9.311  0.00  0.00    +0.000 C 
BRANCH  10  11
ATOM     11  C   UNL     1      45.284   3.364   8.589  0.00  0.00    +0.000 A 
ATOM     12  C   UNL     1      45.437   2.002   8.836  0.00  0.00    +0.000 A 
ATOM     13  N   UNL     1      46.327   1.228   8.171  0.00  0.00    +0.000 NA
ATOM     14  C   UNL     1      47.066   1.869   7.240  0.00  0.00    +0.000 A 
ATOM     15  C   UNL     1      46.925   3.224   6.988  0.00  0.00    +0.000 A 
ATOM     16  N   UNL     1      46.038   3.999   7.652  0.00  0.00    +0.000 NA
ENDBRANCH  10  11
ENDBRANCH   8  10
ENDBRANCH   5   8
ENDBRANCH   1   2
BRANCH   1  19
ATOM     17  O   UNL     1      49.242   4.344  16.801  0.00  0.00    +0.000 OA
ATOM     18  C   UNL     1      48.596   5.357  16.564  0.00  0.00    +0.000 C 
ATOM     19  N   UNL     1      47.472   5.361  15.786  0.00  0.00    +0.000 N 
ATOM     20  H   UNL     1      46.830   6.140  15.848  0.00  0.00    +0.000 HD
BRANCH  18  21
ATOM     21  C   UNL     1      49.031   6.673  17.008  0.00  0.00    +0.000 A 
ATOM     22  C   UNL     1      49.205   7.035  18.333  0.00  0.00    +0.000 A 
ATOM     23  S   UNL     1      49.264   8.735  18.540  0.00  0.00    +0.000 S 
ATOM     24  C   UNL     1      49.158   8.997  16.860  0.00  0.00    +0.000 A 
ATOM     25  N   UNL     1      49.046  10.242  16.325  0.00  0.00    +0.000 NA
ATOM     26  C   UNL     1      49.044  10.259  15.031  0.00  0.00    +0.000 A 
ATOM     27  N   UNL     1      49.194   9.156  14.225  0.00  0.00    +0.000 N 
ATOM     28  C   UNL     1      49.365   7.884  14.725  0.00  0.00    +0.000 A 
ATOM     29  O   UNL     1      49.716   6.951  14.013  0.00  0.00    +0.000 OA
ATOM     30  C   UNL     1      49.217   7.810  16.161  0.00  0.00    +0.000 A 
ATOM     31  H   UNL     1      49.321   9.256  13.231  0.00  0.00    +0.000 HD
ENDBRANCH  18  21
ENDBRANCH   1  19
TORSDOF 6
ENDMDL
MODEL 5
REMARK VINA RESULT:    -7.496      2.776      4.191
REMARK INTER + INTRA:         -10.936
REMARK INTER:                 -10.002
REMARK INTRA:                  -0.934
REMARK UNBOUND:                -0.811
REMARK  Name = 
REMARK  6 active torsions:
REMARK  status: ('A' for Active; 'I' for Inactive)
REMARK    1  A    between atoms: C_2  and  C_19
REMARK    2  A    between atoms: N_3  and  C_4
REMARK    3  A    between atoms: C_4  and  C_5
REMARK    4  A    between atoms: C_8  and  N_9
REMARK    5  A    between atoms: N_9  and  C_10
REMARK    6  A    between atoms: C_10  and  C_11
REMARK                            x       y       z     vdW  Elec       q    Type
REMARK                         _______ _______ _______ _____ _____    ______ ____
ROOT
ATOM      1  C   UNL     1      47.266   5.030  14.584  0.00  0.00    +0.000 C 
ENDROOT
BRANCH   1   2
ATOM      2  C   UNL     1      46.366   4.723  13.411  0.00  0.00    +0.000 A 
ATOM      3  N   UNL     1      45.883   3.474  13.273  0.00  0.00    +0.000 NA
ATOM      4  C   UNL     1      45.141   3.237  12.166  0.00  0.00    +0.000 A 
ATOM      5  C   UNL     1      44.848   4.178  11.198  0.00  0.00    +0.000 A 
ATOM      6  C   UNL     1      45.465   5.395  11.412  0.00  0.00    +0.000 A 
ATOM      7  N   UNL     1      46.224   5.695  12.492  0.00  0.00    +0.000 NA
BRANCH   5   8
ATOM      8  N   UNL     1      44.076   3.842  10.075  0.00  0.00    +0.000 N 
ATOM      9  H   UNL     1      43.905   2.835  10.058  0.00  0.00    +0.000 HD
BRANCH   8  10
ATOM     10  C   UNL     1      44.592   4.288   8.774  0.00  0.00    +0.000 C 
BRANCH  10  11
ATOM     11  C   UNL     1      45.625   3.331   8.237  0.00  0.00    +0.000 A 
ATOM     12  C   UNL     1      45.584   1.982   8.582  0.00  0.00    +0.000 A 
ATOM     13  N   UNL     1      46.446   1.067   8.080  0.00  0.00    +0.000 NA
ATOM     14  C   UNL     1      47.361   1.552   7.212  0.00  0.00    +0.000 A 
ATOM     15  C   UNL     1      47.413   2.892   6.864  0.00  0.00    +0.000 A 
ATOM     16  N   UNL     1      46.554   3.808   7.366  0.00  0.00    +0.000 NA
ENDBRANCH  10  11
ENDBRANCH   8  10
ENDBRANCH   5   8
ENDBRANCH   1   2
BRANCH   1  19
ATOM     17  O   UNL     1      49.562   6.070  15.775  0.00  0.00    +0.000 OA
ATOM     18  C   UNL     1      48.805   6.835  15.190  0.00  0.00    +0.000 C 
ATOM     19  N   UNL     1      47.645   6.428  14.592  0.00  0.00    +0.000 N 
ATOM     20  H   UNL     1      46.933   7.112  14.377  0.00  0.00    +0.000 HD
BRANCH  18  21
ATOM     21  C   UNL     1      49.129   8.240  14.991  0.00  0.00    +0.000 A 
ATOM     22  C   UNL     1      49.360   9.144  16.015  0.00  0.00    +0.000 A 
ATOM     23  S   UNL     1      49.254  10.769  15.481  0.00  0.00    +0.000 S 
ATOM     24  C   UNL     1      48.998  10.281  13.869  0.00  0.00    +0.000 A 
ATOM     25  N   UNL     1      48.716  11.167  12.878  0.00  0.00    +0.000 NA
ATOM     26  C   UNL     1      48.619  10.630  11.705  0.00  0.00    +0.000 A 
ATOM     27  N   UNL     1      48.826   9.300  11.425  0.00  0.00    +0.000 N 
ATOM     28  C   UNL     1      49.167   8.378  12.389  0.00  0.00    +0.000 A 
ATOM     29  O   UNL     1      49.562   7.256  12.100  0.00  0.00    +0.000 OA
ATOM     30  C   UNL     1      49.132   8.915  13.731  0.00  0.00    +0.000 A 
ATOM     31  H   UNL     1      48.869   8.974  10.472  0.00  0.00    +0.000 HD
ENDBRANCH  18  21
ENDBRANCH   1  19
TORSDOF 6
ENDMDL
MODEL 6
REMARK VINA RESULT:    -7.178      3.456      8.464
REMARK INTER + INTRA:         -10.506
REMARK INTER:                  -9.592
REMARK INTRA:                  -0.915
REMARK UNBOUND:                -0.811
REMARK  Name = 
REMARK  6 active torsions:
REMARK  status: ('A' for Active; 'I' for Inactive)
REMARK    1  A    between atoms: C_2  and  C_19
REMARK    2  A    between atoms: N_3  and  C_4
REMARK    3  A    between atoms: C_4  and  C_5
REMARK    4  A    between atoms: C_8  and  N_9
REMARK    5  A    between atoms: N_9  and  C_10
REMARK    6  A    between atoms: C_10  and  C_11
REMARK                            x       y       z     vdW  Elec       q    Type
REMARK                         _______ _______ _______ _____ _____    ______ ____
ROOT
ATOM      1  C   UNL     1      47.874   8.167  12.413  0.00  0.00    +0.000 C 
ENDROOT
BRANCH   1   2
ATOM      2  C   UNL     1      48.369   7.946  13.822  0.00  0.00    +0.000 A 
ATOM      3  N   UNL     1      48.879   6.744  14.149  0.00  0.00    +0.000 NA
ATOM      4  C   UNL     1      49.241   6.579  15.443  0.00  0.00    +0.000 A 
ATOM      5  C   UNL     1      49.131   7.547  16.422  0.00  0.00    +0.000 A 
ATOM      6  C   UNL     1      48.523   8.706  15.981  0.00  0.00    +0.000 A 
ATOM      7  N   UNL     1      48.130   8.933  14.705  0.00  0.00    +0.000 NA
BRANCH   5   8
ATOM      8  N   UNL     1      49.525   7.286  17.744  0.00  0.00    +0.000 N 
ATOM      9  H   UNL     1      50.387   6.739  17.749  0.00  0.00    +0.000 HD
BRANCH   8  10
ATOM     10  C   UNL     1      48.520   6.653  18.608  0.00  0.00    +0.000 C 
BRANCH  10  11
ATOM     11  C   UNL     1      48.300   5.211  18.226  0.00  0.00    +0.000 A 
ATOM     12  C   UNL     1      47.058   4.785  17.763  0.00  0.00    +0.000 A 
ATOM     13  N   UNL     1      46.822   3.518  17.347  0.00  0.00    +0.000 NA
ATOM     14  C   UNL     1      47.883   2.683  17.410  0.00  0.00    +0.000 A 
ATOM     15  C   UNL     1      49.122   3.095  17.872  0.00  0.00    +0.000 A 
ATOM     16  N   UNL     1      49.359   4.360  18.290  0.00  0.00    +0.000 NA
ENDBRANCH  10  11
ENDBRANCH   8  10
ENDBRANCH   5   8
ENDBRANCH   1   2
BRANCH   1  19
ATOM     17  O   UNL     1      45.237   7.787  11.594  0.00  0.00    +0.000 OA
ATOM     18  C   UNL     1      46.031   6.864  11.465  0.00  0.00    +0.000 C 
ATOM     19  N   UNL     1      47.339   6.943  11.854  0.00  0.00    +0.000 N 
ATOM     20  H   UNL     1      47.868   6.092  11.989  0.00  0.00    +0.000 HD
BRANCH  18  21
ATOM     21  C   UNL     1      45.675   5.626  10.787  0.00  0.00    +0.000 A 
ATOM     22  C   UNL     1      45.794   5.418   9.422  0.00  0.00    +0.000 A 
ATOM     23  S   UNL     1      44.880   4.070   8.889  0.00  0.00    +0.000 S 
ATOM     24  C   UNL     1      44.401   3.697  10.481  0.00  0.00    +0.000 A 
ATOM     25  N   UNL     1      43.509   2.709  10.759  0.00  0.00    +0.000 NA
ATOM     26  C   UNL     1      43.312   2.519  12.023  0.00  0.00    +0.000 A 
ATOM     27  N   UNL     1      43.959   3.189  13.033  0.00  0.00    +0.000 N 
ATOM     28  C   UNL     1      44.909   4.157  12.798  0.00  0.00    +0.000 A 
ATOM     29  O   UNL     1      45.632   4.585  13.690  0.00  0.00    +0.000 OA
ATOM     30  C   UNL     1      45.040   4.502  11.400  0.00  0.00    +0.000 A 
ATOM     31  H   UNL     1      43.859   2.897  13.993  0.00  0.00    +0.000 HD
ENDBRANCH  18  21
ENDBRANCH   1  19
TORSDOF 6
ENDMDL
MODEL 7
REMARK VINA RESULT:    -6.671      1.615      2.192
REMARK INTER + INTRA:          -9.823
REMARK INTER:                  -8.772
REMARK INTRA:                  -1.050
REMARK UNBOUND:                -0.811
REMARK  Name = 
REMARK  6 active torsions:
REMARK  status: ('A' for Active; 'I' for Inactive)
REMARK    1  A    between atoms: C_2  and  C_19
REMARK    2  A    between atoms: N_3  and  C_4
REMARK    3  A    between atoms: C_4  and  C_5
REMARK    4  A    between atoms: C_8  and  N_9
REMARK    5  A    between atoms: N_9  and  C_10
REMARK    6  A    between atoms: C_10  and  C_11
REMARK                            x       y       z     vdW  Elec       q    Type
REMARK                         _______ _______ _______ _____ _____    ______ ____
ROOT
ATOM      1  C   UNL     1      47.681   3.892  15.749  0.00  0.00    +0.000 C 
ENDROOT
BRANCH   1   2
ATOM      2  C   UNL     1      46.991   4.531  14.567  0.00  0.00    +0.000 A 
ATOM      3  N   UNL     1      45.721   4.184  14.291  0.00  0.00    +0.000 NA
ATOM      4  C   UNL     1      45.177   4.733  13.180  0.00  0.00    +0.000 A 
ATOM      5  C   UNL     1      45.827   5.615  12.338  0.00  0.00    +0.000 A 
ATOM      6  C   UNL     1      47.147   5.831  12.684  0.00  0.00    +0.000 A 
ATOM      7  N   UNL     1      47.754   5.307  13.775  0.00  0.00    +0.000 NA
BRANCH   5   8
ATOM      8  N   UNL     1      45.188   6.131  11.200  0.00  0.00    +0.000 N 
ATOM      9  H   UNL     1      44.741   7.022  11.425  0.00  0.00    +0.000 HD
BRANCH   8  10
ATOM     10  C   UNL     1      44.231   5.240  10.532  0.00  0.00    +0.000 C 
BRANCH  10  11
ATOM     11  C   UNL     1      44.934   4.270   9.617  0.00  0.00    +0.000 A 
ATOM     12  C   UNL     1      44.795   2.897   9.803  0.00  0.00    +0.000 A 
ATOM     13  N   UNL     1      45.352   1.981   8.975  0.00  0.00    +0.000 NA
ATOM     14  C   UNL     1      46.059   2.492   7.943  0.00  0.00    +0.000 A 
ATOM     15  C   UNL     1      46.208   3.855   7.751  0.00  0.00    +0.000 A 
ATOM     16  N   UNL     1      45.654   4.771   8.578  0.00  0.00    +0.000 NA
ENDBRANCH  10  11
ENDBRANCH   8  10
ENDBRANCH   5   8
ENDBRANCH   1   2
BRANCH   1  19
ATOM     17  O   UNL     1      46.633   4.824  18.158  0.00  0.00    +0.000 OA
ATOM     18  C   UNL     1      47.706   5.271  17.771  0.00  0.00    +0.000 C 
ATOM     19  N   UNL     1      48.293   4.895  16.595  0.00  0.00    +0.000 N 
ATOM     20  H   UNL     1      49.011   5.480  16.191  0.00  0.00    +0.000 HD
BRANCH  18  21
ATOM     21  C   UNL     1      48.506   6.175  18.585  0.00  0.00    +0.000 A 
ATOM     22  C   UNL     1      49.058   5.843  19.812  0.00  0.00    +0.000 A 
ATOM     23  S   UNL     1      49.530   7.226  20.707  0.00  0.00    +0.000 S 
ATOM     24  C   UNL     1      49.095   8.267  19.430  0.00  0.00    +0.000 A 
ATOM     25  N   UNL     1      49.134   9.621  19.551  0.00  0.00    +0.000 NA
ATOM     26  C   UNL     1      48.836  10.254  18.463  0.00  0.00    +0.000 A 
ATOM     27  N   UNL     1      48.552   9.662  17.256  0.00  0.00    +0.000 N 
ATOM     28  C   UNL     1      48.555   8.297  17.074  0.00  0.00    +0.000 A 
ATOM     29  O   UNL     1      48.521   7.793  15.959  0.00  0.00    +0.000 OA
ATOM     30  C   UNL     1      48.733   7.558  18.304  0.00  0.00    +0.000 A 
ATOM     31  H   UNL     1      48.463  10.215  16.418  0.00  0.00    +0.000 HD
ENDBRANCH  18  21
ENDBRANCH   1  19
TORSDOF 6
ENDMDL
MODEL 8
REMARK VINA RESULT:    -6.652      3.725      5.393
REMARK INTER + INTRA:          -9.796
REMARK INTER:                  -9.112
REMARK INTRA:                  -0.685
REMARK UNBOUND:                -0.811
REMARK  Name = 
REMARK  6 active torsions:
REMARK  status: ('A' for Active; 'I' for Inactive)
REMARK    1  A    between atoms: C_2  and  C_19
REMARK    2  A    between atoms: N_3  and  C_4
REMARK    3  A    between atoms: C_4  and  C_5
REMARK    4  A    between atoms: C_8  and  N_9
REMARK    5  A    between atoms: N_9  and  C_10
REMARK    6  A    between atoms: C_10  and  C_11
REMARK                            x       y       z     vdW  Elec       q    Type
REMARK                         _______ _______ _______ _____ _____    ______ ____
ROOT
ATOM      1  C   UNL     1      46.852   4.180  14.444  0.00  0.00    +0.000 C 
ENDROOT
BRANCH   1   2
ATOM      2  C   UNL     1      46.129   5.167  13.559  0.00  0.00    +0.000 A 
ATOM      3  N   UNL     1      46.731   6.333  13.261  0.00  0.00    +0.000 NA
ATOM      4  C   UNL     1      46.009   7.209  12.524  0.00  0.00    +0.000 A 
ATOM      5  C   UNL     1      44.727   6.981  12.062  0.00  0.00    +0.000 A 
ATOM      6  C   UNL     1      44.191   5.786  12.499  0.00  0.00    +0.000 A 
ATOM      7  N   UNL     1      44.855   4.870  13.243  0.00  0.00    +0.000 NA
BRANCH   5   8
ATOM      8  N   UNL     1      44.048   7.951  11.309  0.00  0.00    +0.000 N 
ATOM      9  H   UNL     1      43.984   7.655  10.334  0.00  0.00    +0.000 HD
BRANCH   8  10
ATOM     10  C   UNL     1      44.573   9.321  11.387  0.00  0.00    +0.000 C 
BRANCH  10  11
ATOM     11  C   UNL     1      43.536  10.330  10.966  0.00  0.00    +0.000 A 
ATOM     12  C   UNL     1      43.175  10.454   9.627  0.00  0.00    +0.000 A 
ATOM     13  N   UNL     1      42.205  11.298   9.201  0.00  0.00    +0.000 NA
ATOM     14  C   UNL     1      41.603  12.021  10.171  0.00  0.00    +0.000 A 
ATOM     15  C   UNL     1      41.956  11.908  11.505  0.00  0.00    +0.000 A 
ATOM     16  N   UNL     1      42.925  11.067  11.933  0.00  0.00    +0.000 NA
ENDBRANCH  10  11
ENDBRANCH   8  10
ENDBRANCH   5   8
ENDBRANCH   1   2
BRANCH   1  19
ATOM     17  O   UNL     1      46.598   3.203  17.043  0.00  0.00    +0.000 OA
ATOM     18  C   UNL     1      47.198   4.256  16.866  0.00  0.00    +0.000 C 
ATOM     19  N   UNL     1      47.359   4.828  15.635  0.00  0.00    +0.000 N 
ATOM     20  H   UNL     1      47.604   5.808  15.572  0.00  0.00    +0.000 HD
BRANCH  18  21
ATOM     21  C   UNL     1      47.887   4.944  17.949  0.00  0.00    +0.000 A 
ATOM     22  C   UNL     1      47.259   5.717  18.911  0.00  0.00    +0.000 A 
ATOM     23  S   UNL     1      48.356   6.741  19.739  0.00  0.00    +0.000 S 
ATOM     24  C   UNL     1      49.685   6.092  18.892  0.00  0.00    +0.000 A 
ATOM     25  N   UNL     1      50.943   6.588  19.025  0.00  0.00    +0.000 NA
ATOM     26  C   UNL     1      51.839   5.933  18.361  0.00  0.00    +0.000 A 
ATOM     27  N   UNL     1      51.602   4.801  17.618  0.00  0.00    +0.000 N 
ATOM     28  C   UNL     1      50.354   4.232  17.502  0.00  0.00    +0.000 A 
ATOM     29  O   UNL     1      50.193   3.114  17.028  0.00  0.00    +0.000 OA
ATOM     30  C   UNL     1      49.306   5.026  18.104  0.00  0.00    +0.000 A 
ATOM     31  H   UNL     1      52.366   4.263  17.239  0.00  0.00    +0.000 HD
ENDBRANCH  18  21
ENDBRANCH   1  19
TORSDOF 6
ENDMDL
MODEL 9
REMARK VINA RESULT:    -6.575      4.451      9.482
REMARK INTER + INTRA:          -9.692
REMARK INTER:                  -8.881
REMARK INTRA:                  -0.811
REMARK UNBOUND:                -0.811
REMARK  Name = 
REMARK  6 active torsions:
REMARK  status: ('A' for Active; 'I' for Inactive)
REMARK    1  A    between atoms: C_2  and  C_19
REMARK    2  A    between atoms: N_3  and  C_4
REMARK    3  A    between atoms: C_4  and  C_5
REMARK    4  A    between atoms: C_8  and  N_9
REMARK    5  A    between atoms: N_9  and  C_10
REMARK    6  A    between atoms: C_10  and  C_11
REMARK                            x       y       z     vdW  Elec       q    Type
REMARK                         _______ _______ _______ _____ _____    ______ ____
ROOT
ATOM      1  C   UNL     1      46.983   3.827  16.465  0.00  0.00    +0.000 C 
ENDROOT
BRANCH   1   2
ATOM      2  C   UNL     1      48.327   4.250  17.007  0.00  0.00    +0.000 A 
ATOM      3  N   UNL     1      48.536   5.552  17.279  0.00  0.00    +0.000 NA
ATOM      4  C   UNL     1      49.780   5.885  17.694  0.00  0.00    +0.000 A 
ATOM      5  C   UNL     1      50.821   4.992  17.861  0.00  0.00    +0.000 A 
ATOM      6  C   UNL     1      50.505   3.704  17.475  0.00  0.00    +0.000 A 
ATOM      7  N   UNL     1      49.284   3.306  17.044  0.00  0.00    +0.000 NA
BRANCH   5   8
ATOM      8  N   UNL     1      52.085   5.427  18.288  0.00  0.00    +0.000 N 
ATOM      9  H   UNL     1      52.215   6.411  18.047  0.00  0.00    +0.000 HD
BRANCH   8  10
ATOM     10  C   UNL     1      53.235   4.638  17.827  0.00  0.00    +0.000 C 
BRANCH  10  11
ATOM     11  C   UNL     1      53.849   3.853  18.958  0.00  0.00    +0.000 A 
ATOM     12  C   UNL     1      53.837   2.461  18.938  0.00  0.00    +0.000 A 
ATOM     13  N   UNL     1      54.429   1.706  19.895  0.00  0.00    +0.000 NA
ATOM     14  C   UNL     1      55.038   2.399  20.881  0.00  0.00    +0.000 A 
ATOM     15  C   UNL     1      55.053   3.784  20.912  0.00  0.00    +0.000 A 
ATOM     16  N   UNL     1      54.461   4.539  19.959  0.00  0.00    +0.000 NA
ENDBRANCH  10  11
ENDBRANCH   8  10
ENDBRANCH   5   8
ENDBRANCH   1   2
BRANCH   1  19
ATOM     17  O   UNL     1      47.496   3.281  13.780  0.00  0.00    +0.000 OA
ATOM     18  C   UNL     1      46.872   4.296  14.065  0.00  0.00    +0.000 C 
ATOM     19  N   UNL     1      46.588   4.663  15.350  0.00  0.00    +0.000 N 
ATOM     20  H   UNL     1      46.330   5.621  15.546  0.00  0.00    +0.000 HD
BRANCH  18  21
ATOM     21  C   UNL     1      46.285   5.154  13.046  0.00  0.00    +0.000 A 
ATOM     22  C   UNL     1      46.872   6.313  12.564  0.00  0.00    +0.000 A 
ATOM     23  S   UNL     1      45.751   7.315  11.742  0.00  0.00    +0.000 S 
ATOM     24  C   UNL     1      44.504   6.170  11.934  0.00  0.00    +0.000 A 
ATOM     25  N   UNL     1      43.223   6.422  11.557  0.00  0.00    +0.000 NA
ATOM     26  C   UNL     1      42.422   5.418  11.715  0.00  0.00    +0.000 A 
ATOM     27  N   UNL     1      42.793   4.174  12.166  0.00  0.00    +0.000 N 
ATOM     28  C   UNL     1      44.089   3.859  12.506  0.00  0.00    +0.000 A 
ATOM     29  O   UNL     1      44.447   2.703  12.692  0.00  0.00    +0.000 OA
ATOM     30  C   UNL     1      44.978   5.000  12.489  0.00  0.00    +0.000 A 
ATOM     31  H   UNL     1      42.148   3.400  12.135  0.00  0.00    +0.000 HD
ENDBRANCH  18  21
ENDBRANCH   1  19
TORSDOF 6
ENDMDL
