MODEL 1
REMARK VINA RESULT:    -8.653      0.000      0.000
REMARK INTER + INTRA:         -12.569
REMARK INTER:                 -11.688
REMARK INTRA:                  -0.882
REMARK UNBOUND:                -0.882
REMARK  Name = 
REMARK  8 active torsions:
REMARK  status: ('A' for Active; 'I' for Inactive)
REMARK    1  A    between atoms: C_1  and  C_2
REMARK    2  A    between atoms: C_8  and  C_9
REMARK    3  A    between atoms: N_11  and  C_12
REMARK    4  A    between atoms: C_12  and  C_13
REMARK    5  A    between atoms: C_16  and  N_17
REMARK    6  A    between atoms: N_17  and  C_18
REMARK    7  A    between atoms: N_17  and  C_19
REMARK    8  A    between atoms: C_19  and  C_20
REMARK                            x       y       z     vdW  Elec       q    Type
REMARK                         _______ _______ _______ _____ _____    ______ ____
ROOT
ATOM      1  C   UNL     1      48.099   6.486  14.657  0.00  0.00    +0.000 C 
ENDROOT
BRANCH   1   2
ATOM      2  C   UNL     1      47.190   5.809  13.661  0.00  0.00    +0.000 A 
ATOM      3  C   UNL     1      46.654   4.537  13.895  0.00  0.00    +0.000 A 
ATOM      4  C   UNL     1      45.801   3.925  12.954  0.00  0.00    +0.000 A 
ATOM      5  C   UNL     1      45.436   4.557  11.755  0.00  0.00    +0.000 A 
ATOM      6  C   UNL     1      46.030   5.811  11.521  0.00  0.00    +0.000 A 
ATOM      7  C   UNL     1      46.884   6.428  12.450  0.00  0.00    +0.000 A 
BRANCH   5   8
ATOM      8  N   UNL     1      44.485   3.999  10.898  0.00  0.00    +0.000 N 
ATOM      9  C   UNL     1      43.159   3.648  11.408  0.00  0.00    +0.000 C 
BRANCH   8  10
ATOM     10  C   UNL     1      44.565   4.238   9.444  0.00  0.00    +0.000 C 
BRANCH  10  11
ATOM     11  C   UNL     1      45.422   3.270   8.660  0.00  0.00    +0.000 A 
ATOM     12  C   UNL     1      46.251   3.757   7.635  0.00  0.00    +0.000 A 
ATOM     13  C   UNL     1      47.065   2.892   6.907  0.00  0.00    +0.000 A 
ATOM     14  C   UNL     1      47.027   1.544   7.218  0.00  0.00    +0.000 A 
ATOM     15  N   UNL     1      46.241   1.030   8.188  0.00  0.00    +0.000 NA
ATOM     16  C   UNL     1      45.459   1.899   8.882  0.00  0.00    +0.000 A 
ENDBRANCH  10  11
ENDBRANCH   8  10
ENDBRANCH   5   8
ENDBRANCH   1   2
BRANCH   1  19
ATOM     17  C   UNL     1      49.126   5.607  16.718  0.00  0.00    +0.000 C 
ATOM     18  O   UNL     1      50.259   5.876  16.334  0.00  0.00    +0.000 OA
ATOM     19  N   UNL     1      48.004   5.858  15.955  0.00  0.00    +0.000 N 
ATOM     20  H   UNL     1      47.100   5.827  16.400  0.00  0.00    +0.000 HD
BRANCH  17  28
ATOM     21  C   UNL     1      47.288   8.582  21.455  0.00  0.00    +0.000 C 
ATOM     22  C   UNL     1      47.661   7.210  20.987  0.00  0.00    +0.000 A 
ATOM     23  C   UNL     1      47.619   6.114  21.844  0.00  0.00    +0.000 A 
ATOM     24  N   UNL     1      47.928   4.840  21.513  0.00  0.00    +0.000 NA
ATOM     25  C   UNL     1      48.303   4.703  20.229  0.00  0.00    +0.000 A 
ATOM     26  N   UNL     1      48.639   3.509  19.657  0.00  0.00    +0.000 N 
ATOM     27  C   UNL     1      48.958   3.700  18.339  0.00  0.00    +0.000 A 
ATOM     28  C   UNL     1      48.850   5.054  18.044  0.00  0.00    +0.000 A 
ATOM     29  C   UNL     1      48.411   5.695  19.256  0.00  0.00    +0.000 A 
ATOM     30  C   UNL     1      48.061   6.999  19.659  0.00  0.00    +0.000 A 
ATOM     31  H   UNL     1      48.632   2.631  20.155  0.00  0.00    +0.000 HD
ENDBRANCH  17  28
ENDBRANCH   1  19
TORSDOF 6
ENDMDL
MODEL 2
REMARK VINA RESULT:    -8.115      1.869      2.784
REMARK INTER + INTRA:         -11.843
REMARK INTER:                 -10.765
REMARK INTRA:                  -1.078
REMARK UNBOUND:                -0.882
REMARK  Name = 
REMARK  8 active torsions:
REMARK  status: ('A' for Active; 'I' for Inactive)
REMARK    1  A    between atoms: C_1  and  C_2
REMARK    2  A    between atoms: C_8  and  C_9
REMARK    3  A    between atoms: N_11  and  C_12
REMARK    4  A    between atoms: C_12  and  C_13
REMARK    5  A    between atoms: C_16  and  N_17
REMARK    6  A    between atoms: N_17  and  C_18
REMARK    7  A    between atoms: N_17  and  C_19
REMARK    8  A    between atoms: C_19  and  C_20
REMARK                            x       y       z     vdW  Elec       q    Type
REMARK                         _______ _______ _______ _____ _____    ______ ____
ROOT
ATOM      1  C   UNL     1      47.492   7.882  13.191  0.00  0.00    +0.000 C 
ENDROOT
BRANCH   1   2
ATOM      2  C   UNL     1      46.635   6.806  12.569  0.00  0.00    +0.000 A 
ATOM      3  C   UNL     1      45.801   7.067  11.476  0.00  0.00    +0.000 A 
ATOM      4  C   UNL     1      45.014   6.045  10.904  0.00  0.00    +0.000 A 
ATOM      5  C   UNL     1      45.038   4.727  11.385  0.00  0.00    +0.000 A 
ATOM      6  C   UNL     1      45.845   4.505  12.517  0.00  0.00    +0.000 A 
ATOM      7  C   UNL     1      46.630   5.516  13.096  0.00  0.00    +0.000 A 
BRANCH   5   8
ATOM      8  N   UNL     1      44.360   3.698  10.727  0.00  0.00    +0.000 N 
ATOM      9  C   UNL     1      43.333   2.931  11.432  0.00  0.00    +0.000 C 
BRANCH   8  10
ATOM     10  C   UNL     1      44.253   3.704   9.255  0.00  0.00    +0.000 C 
BRANCH  10  11
ATOM     11  C   UNL     1      45.328   2.947   8.509  0.00  0.00    +0.000 A 
ATOM     12  C   UNL     1      46.158   3.637   7.609  0.00  0.00    +0.000 A 
ATOM     13  C   UNL     1      47.169   2.971   6.920  0.00  0.00    +0.000 A 
ATOM     14  C   UNL     1      47.325   1.614   7.142  0.00  0.00    +0.000 A 
ATOM     15  N   UNL     1      46.547   0.908   7.990  0.00  0.00    +0.000 NA
ATOM     16  C   UNL     1      45.569   1.586   8.649  0.00  0.00    +0.000 A 
ENDBRANCH  10  11
ENDBRANCH   8  10
ENDBRANCH   5   8
ENDBRANCH   1   2
BRANCH   1  19
ATOM     17  C   UNL     1      49.357   7.425  14.737  0.00  0.00    +0.000 C 
ATOM     18  O   UNL     1      50.199   7.723  13.898  0.00  0.00    +0.000 OA
ATOM     19  N   UNL     1      48.002   7.458  14.475  0.00  0.00    +0.000 N 
ATOM     20  H   UNL     1      47.359   7.422  15.251  0.00  0.00    +0.000 HD
BRANCH  17  28
ATOM     21  C   UNL     1      47.364   2.782  17.759  0.00  0.00    +0.000 C 
ATOM     22  C   UNL     1      48.260   3.975  17.873  0.00  0.00    +0.000 A 
ATOM     23  C   UNL     1      48.960   4.249  19.045  0.00  0.00    +0.000 A 
ATOM     24  N   UNL     1      49.797   5.293  19.240  0.00  0.00    +0.000 NA
ATOM     25  C   UNL     1      49.905   6.092  18.164  0.00  0.00    +0.000 A 
ATOM     26  N   UNL     1      50.709   7.196  18.113  0.00  0.00    +0.000 N 
ATOM     27  C   UNL     1      50.610   7.784  16.880  0.00  0.00    +0.000 A 
ATOM     28  C   UNL     1      49.703   7.064  16.112  0.00  0.00    +0.000 A 
ATOM     29  C   UNL     1      49.265   5.965  16.933  0.00  0.00    +0.000 A 
ATOM     30  C   UNL     1      48.418   4.848  16.786  0.00  0.00    +0.000 A 
ATOM     31  H   UNL     1      51.288   7.500  18.881  0.00  0.00    +0.000 HD
ENDBRANCH  17  28
ENDBRANCH   1  19
TORSDOF 6
ENDMDL
MODEL 3
REMARK VINA RESULT:    -7.818      4.227      6.573
REMARK INTER + INTRA:         -11.442
REMARK INTER:                 -10.319
REMARK INTRA:                  -1.123
REMARK UNBOUND:                -0.882
REMARK  Name = 
REMARK  8 active torsions:
REMARK  status: ('A' for Active; 'I' for Inactive)
REMARK    1  A    between atoms: C_1  and  C_2
REMARK    2  A    between atoms: C_8  and  C_9
REMARK    3  A    between atoms: N_11  and  C_12
REMARK    4  A    between atoms: C_12  and  C_13
REMARK    5  A    between atoms: C_16  and  N_17
REMARK    6  A    between atoms: N_17  and  C_18
REMARK    7  A    between atoms: N_17  and  C_19
REMARK    8  A    between atoms: C_19  and  C_20
REMARK                            x       y       z     vdW  Elec       q    Type
REMARK                         _______ _______ _______ _____ _____    ______ ____
ROOT
ATOM      1  C   UNL     1      47.558   6.677  13.948  0.00  0.00    +0.000 C 
ENDROOT
BRANCH   1   2
ATOM      2  C   UNL     1      46.759   5.704  13.116  0.00  0.00    +0.000 A 
ATOM      3  C   UNL     1      46.629   4.358  13.474  0.00  0.00    +0.000 A 
ATOM      4  C   UNL     1      45.871   3.467  12.686  0.00  0.00    +0.000 A 
ATOM      5  C   UNL     1      45.203   3.882  11.524  0.00  0.00    +0.000 A 
ATOM      6  C   UNL     1      45.393   5.227  11.158  0.00  0.00    +0.000 A 
ATOM      7  C   UNL     1      46.149   6.122  11.934  0.00  0.00    +0.000 A 
BRANCH   5   8
ATOM      8  N   UNL     1      44.346   3.024  10.830  0.00  0.00    +0.000 N 
ATOM      9  C   UNL     1      43.226   2.391  11.526  0.00  0.00    +0.000 C 
BRANCH   8  10
ATOM     10  C   UNL     1      44.201   3.144   9.366  0.00  0.00    +0.000 C 
BRANCH  10  11
ATOM     11  C   UNL     1      45.343   2.597   8.540  0.00  0.00    +0.000 A 
ATOM     12  C   UNL     1      46.079   3.468   7.719  0.00  0.00    +0.000 A 
ATOM     13  C   UNL     1      47.148   2.997   6.960  0.00  0.00    +0.000 A 
ATOM     14  C   UNL     1      47.455   1.649   7.032  0.00  0.00    +0.000 A 
ATOM     15  N   UNL     1      46.771   0.774   7.800  0.00  0.00    +0.000 NA
ATOM     16  C   UNL     1      45.734   1.264   8.531  0.00  0.00    +0.000 A 
ENDBRANCH  10  11
ENDBRANCH   8  10
ENDBRANCH   5   8
ENDBRANCH   1   2
BRANCH   1  19
ATOM     17  C   UNL     1      47.901   8.800  12.744  0.00  0.00    +0.000 C 
ATOM     18  O   UNL     1      48.896   8.377  12.167  0.00  0.00    +0.000 OA
ATOM     19  N   UNL     1      47.187   8.041  13.649  0.00  0.00    +0.000 N 
ATOM     20  H   UNL     1      46.266   8.350  13.918  0.00  0.00    +0.000 HD
BRANCH  17  28
ATOM     21  C   UNL     1      42.568   9.988  10.550  0.00  0.00    +0.000 C 
ATOM     22  C   UNL     1      43.823  10.643  11.037  0.00  0.00    +0.000 A 
ATOM     23  C   UNL     1      43.962  12.027  11.050  0.00  0.00    +0.000 A 
ATOM     24  N   UNL     1      45.049  12.709  11.478  0.00  0.00    +0.000 NA
ATOM     25  C   UNL     1      46.039  11.908  11.909  0.00  0.00    +0.000 A 
ATOM     26  N   UNL     1      47.225  12.365  12.409  0.00  0.00    +0.000 N 
ATOM     27  C   UNL     1      48.013  11.306  12.773  0.00  0.00    +0.000 A 
ATOM     28  C   UNL     1      47.339  10.126  12.483  0.00  0.00    +0.000 A 
ATOM     29  C   UNL     1      46.062  10.515  11.944  0.00  0.00    +0.000 A 
ATOM     30  C   UNL     1      44.894   9.864  11.500  0.00  0.00    +0.000 A 
ATOM     31  H   UNL     1      47.452  13.345  12.497  0.00  0.00    +0.000 HD
ENDBRANCH  17  28
ENDBRANCH   1  19
TORSDOF 6
ENDMDL
MODEL 4
REMARK VINA RESULT:    -7.700      1.743      2.166
REMARK INTER + INTRA:         -11.282
REMARK INTER:                 -10.370
REMARK INTRA:                  -0.912
REMARK UNBOUND:                -0.882
REMARK  Name = 
REMARK  8 active torsions:
REMARK  status: ('A' for Active; 'I' for Inactive)
REMARK    1  A    between atoms: C_1  and  C_2
REMARK    2  A    between atoms: C_8  and  C_9
REMARK    3  A    between atoms: N_11  and  C_12
REMARK    4  A    between atoms: C_12  and  C_13
REMARK    5  A    between atoms: C_16  and  N_17
REMARK    6  A    between atoms: N_17  and  C_18
REMARK    7  A    between atoms: N_17  and  C_19
REMARK    8  A    between atoms: C_19  and  C_20
REMARK                            x       y       z     vdW  Elec       q    Type
REMARK                         _______ _______ _______ _____ _____    ______ ____
ROOT
ATOM      1  C   UNL     1      47.668   7.511  13.453  0.00  0.00    +0.000 C 
ENDROOT
BRANCH   1   2
ATOM      2  C   UNL     1      46.780   6.517  12.745  0.00  0.00    +0.000 A 
ATOM      3  C   UNL     1      46.333   6.727  11.436  0.00  0.00    +0.000 A 
ATOM      4  C   UNL     1      45.510   5.781  10.790  0.00  0.00    +0.000 A 
ATOM      5  C   UNL     1      45.115   4.586  11.412  0.00  0.00    +0.000 A 
ATOM      6  C   UNL     1      45.535   4.425  12.745  0.00  0.00    +0.000 A 
ATOM      7  C   UNL     1      46.352   5.363  13.399  0.00  0.00    +0.000 A 
BRANCH   5   8
ATOM      8  N   UNL     1      44.416   3.599  10.715  0.00  0.00    +0.000 N 
ATOM      9  C   UNL     1      43.363   2.836  11.388  0.00  0.00    +0.000 C 
BRANCH   8  10
ATOM     10  C   UNL     1      44.320   3.655   9.243  0.00  0.00    +0.000 C 
BRANCH  10  11
ATOM     11  C   UNL     1      45.379   2.892   8.481  0.00  0.00    +0.000 A 
ATOM     12  C   UNL     1      46.197   3.576   7.565  0.00  0.00    +0.000 A 
ATOM     13  C   UNL     1      47.193   2.904   6.861  0.00  0.00    +0.000 A 
ATOM     14  C   UNL     1      47.346   1.546   7.083  0.00  0.00    +0.000 A 
ATOM     15  N   UNL     1      46.579   0.846   7.946  0.00  0.00    +0.000 NA
ATOM     16  C   UNL     1      45.617   1.530   8.620  0.00  0.00    +0.000 A 
ENDBRANCH  10  11
ENDBRANCH   8  10
ENDBRANCH   5   8
ENDBRANCH   1   2
BRANCH   1  19
ATOM     17  C   UNL     1      49.033   6.893  15.410  0.00  0.00    +0.000 C 
ATOM     18  O   UNL     1      50.068   6.879  14.753  0.00  0.00    +0.000 OA
ATOM     19  N   UNL     1      47.803   7.179  14.852  0.00  0.00    +0.000 N 
ATOM     20  H   UNL     1      47.033   7.395  15.466  0.00  0.00    +0.000 HD
BRANCH  17  28
ATOM     21  C   UNL     1      51.071  10.538  19.560  0.00  0.00    +0.000 C 
ATOM     22  C   UNL     1      50.413   9.207  19.370  0.00  0.00    +0.000 A 
ATOM     23  C   UNL     1      50.089   8.395  20.452  0.00  0.00    +0.000 A 
ATOM     24  N   UNL     1      49.487   7.186  20.382  0.00  0.00    +0.000 NA
ATOM     25  C   UNL     1      49.215   6.804  19.122  0.00  0.00    +0.000 A 
ATOM     26  N   UNL     1      48.590   5.633  18.800  0.00  0.00    +0.000 N 
ATOM     27  C   UNL     1      48.445   5.543  17.441  0.00  0.00    +0.000 A 
ATOM     28  C   UNL     1      49.010   6.670  16.856  0.00  0.00    +0.000 A 
ATOM     29  C   UNL     1      49.488   7.489  17.940  0.00  0.00    +0.000 A 
ATOM     30  C   UNL     1      50.102   8.750  18.080  0.00  0.00    +0.000 A 
ATOM     31  H   UNL     1      48.280   4.960  19.485  0.00  0.00    +0.000 HD
ENDBRANCH  17  28
ENDBRANCH   1  19
TORSDOF 6
ENDMDL
MODEL 5
REMARK VINA RESULT:    -7.527      1.998      2.742
REMARK INTER + INTRA:         -11.049
REMARK INTER:                 -10.073
REMARK INTRA:                  -0.975
REMARK UNBOUND:                -0.882
REMARK  Name = 
REMARK  8 active torsions:
REMARK  status: ('A' for Active; 'I' for Inactive)
REMARK    1  A    between atoms: C_1  and  C_2
REMARK    2  A    between atoms: C_8  and  C_9
REMARK    3  A    between atoms: N_11  and  C_12
REMARK    4  A    between atoms: C_12  and  C_13
REMARK    5  A    between atoms: C_16  and  N_17
REMARK    6  A    between atoms: N_17  and  C_18
REMARK    7  A    between atoms: N_17  and  C_19
REMARK    8  A    between atoms: C_19  and  C_20
REMARK                            x       y       z     vdW  Elec       q    Type
REMARK                         _______ _______ _______ _____ _____    ______ ____
ROOT
ATOM      1  C   UNL     1      47.655   8.667  13.521  0.00  0.00    +0.000 C 
ENDROOT
BRANCH   1   2
ATOM      2  C   UNL     1      46.852   7.517  12.964  0.00  0.00    +0.000 A 
ATOM      3  C   UNL     1      47.042   6.202  13.404  0.00  0.00    +0.000 A 
ATOM      4  C   UNL     1      46.275   5.143  12.876  0.00  0.00    +0.000 A 
ATOM      5  C   UNL     1      45.283   5.351  11.906  0.00  0.00    +0.000 A 
ATOM      6  C   UNL     1      45.149   6.673  11.443  0.00  0.00    +0.000 A 
ATOM      7  C   UNL     1      45.910   7.735  11.960  0.00  0.00    +0.000 A 
BRANCH   5   8
ATOM      8  N   UNL     1      44.440   4.317  11.492  0.00  0.00    +0.000 N 
ATOM      9  C   UNL     1      43.554   3.666  12.458  0.00  0.00    +0.000 C 
BRANCH   8  10
ATOM     10  C   UNL     1      44.023   4.218  10.080  0.00  0.00    +0.000 C 
BRANCH  10  11
ATOM     11  C   UNL     1      44.948   3.443   9.169  0.00  0.00    +0.000 A 
ATOM     12  C   UNL     1      45.679   4.128   8.183  0.00  0.00    +0.000 A 
ATOM     13  C   UNL     1      46.553   3.444   7.341  0.00  0.00    +0.000 A 
ATOM     14  C   UNL     1      46.671   2.074   7.498  0.00  0.00    +0.000 A 
ATOM     15  N   UNL     1      45.984   1.372   8.425  0.00  0.00    +0.000 NA
ATOM     16  C   UNL     1      45.140   2.068   9.234  0.00  0.00    +0.000 A 
ENDBRANCH  10  11
ENDBRANCH   8  10
ENDBRANCH   5   8
ENDBRANCH   1   2
BRANCH   1  19
ATOM     17  C   UNL     1      48.500   8.661  15.837  0.00  0.00    +0.000 C 
ATOM     18  O   UNL     1      49.643   8.400  15.478  0.00  0.00    +0.000 OA
ATOM     19  N   UNL     1      47.454   8.796  14.946  0.00  0.00    +0.000 N 
ATOM     20  H   UNL     1      46.599   9.225  15.266  0.00  0.00    +0.000 HD
BRANCH  17  28
ATOM     21  C   UNL     1      48.591   4.760  20.245  0.00  0.00    +0.000 C 
ATOM     22  C   UNL     1      48.282   6.191  19.935  0.00  0.00    +0.000 A 
ATOM     23  C   UNL     1      47.845   7.071  20.920  0.00  0.00    +0.000 A 
ATOM     24  N   UNL     1      47.550   8.378  20.739  0.00  0.00    +0.000 NA
ATOM     25  C   UNL     1      47.716   8.786  19.469  0.00  0.00    +0.000 A 
ATOM     26  N   UNL     1      47.504  10.068  19.047  0.00  0.00    +0.000 N 
ATOM     27  C   UNL     1      47.772  10.166  17.708  0.00  0.00    +0.000 A 
ATOM     28  C   UNL     1      48.147   8.914  17.234  0.00  0.00    +0.000 A 
ATOM     29  C   UNL     1      48.128   8.032  18.372  0.00  0.00    +0.000 A 
ATOM     30  C   UNL     1      48.435   6.680  18.628  0.00  0.00    +0.000 A 
ATOM     31  H   UNL     1      47.206  10.814  19.658  0.00  0.00    +0.000 HD
ENDBRANCH  17  28
ENDBRANCH   1  19
TORSDOF 6
ENDMDL
MODEL 6
REMARK VINA RESULT:    -7.342      2.752      9.376
REMARK INTER + INTRA:         -10.799
REMARK INTER:                  -9.667
REMARK INTRA:                  -1.133
REMARK UNBOUND:                -0.882
REMARK  Name = 
REMARK  8 active torsions:
REMARK  status: ('A' for Active; 'I' for Inactive)
REMARK    1  A    between atoms: C_1  and  C_2
REMARK    2  A    between atoms: C_8  and  C_9
REMARK    3  A    between atoms: N_11  and  C_12
REMARK    4  A    between atoms: C_12  and  C_13
REMARK    5  A    between atoms: C_16  and  N_17
REMARK    6  A    between atoms: N_17  and  C_18
REMARK    7  A    between atoms: N_17  and  C_19
REMARK    8  A    between atoms: C_19  and  C_20
REMARK                            x       y       z     vdW  Elec       q    Type
REMARK                         _______ _______ _______ _____ _____    ______ ____
ROOT
ATOM      1  C   UNL     1      47.376   8.100  12.104  0.00  0.00    +0.000 C 
ENDROOT
BRANCH   1   2
ATOM      2  C   UNL     1      48.104   8.046  13.425  0.00  0.00    +0.000 A 
ATOM      3  C   UNL     1      47.686   8.795  14.530  0.00  0.00    +0.000 A 
ATOM      4  C   UNL     1      48.376   8.724  15.758  0.00  0.00    +0.000 A 
ATOM      5  C   UNL     1      49.495   7.896  15.938  0.00  0.00    +0.000 A 
ATOM      6  C   UNL     1      49.925   7.195  14.797  0.00  0.00    +0.000 A 
ATOM      7  C   UNL     1      49.247   7.261  13.569  0.00  0.00    +0.000 A 
BRANCH   5   8
ATOM      8  N   UNL     1      50.084   7.732  17.194  0.00  0.00    +0.000 N 
ATOM      9  C   UNL     1      50.984   8.759  17.718  0.00  0.00    +0.000 C 
BRANCH   8  10
ATOM     10  C   UNL     1      49.448   6.866  18.205  0.00  0.00    +0.000 C 
BRANCH  10  11
ATOM     11  C   UNL     1      49.088   5.470  17.751  0.00  0.00    +0.000 A 
ATOM     12  C   UNL     1      47.735   5.127  17.585  0.00  0.00    +0.000 A 
ATOM     13  C   UNL     1      47.372   3.854  17.150  0.00  0.00    +0.000 A 
ATOM     14  C   UNL     1      48.380   2.940  16.897  0.00  0.00    +0.000 A 
ATOM     15  N   UNL     1      49.692   3.222  17.050  0.00  0.00    +0.000 NA
ATOM     16  C   UNL     1      50.014   4.473  17.474  0.00  0.00    +0.000 A 
ENDBRANCH  10  11
ENDBRANCH   8  10
ENDBRANCH   5   8
ENDBRANCH   1   2
BRANCH   1  19
ATOM     17  C   UNL     1      45.309   6.884  11.532  0.00  0.00    +0.000 C 
ATOM     18  O   UNL     1      44.657   7.919  11.450  0.00  0.00    +0.000 OA
ATOM     19  N   UNL     1      46.650   6.875  11.863  0.00  0.00    +0.000 N 
ATOM     20  H   UNL     1      47.181   6.033  11.700  0.00  0.00    +0.000 HD
BRANCH  17  28
ATOM     21  C   UNL     1      46.487   3.561   6.818  0.00  0.00    +0.000 C 
ATOM     22  C   UNL     1      45.672   3.593   8.072  0.00  0.00    +0.000 A 
ATOM     23  C   UNL     1      44.826   2.543   8.416  0.00  0.00    +0.000 A 
ATOM     24  N   UNL     1      44.059   2.476   9.528  0.00  0.00    +0.000 NA
ATOM     25  C   UNL     1      44.178   3.559  10.317  0.00  0.00    +0.000 A 
ATOM     26  N   UNL     1      43.521   3.710  11.505  0.00  0.00    +0.000 N 
ATOM     27  C   UNL     1      43.863   4.908  12.074  0.00  0.00    +0.000 A 
ATOM     28  C   UNL     1      44.746   5.568  11.229  0.00  0.00    +0.000 A 
ATOM     29  C   UNL     1      44.962   4.691  10.108  0.00  0.00    +0.000 A 
ATOM     30  C   UNL     1      45.750   4.693   8.939  0.00  0.00    +0.000 A 
ATOM     31  H   UNL     1      42.893   3.018  11.887  0.00  0.00    +0.000 HD
ENDBRANCH  17  28
ENDBRANCH   1  19
TORSDOF 6
ENDMDL
MODEL 7
REMARK VINA RESULT:    -7.265      5.615      9.212
REMARK INTER + INTRA:         -10.696
REMARK INTER:                  -9.698
REMARK INTRA:                  -0.998
REMARK UNBOUND:                -0.882
REMARK  Name = 
REMARK  8 active torsions:
REMARK  status: ('A' for Active; 'I' for Inactive)
REMARK    1  A    between atoms: C_1  and  C_2
REMARK    2  A    between atoms: C_8  and  C_9
REMARK    3  A    between atoms: N_11  and  C_12
REMARK    4  A    between atoms: C_12  and  C_13
REMARK    5  A    between atoms: C_16  and  N_17
REMARK    6  A    between atoms: N_17  and  C_18
REMARK    7  A    between atoms: N_17  and  C_19
REMARK    8  A    between atoms: C_19  and  C_20
REMARK                            x       y       z     vdW  Elec       q    Type
REMARK                         _______ _______ _______ _____ _____    ______ ____
ROOT
ATOM      1  C   UNL     1      45.461   7.868  12.334  0.00  0.00    +0.000 C 
ENDROOT
BRANCH   1   2
ATOM      2  C   UNL     1      46.905   8.271  12.162  0.00  0.00    +0.000 A 
ATOM      3  C   UNL     1      47.301   9.613  12.139  0.00  0.00    +0.000 A 
ATOM      4  C   UNL     1      48.657   9.967  11.985  0.00  0.00    +0.000 A 
ATOM      5  C   UNL     1      49.671   9.004  11.865  0.00  0.00    +0.000 A 
ATOM      6  C   UNL     1      49.241   7.665  11.838  0.00  0.00    +0.000 A 
ATOM      7  C   UNL     1      47.892   7.301  11.987  0.00  0.00    +0.000 A 
BRANCH   5   8
ATOM      8  N   UNL     1      51.020   9.365  11.850  0.00  0.00    +0.000 N 
ATOM      9  C   UNL     1      51.478  10.513  12.634  0.00  0.00    +0.000 C 
BRANCH   8  10
ATOM     10  C   UNL     1      52.054   8.363  11.526  0.00  0.00    +0.000 C 
BRANCH  10  11
ATOM     11  C   UNL     1      52.411   8.229  10.064  0.00  0.00    +0.000 A 
ATOM     12  C   UNL     1      52.475   6.950   9.484  0.00  0.00    +0.000 A 
ATOM     13  C   UNL     1      52.785   6.795   8.134  0.00  0.00    +0.000 A 
ATOM     14  C   UNL     1      53.035   7.934   7.388  0.00  0.00    +0.000 A 
ATOM     15  N   UNL     1      52.994   9.181   7.904  0.00  0.00    +0.000 NA
ATOM     16  C   UNL     1      52.687   9.300   9.223  0.00  0.00    +0.000 A 
ENDBRANCH  10  11
ENDBRANCH   8  10
ENDBRANCH   5   8
ENDBRANCH   1   2
BRANCH   1  19
ATOM     17  C   UNL     1      44.052   6.035  11.481  0.00  0.00    +0.000 C 
ATOM     18  O   UNL     1      43.077   6.767  11.356  0.00  0.00    +0.000 OA
ATOM     19  N   UNL     1      45.263   6.485  11.968  0.00  0.00    +0.000 N 
ATOM     20  H   UNL     1      46.079   5.907  11.840  0.00  0.00    +0.000 HD
BRANCH  17  28
ATOM     21  C   UNL     1      46.696   3.752   6.741  0.00  0.00    +0.000 C 
ATOM     22  C   UNL     1      45.848   3.384   7.918  0.00  0.00    +0.000 A 
ATOM     23  C   UNL     1      45.437   2.073   8.137  0.00  0.00    +0.000 A 
ATOM     24  N   UNL     1      44.681   1.643   9.172  0.00  0.00    +0.000 NA
ATOM     25  C   UNL     1      44.333   2.629  10.017  0.00  0.00    +0.000 A 
ATOM     26  N   UNL     1      43.591   2.435  11.148  0.00  0.00    +0.000 N 
ATOM     27  C   UNL     1      43.421   3.628  11.799  0.00  0.00    +0.000 A 
ATOM     28  C   UNL     1      44.045   4.631  11.068  0.00  0.00    +0.000 A 
ATOM     29  C   UNL     1      44.647   3.983   9.931  0.00  0.00    +0.000 A 
ATOM     30  C   UNL     1      45.451   4.366   8.839  0.00  0.00    +0.000 A 
ATOM     31  H   UNL     1      43.244   1.534  11.440  0.00  0.00    +0.000 HD
ENDBRANCH  17  28
ENDBRANCH   1  19
TORSDOF 6
ENDMDL
MODEL 8
REMARK VINA RESULT:    -7.076      3.736      6.189
REMARK INTER + INTRA:         -10.440
REMARK INTER:                  -9.584
REMARK INTRA:                  -0.856
REMARK UNBOUND:                -0.882
REMARK  Name = 
REMARK  8 active torsions:
REMARK  status: ('A' for Active; 'I' for Inactive)
REMARK    1  A    between atoms: C_1  and  C_2
REMARK    2  A    between atoms: C_8  and  C_9
REMARK    3  A    between atoms: N_11  and  C_12
REMARK    4  A    between atoms: C_12  and  C_13
REMARK    5  A    between atoms: C_16  and  N_17
REMARK    6  A    between atoms: N_17  and  C_18
REMARK    7  A    between atoms: N_17  and  C_19
REMARK    8  A    between atoms: C_19  and  C_20
REMARK                            x       y       z     vdW  Elec       q    Type
REMARK                         _______ _______ _______ _____ _____    ______ ____
ROOT
ATOM      1  C   UNL     1      47.976   6.349  14.566  0.00  0.00    +0.000 C 
ENDROOT
BRANCH   1   2
ATOM      2  C   UNL     1      47.088   5.593  13.608  0.00  0.00    +0.000 A 
ATOM      3  C   UNL     1      46.722   4.261  13.834  0.00  0.00    +0.000 A 
ATOM      4  C   UNL     1      45.884   3.576  12.930  0.00  0.00    +0.000 A 
ATOM      5  C   UNL     1      45.368   4.189  11.778  0.00  0.00    +0.000 A 
ATOM      6  C   UNL     1      45.794   5.510  11.547  0.00  0.00    +0.000 A 
ATOM      7  C   UNL     1      46.630   6.202  12.440  0.00  0.00    +0.000 A 
BRANCH   5   8
ATOM      8  N   UNL     1      44.433   3.544  10.965  0.00  0.00    +0.000 N 
ATOM      9  C   UNL     1      43.206   3.004  11.551  0.00  0.00    +0.000 C 
BRANCH   8  10
ATOM     10  C   UNL     1      44.372   3.843   9.522  0.00  0.00    +0.000 C 
BRANCH  10  11
ATOM     11  C   UNL     1      45.326   3.068   8.643  0.00  0.00    +0.000 A 
ATOM     12  C   UNL     1      46.011   3.735   7.613  0.00  0.00    +0.000 A 
ATOM     13  C   UNL     1      46.911   3.052   6.797  0.00  0.00    +0.000 A 
ATOM     14  C   UNL     1      47.101   1.700   7.027  0.00  0.00    +0.000 A 
ATOM     15  N   UNL     1      46.460   1.016   7.998  0.00  0.00    +0.000 NA
ATOM     16  C   UNL     1      45.590   1.711   8.778  0.00  0.00    +0.000 A 
ENDBRANCH  10  11
ENDBRANCH   8  10
ENDBRANCH   5   8
ENDBRANCH   1   2
BRANCH   1  19
ATOM     17  C   UNL     1      49.283   8.438  14.588  0.00  0.00    +0.000 C 
ATOM     18  O   UNL     1      49.236   8.520  15.810  0.00  0.00    +0.000 OA
ATOM     19  N   UNL     1      48.679   7.413  13.888  0.00  0.00    +0.000 N 
ATOM     20  H   UNL     1      48.934   7.272  12.922  0.00  0.00    +0.000 HD
BRANCH  17  28
ATOM     21  C   UNL     1      52.248   7.201   9.654  0.00  0.00    +0.000 C 
ATOM     22  C   UNL     1      51.897   8.326  10.576  0.00  0.00    +0.000 A 
ATOM     23  C   UNL     1      52.345   9.623  10.343  0.00  0.00    +0.000 A 
ATOM     24  N   UNL     1      52.074  10.703  11.110  0.00  0.00    +0.000 NA
ATOM     25  C   UNL     1      51.304  10.416  12.174  0.00  0.00    +0.000 A 
ATOM     26  N   UNL     1      50.880  11.346  13.080  0.00  0.00    +0.000 N 
ATOM     27  C   UNL     1      50.102  10.744  14.033  0.00  0.00    +0.000 A 
ATOM     28  C   UNL     1      50.033   9.383  13.760  0.00  0.00    +0.000 A 
ATOM     29  C   UNL     1      50.792   9.177  12.553  0.00  0.00    +0.000 A 
ATOM     30  C   UNL     1      51.096   8.094  11.704  0.00  0.00    +0.000 A 
ATOM     31  H   UNL     1      51.111  12.327  13.022  0.00  0.00    +0.000 HD
ENDBRANCH  17  28
ENDBRANCH   1  19
TORSDOF 6
ENDMDL
MODEL 9
REMARK VINA RESULT:    -6.975      2.042      3.124
REMARK INTER + INTRA:         -10.304
REMARK INTER:                  -9.346
REMARK INTRA:                  -0.957
REMARK UNBOUND:                -0.882
REMARK  Name = 
REMARK  8 active torsions:
REMARK  status: ('A' for Active; 'I' for Inactive)
REMARK    1  A    between atoms: C_1  and  C_2
REMARK    2  A    between atoms: C_8  and  C_9
REMARK    3  A    between atoms: N_11  and  C_12
REMARK    4  A    between atoms: C_12  and  C_13
REMARK    5  A    between atoms: C_16  and  N_17
REMARK    6  A    between atoms: N_17  and  C_18
REMARK    7  A    between atoms: N_17  and  C_19
REMARK    8  A    between atoms: C_19  and  C_20
REMARK                            x       y       z     vdW  Elec       q    Type
REMARK                         _______ _______ _______ _____ _____    ______ ____
ROOT
ATOM      1  C   UNL     1      48.950   7.025  13.187  0.00  0.00    +0.000 C 
ENDROOT
BRANCH   1   2
ATOM      2  C   UNL     1      47.690   6.357  12.695  0.00  0.00    +0.000 A 
ATOM      3  C   UNL     1      46.923   6.899  11.658  0.00  0.00    +0.000 A 
ATOM      4  C   UNL     1      45.752   6.254  11.208  0.00  0.00    +0.000 A 
ATOM      5  C   UNL     1      45.310   5.041  11.758  0.00  0.00    +0.000 A 
ATOM      6  C   UNL     1      46.070   4.546  12.833  0.00  0.00    +0.000 A 
ATOM      7  C   UNL     1      47.235   5.182  13.291  0.00  0.00    +0.000 A 
BRANCH   5   8
ATOM      8  N   UNL     1      44.228   4.346  11.213  0.00  0.00    +0.000 N 
ATOM      9  C   UNL     1      43.041   4.085  12.028  0.00  0.00    +0.000 C 
BRANCH   8  10
ATOM     10  C   UNL     1      44.013   4.333   9.753  0.00  0.00    +0.000 C 
BRANCH  10  11
ATOM     11  C   UNL     1      44.996   3.516   8.945  0.00  0.00    +0.000 A 
ATOM     12  C   UNL     1      45.047   2.123   9.126  0.00  0.00    +0.000 A 
ATOM     13  C   UNL     1      45.929   1.341   8.384  0.00  0.00    +0.000 A 
ATOM     14  C   UNL     1      46.756   1.976   7.475  0.00  0.00    +0.000 A 
ATOM     15  N   UNL     1      46.748   3.311   7.273  0.00  0.00    +0.000 NA
ATOM     16  C   UNL     1      45.875   4.048   8.011  0.00  0.00    +0.000 A 
ENDBRANCH  10  11
ENDBRANCH   8  10
ENDBRANCH   5   8
ENDBRANCH   1   2
BRANCH   1  19
ATOM     17  C   UNL     1      49.737   7.786  15.396  0.00  0.00    +0.000 C 
ATOM     18  O   UNL     1      50.208   8.819  14.934  0.00  0.00    +0.000 OA
ATOM     19  N   UNL     1      49.113   6.838  14.610  0.00  0.00    +0.000 N 
ATOM     20  H   UNL     1      48.556   6.128  15.061  0.00  0.00    +0.000 HD
BRANCH  17  28
ATOM     21  C   UNL     1      52.278   3.171  18.024  0.00  0.00    +0.000 C 
ATOM     22  C   UNL     1      51.468   4.397  18.305  0.00  0.00    +0.000 A 
ATOM     23  C   UNL     1      51.080   4.731  19.599  0.00  0.00    +0.000 A 
ATOM     24  N   UNL     1      50.357   5.819  19.952  0.00  0.00    +0.000 NA
ATOM     25  C   UNL     1      50.020   6.592  18.905  0.00  0.00    +0.000 A 
ATOM     26  N   UNL     1      49.312   7.755  19.015  0.00  0.00    +0.000 N 
ATOM     27  C   UNL     1      49.145   8.314  17.776  0.00  0.00    +0.000 A 
ATOM     28  C   UNL     1      49.736   7.487  16.829  0.00  0.00    +0.000 A 
ATOM     29  C   UNL     1      50.315   6.389  17.559  0.00  0.00    +0.000 A 
ATOM     30  C   UNL     1      51.083   5.247  17.257  0.00  0.00    +0.000 A 
ATOM     31  H   UNL     1      48.985   8.128  19.894  0.00  0.00    +0.000 HD
ENDBRANCH  17  28
ENDBRANCH   1  19
TORSDOF 6
ENDMDL
