MODEL 1
REMARK VINA RESULT:    -8.088      0.000      0.000
REMARK INTER + INTRA:         -11.346
REMARK INTER:                 -10.688
REMARK INTRA:                  -0.658
REMARK UNBOUND:                -0.658
REMARK  Name = 
REMARK  6 active torsions:
REMARK  status: ('A' for Active; 'I' for Inactive)
REMARK    1  A    between atoms: C_2  and  O_3
REMARK    2  A    between atoms: C_2  and  C_4
REMARK    3  A    between atoms: C_8  and  C_9
REMARK    4  A    between atoms: C_9  and  O_10
REMARK    5  A    between atoms: O_10  and  C_11
REMARK    6  A    between atoms: C_17  and  C_18
REMARK                            x       y       z     vdW  Elec       q    Type
REMARK                         _______ _______ _______ _____ _____    ______ ____
ROOT
ATOM      1  C   UNL     1      45.372   5.092  11.919  0.00  0.00    +0.000 A 
ATOM      2  C   UNL     1      45.840   4.029  12.686  0.00  0.00    +0.000 A 
ATOM      3  F   UNL     1      45.333   2.798  12.516  0.00  0.00    +0.000 F 
ATOM      4  C   UNL     1      46.805   4.245  13.658  0.00  0.00    +0.000 A 
ATOM      5  F   UNL     1      47.220   3.232  14.433  0.00  0.00    +0.000 F 
ATOM      6  C   UNL     1      47.355   5.512  13.847  0.00  0.00    +0.000 A 
ATOM      7  C   UNL     1      46.982   6.581  13.021  0.00  0.00    +0.000 A 
ATOM      8  C   UNL     1      45.958   6.348  12.090  0.00  0.00    +0.000 A 
ATOM      9  F   UNL     1      45.537   7.384  11.347  0.00  0.00    +0.000 F 
ENDROOT
BRANCH   7  10
ATOM     10  C   UNL     1      47.607   7.972  13.071  0.00  0.00    +0.000 C 
ATOM     11  C   UNL     1      48.503   8.261  11.843  0.00  0.00    +0.000 C 
ATOM     12  C   UNL     1      49.819   7.492  11.914  0.00  0.00    +0.000 C 
ATOM     13  N   UNL     1      50.571   7.821  13.123  0.00  0.00    +0.000 NA
ATOM     14  C   UNL     1      49.793   7.589  14.338  0.00  0.00    +0.000 C 
ATOM     15  C   UNL     1      48.432   8.296  14.328  0.00  0.00    +0.000 C 
ATOM     16  H   UNL     1      50.855   8.799  13.087  0.00  0.00    +0.000 HD
ENDBRANCH   7  10
BRANCH   1  17
ATOM     17  O   UNL     1      44.368   4.813  11.036  0.00  0.00    +0.000 OA
BRANCH  17  18
ATOM     18  C   UNL     1      44.675   5.046   9.657  0.00  0.00    +0.000 C 
BRANCH  18  23
ATOM     19  C   UNL     1      46.524   2.518   7.504  0.00  0.00    +0.000 A 
ATOM     20  C   UNL     1      45.965   1.314   7.948  0.00  0.00    +0.000 A 
ATOM     21  C   UNL     1      44.972   1.324   8.928  0.00  0.00    +0.000 A 
ATOM     22  C   UNL     1      44.551   2.533   9.480  0.00  0.00    +0.000 A 
ATOM     23  C   UNL     1      45.111   3.743   9.046  0.00  0.00    +0.000 A 
ATOM     24  C   UNL     1      46.064   3.729   8.022  0.00  0.00    +0.000 A 
BRANCH  19  26
ATOM     25  O   UNL     1      48.545   1.731   6.546  0.00  0.00    +0.000 OA
ATOM     26  C   UNL     1      47.593   2.482   6.480  0.00  0.00    +0.000 C 
BRANCH  26  27
ATOM     27  O   UNL     1      47.435   3.400   5.499  0.00  0.00    +0.000 OA
ATOM     28  H   UNL     1      46.517   3.533   5.194  0.00  0.00    +0.000 HD
ENDBRANCH  26  27
ENDBRANCH  19  26
ENDBRANCH  18  23
ENDBRANCH  17  18
ENDBRANCH   1  17
TORSDOF 6
ENDMDL
MODEL 2
REMARK VINA RESULT:    -7.118      4.262      7.695
REMARK INTER + INTRA:         -10.065
REMARK INTER:                  -9.266
REMARK INTRA:                  -0.799
REMARK UNBOUND:                -0.658
REMARK  Name = 
REMARK  6 active torsions:
REMARK  status: ('A' for Active; 'I' for Inactive)
REMARK    1  A    between atoms: C_2  and  O_3
REMARK    2  A    between atoms: C_2  and  C_4
REMARK    3  A    between atoms: C_8  and  C_9
REMARK    4  A    between atoms: C_9  and  O_10
REMARK    5  A    between atoms: O_10  and  C_11
REMARK    6  A    between atoms: C_17  and  C_18
REMARK                            x       y       z     vdW  Elec       q    Type
REMARK                         _______ _______ _______ _____ _____    ______ ____
ROOT
ATOM      1  C   UNL     1      47.845   6.706  14.002  0.00  0.00    +0.000 A 
ATOM      2  C   UNL     1      47.685   7.948  13.397  0.00  0.00    +0.000 A 
ATOM      3  F   UNL     1      48.647   8.879  13.501  0.00  0.00    +0.000 F 
ATOM      4  C   UNL     1      46.515   8.245  12.716  0.00  0.00    +0.000 A 
ATOM      5  F   UNL     1      46.339   9.459  12.175  0.00  0.00    +0.000 F 
ATOM      6  C   UNL     1      45.506   7.292  12.585  0.00  0.00    +0.000 A 
ATOM      7  C   UNL     1      45.679   5.997  13.093  0.00  0.00    +0.000 A 
ATOM      8  C   UNL     1      46.845   5.745  13.831  0.00  0.00    +0.000 A 
ATOM      9  F   UNL     1      46.985   4.532  14.390  0.00  0.00    +0.000 F 
ENDROOT
BRANCH   7  10
ATOM     10  C   UNL     1      44.686   4.853  12.901  0.00  0.00    +0.000 C 
ATOM     11  C   UNL     1      45.067   3.935  11.716  0.00  0.00    +0.000 C 
ATOM     12  C   UNL     1      44.794   4.608  10.374  0.00  0.00    +0.000 C 
ATOM     13  N   UNL     1      43.389   4.986  10.235  0.00  0.00    +0.000 NA
ATOM     14  C   UNL     1      42.938   5.849  11.325  0.00  0.00    +0.000 C 
ATOM     15  C   UNL     1      43.215   5.260  12.714  0.00  0.00    +0.000 C 
ATOM     16  H   UNL     1      42.816   4.144  10.212  0.00  0.00    +0.000 HD
ENDBRANCH   7  10
BRANCH   1  17
ATOM     17  O   UNL     1      48.992   6.517  14.719  0.00  0.00    +0.000 OA
BRANCH  17  18
ATOM     18  C   UNL     1      48.957   6.974  16.075  0.00  0.00    +0.000 C 
BRANCH  18  23
ATOM     19  C   UNL     1      49.410   3.463  17.458  0.00  0.00    +0.000 A 
ATOM     20  C   UNL     1      48.724   3.554  18.675  0.00  0.00    +0.000 A 
ATOM     21  C   UNL     1      48.094   4.746  19.035  0.00  0.00    +0.000 A 
ATOM     22  C   UNL     1      48.166   5.854  18.192  0.00  0.00    +0.000 A 
ATOM     23  C   UNL     1      48.857   5.773  16.975  0.00  0.00    +0.000 A 
ATOM     24  C   UNL     1      49.437   4.558  16.594  0.00  0.00    +0.000 A 
BRANCH  19  26
ATOM     25  O   UNL     1      49.891   1.607  16.064  0.00  0.00    +0.000 OA
ATOM     26  C   UNL     1      50.089   2.196  17.108  0.00  0.00    +0.000 C 
BRANCH  26  27
ATOM     27  O   UNL     1      50.905   1.731  18.081  0.00  0.00    +0.000 OA
ATOM     28  H   UNL     1      51.306   0.856  17.910  0.00  0.00    +0.000 HD
ENDBRANCH  26  27
ENDBRANCH  19  26
ENDBRANCH  18  23
ENDBRANCH  17  18
ENDBRANCH   1  17
TORSDOF 6
ENDMDL
MODEL 3
REMARK VINA RESULT:    -7.101      3.983      7.877
REMARK INTER + INTRA:         -10.042
REMARK INTER:                  -9.290
REMARK INTRA:                  -0.752
REMARK UNBOUND:                -0.658
REMARK  Name = 
REMARK  6 active torsions:
REMARK  status: ('A' for Active; 'I' for Inactive)
REMARK    1  A    between atoms: C_2  and  O_3
REMARK    2  A    between atoms: C_2  and  C_4
REMARK    3  A    between atoms: C_8  and  C_9
REMARK    4  A    between atoms: C_9  and  O_10
REMARK    5  A    between atoms: O_10  and  C_11
REMARK    6  A    between atoms: C_17  and  C_18
REMARK                            x       y       z     vdW  Elec       q    Type
REMARK                         _______ _______ _______ _____ _____    ______ ____
ROOT
ATOM      1  C   UNL     1      47.916   7.010  13.573  0.00  0.00    +0.000 A 
ATOM      2  C   UNL     1      47.590   8.260  13.056  0.00  0.00    +0.000 A 
ATOM      3  F   UNL     1      48.492   9.255  13.075  0.00  0.00    +0.000 F 
ATOM      4  C   UNL     1      46.320   8.496  12.554  0.00  0.00    +0.000 A 
ATOM      5  F   UNL     1      45.989   9.714  12.102  0.00  0.00    +0.000 F 
ATOM      6  C   UNL     1      45.369   7.477  12.514  0.00  0.00    +0.000 A 
ATOM      7  C   UNL     1      45.698   6.180  12.930  0.00  0.00    +0.000 A 
ATOM      8  C   UNL     1      46.969   5.986  13.492  0.00  0.00    +0.000 A 
ATOM      9  F   UNL     1      47.268   4.766  13.966  0.00  0.00    +0.000 F 
ENDROOT
BRANCH   7  10
ATOM     10  C   UNL     1      44.769   4.974  12.818  0.00  0.00    +0.000 C 
ATOM     11  C   UNL     1      45.106   4.081  11.601  0.00  0.00    +0.000 C 
ATOM     12  C   UNL     1      44.679   4.733  10.289  0.00  0.00    +0.000 C 
ATOM     13  N   UNL     1      43.246   5.019  10.271  0.00  0.00    +0.000 NA
ATOM     14  C   UNL     1      42.834   5.852  11.398  0.00  0.00    +0.000 C 
ATOM     15  C   UNL     1      43.264   5.285  12.757  0.00  0.00    +0.000 C 
ATOM     16  H   UNL     1      42.728   4.141  10.293  0.00  0.00    +0.000 HD
ENDBRANCH   7  10
BRANCH   1  17
ATOM     17  O   UNL     1      49.161   6.879  14.119  0.00  0.00    +0.000 OA
BRANCH  17  18
ATOM     18  C   UNL     1      49.302   7.357  15.461  0.00  0.00    +0.000 C 
BRANCH  18  23
ATOM     19  C   UNL     1      48.917   4.232  17.589  0.00  0.00    +0.000 A 
ATOM     20  C   UNL     1      50.246   3.974  17.945  0.00  0.00    +0.000 A 
ATOM     21  C   UNL     1      51.263   4.826  17.514  0.00  0.00    +0.000 A 
ATOM     22  C   UNL     1      50.958   5.925  16.712  0.00  0.00    +0.000 A 
ATOM     23  C   UNL     1      49.630   6.187  16.346  0.00  0.00    +0.000 A 
ATOM     24  C   UNL     1      48.609   5.361  16.829  0.00  0.00    +0.000 A 
BRANCH  19  26
ATOM     25  O   UNL     1      46.851   3.086  17.393  0.00  0.00    +0.000 OA
ATOM     26  C   UNL     1      47.857   3.301  18.038  0.00  0.00    +0.000 C 
BRANCH  26  27
ATOM     27  O   UNL     1      48.091   2.760  19.256  0.00  0.00    +0.000 OA
ATOM     28  H   UNL     1      47.555   1.973  19.475  0.00  0.00    +0.000 HD
ENDBRANCH  26  27
ENDBRANCH  19  26
ENDBRANCH  18  23
ENDBRANCH  17  18
ENDBRANCH   1  17
TORSDOF 6
ENDMDL
MODEL 4
REMARK VINA RESULT:    -6.970      3.195      4.904
REMARK INTER + INTRA:          -9.870
REMARK INTER:                  -9.194
REMARK INTRA:                  -0.675
REMARK UNBOUND:                -0.658
REMARK  Name = 
REMARK  6 active torsions:
REMARK  status: ('A' for Active; 'I' for Inactive)
REMARK    1  A    between atoms: C_2  and  O_3
REMARK    2  A    between atoms: C_2  and  C_4
REMARK    3  A    between atoms: C_8  and  C_9
REMARK    4  A    between atoms: C_9  and  O_10
REMARK    5  A    between atoms: O_10  and  C_11
REMARK    6  A    between atoms: C_17  and  C_18
REMARK                            x       y       z     vdW  Elec       q    Type
REMARK                         _______ _______ _______ _____ _____    ______ ____
ROOT
ATOM      1  C   UNL     1      48.002   6.403  13.647  0.00  0.00    +0.000 A 
ATOM      2  C   UNL     1      48.911   7.331  14.144  0.00  0.00    +0.000 A 
ATOM      3  F   UNL     1      49.336   8.343  13.371  0.00  0.00    +0.000 F 
ATOM      4  C   UNL     1      49.413   7.194  15.429  0.00  0.00    +0.000 A 
ATOM      5  F   UNL     1      50.327   8.058  15.892  0.00  0.00    +0.000 F 
ATOM      6  C   UNL     1      48.980   6.157  16.256  0.00  0.00    +0.000 A 
ATOM      7  C   UNL     1      47.988   5.267  15.822  0.00  0.00    +0.000 A 
ATOM      8  C   UNL     1      47.545   5.392  14.496  0.00  0.00    +0.000 A 
ATOM      9  F   UNL     1      46.653   4.496  14.044  0.00  0.00    +0.000 F 
ENDROOT
BRANCH   7  10
ATOM     10  C   UNL     1      47.366   4.176  16.689  0.00  0.00    +0.000 C 
ATOM     11  C   UNL     1      47.292   4.579  18.180  0.00  0.00    +0.000 C 
ATOM     12  C   UNL     1      48.666   4.543  18.842  0.00  0.00    +0.000 C 
ATOM     13  N   UNL     1      49.274   3.217  18.750  0.00  0.00    +0.000 NA
ATOM     14  C   UNL     1      49.374   2.749  17.369  0.00  0.00    +0.000 C 
ATOM     15  C   UNL     1      48.037   2.794  16.619  0.00  0.00    +0.000 C 
ATOM     16  H   UNL     1      48.720   2.555  19.291  0.00  0.00    +0.000 HD
ENDBRANCH   7  10
BRANCH   1  17
ATOM     17  O   UNL     1      47.613   6.563  12.347  0.00  0.00    +0.000 OA
BRANCH  17  18
ATOM     18  C   UNL     1      46.373   7.252  12.154  0.00  0.00    +0.000 C 
BRANCH  18  23
ATOM     19  C   UNL     1      44.731   4.712   9.853  0.00  0.00    +0.000 A 
ATOM     20  C   UNL     1      43.553   4.424  10.553  0.00  0.00    +0.000 A 
ATOM     21  C   UNL     1      43.280   5.072  11.758  0.00  0.00    +0.000 A 
ATOM     22  C   UNL     1      44.192   5.991  12.276  0.00  0.00    +0.000 A 
ATOM     23  C   UNL     1      45.377   6.280  11.585  0.00  0.00    +0.000 A 
ATOM     24  C   UNL     1      45.616   5.669  10.349  0.00  0.00    +0.000 A 
BRANCH  19  26
ATOM     25  O   UNL     1      45.813   4.392   7.768  0.00  0.00    +0.000 OA
ATOM     26  C   UNL     1      45.010   3.995   8.588  0.00  0.00    +0.000 C 
BRANCH  26  27
ATOM     27  O   UNL     1      44.248   2.892   8.410  0.00  0.00    +0.000 OA
ATOM     28  H   UNL     1      44.631   2.207   7.829  0.00  0.00    +0.000 HD
ENDBRANCH  26  27
ENDBRANCH  19  26
ENDBRANCH  18  23
ENDBRANCH  17  18
ENDBRANCH   1  17
TORSDOF 6
ENDMDL
MODEL 5
REMARK VINA RESULT:    -6.855      3.581      7.215
REMARK INTER + INTRA:          -9.717
REMARK INTER:                  -8.993
REMARK INTRA:                  -0.724
REMARK UNBOUND:                -0.658
REMARK  Name = 
REMARK  6 active torsions:
REMARK  status: ('A' for Active; 'I' for Inactive)
REMARK    1  A    between atoms: C_2  and  O_3
REMARK    2  A    between atoms: C_2  and  C_4
REMARK    3  A    between atoms: C_8  and  C_9
REMARK    4  A    between atoms: C_9  and  O_10
REMARK    5  A    between atoms: O_10  and  C_11
REMARK    6  A    between atoms: C_17  and  C_18
REMARK                            x       y       z     vdW  Elec       q    Type
REMARK                         _______ _______ _______ _____ _____    ______ ____
ROOT
ATOM      1  C   UNL     1      47.284   6.658  12.608  0.00  0.00    +0.000 A 
ATOM      2  C   UNL     1      47.512   5.854  13.720  0.00  0.00    +0.000 A 
ATOM      3  F   UNL     1      48.491   6.160  14.586  0.00  0.00    +0.000 F 
ATOM      4  C   UNL     1      46.755   4.710  13.919  0.00  0.00    +0.000 A 
ATOM      5  F   UNL     1      47.006   3.907  14.962  0.00  0.00    +0.000 F 
ATOM      6  C   UNL     1      45.725   4.376  13.040  0.00  0.00    +0.000 A 
ATOM      7  C   UNL     1      45.401   5.220  11.969  0.00  0.00    +0.000 A 
ATOM      8  C   UNL     1      46.225   6.336  11.756  0.00  0.00    +0.000 A 
ATOM      9  F   UNL     1      45.973   7.108  10.687  0.00  0.00    +0.000 F 
ENDROOT
BRANCH   7  10
ATOM     10  C   UNL     1      44.223   5.004  11.023  0.00  0.00    +0.000 C 
ATOM     11  C   UNL     1      43.068   4.221  11.690  0.00  0.00    +0.000 C 
ATOM     12  C   UNL     1      43.411   2.744  11.855  0.00  0.00    +0.000 C 
ATOM     13  N   UNL     1      43.717   2.114  10.573  0.00  0.00    +0.000 NA
ATOM     14  C   UNL     1      44.796   2.799   9.864  0.00  0.00    +0.000 C 
ATOM     15  C   UNL     1      44.545   4.303   9.692  0.00  0.00    +0.000 C 
ATOM     16  H   UNL     1      42.880   2.112   9.992  0.00  0.00    +0.000 HD
ENDBRANCH   7  10
BRANCH   1  17
ATOM     17  O   UNL     1      48.122   7.724  12.441  0.00  0.00    +0.000 OA
BRANCH  17  18
ATOM     18  C   UNL     1      47.785   8.897  13.189  0.00  0.00    +0.000 C 
BRANCH  18  23
ATOM     19  C   UNL     1      45.323  11.107  11.320  0.00  0.00    +0.000 A 
ATOM     20  C   UNL     1      46.183  11.859  10.510  0.00  0.00    +0.000 A 
ATOM     21  C   UNL     1      47.559  11.631  10.554  0.00  0.00    +0.000 A 
ATOM     22  C   UNL     1      48.079  10.670  11.419  0.00  0.00    +0.000 A 
ATOM     23  C   UNL     1      47.224   9.918  12.238  0.00  0.00    +0.000 A 
ATOM     24  C   UNL     1      45.841  10.111  12.147  0.00  0.00    +0.000 A 
BRANCH  19  26
ATOM     25  O   UNL     1      43.380  12.237  10.562  0.00  0.00    +0.000 OA
ATOM     26  C   UNL     1      43.869  11.382  11.274  0.00  0.00    +0.000 C 
BRANCH  26  27
ATOM     27  O   UNL     1      43.148  10.630  12.137  0.00  0.00    +0.000 OA
ATOM     28  H   UNL     1      42.961  11.047  13.001  0.00  0.00    +0.000 HD
ENDBRANCH  26  27
ENDBRANCH  19  26
ENDBRANCH  18  23
ENDBRANCH  17  18
ENDBRANCH   1  17
TORSDOF 6
ENDMDL
MODEL 6
REMARK VINA RESULT:    -6.653      3.661      5.546
REMARK INTER + INTRA:          -9.450
REMARK INTER:                  -8.843
REMARK INTRA:                  -0.607
REMARK UNBOUND:                -0.658
REMARK  Name = 
REMARK  6 active torsions:
REMARK  status: ('A' for Active; 'I' for Inactive)
REMARK    1  A    between atoms: C_2  and  O_3
REMARK    2  A    between atoms: C_2  and  C_4
REMARK    3  A    between atoms: C_8  and  C_9
REMARK    4  A    between atoms: C_9  and  O_10
REMARK    5  A    between atoms: O_10  and  C_11
REMARK    6  A    between atoms: C_17  and  C_18
REMARK                            x       y       z     vdW  Elec       q    Type
REMARK                         _______ _______ _______ _____ _____    ______ ____
ROOT
ATOM      1  C   UNL     1      47.575   4.406  16.576  0.00  0.00    +0.000 A 
ATOM      2  C   UNL     1      47.585   3.478  17.613  0.00  0.00    +0.000 A 
ATOM      3  F   UNL     1      46.726   2.447  17.605  0.00  0.00    +0.000 F 
ATOM      4  C   UNL     1      48.456   3.636  18.680  0.00  0.00    +0.000 A 
ATOM      5  F   UNL     1      48.432   2.772  19.704  0.00  0.00    +0.000 F 
ATOM      6  C   UNL     1      49.365   4.693  18.707  0.00  0.00    +0.000 A 
ATOM      7  C   UNL     1      49.452   5.585  17.628  0.00  0.00    +0.000 A 
ATOM      8  C   UNL     1      48.516   5.438  16.593  0.00  0.00    +0.000 A 
ATOM      9  F   UNL     1      48.539   6.334  15.594  0.00  0.00    +0.000 F 
ENDROOT
BRANCH   7  10
ATOM     10  C   UNL     1      50.488   6.700  17.510  0.00  0.00    +0.000 C 
ATOM     11  C   UNL     1      51.688   6.298  16.621  0.00  0.00    +0.000 C 
ATOM     12  C   UNL     1      52.605   5.305  17.329  0.00  0.00    +0.000 C 
ATOM     13  N   UNL     1      53.119   5.847  18.585  0.00  0.00    +0.000 NA
ATOM     14  C   UNL     1      52.049   6.265  19.487  0.00  0.00    +0.000 C 
ATOM     15  C   UNL     1      51.056   7.236  18.835  0.00  0.00    +0.000 C 
ATOM     16  H   UNL     1      53.723   6.643  18.385  0.00  0.00    +0.000 HD
ENDBRANCH   7  10
BRANCH   1  17
ATOM     17  O   UNL     1      46.637   4.223  15.600  0.00  0.00    +0.000 OA
BRANCH  17  18
ATOM     18  C   UNL     1      47.121   3.666  14.374  0.00  0.00    +0.000 C 
BRANCH  18  23
ATOM     19  C   UNL     1      44.879   4.627  11.459  0.00  0.00    +0.000 A 
ATOM     20  C   UNL     1      45.358   5.905  11.151  0.00  0.00    +0.000 A 
ATOM     21  C   UNL     1      46.423   6.446  11.872  0.00  0.00    +0.000 A 
ATOM     22  C   UNL     1      46.998   5.719  12.915  0.00  0.00    +0.000 A 
ATOM     23  C   UNL     1      46.519   4.441  13.234  0.00  0.00    +0.000 A 
ATOM     24  C   UNL     1      45.489   3.882  12.469  0.00  0.00    +0.000 A 
BRANCH  19  26
ATOM     25  O   UNL     1      43.074   3.137  11.078  0.00  0.00    +0.000 OA
ATOM     26  C   UNL     1      43.733   4.083  10.695  0.00  0.00    +0.000 C 
BRANCH  26  27
ATOM     27  O   UNL     1      43.528   4.704   9.511  0.00  0.00    +0.000 OA
ATOM     28  H   UNL     1      44.216   5.346   9.250  0.00  0.00    +0.000 HD
ENDBRANCH  26  27
ENDBRANCH  19  26
ENDBRANCH  18  23
ENDBRANCH  17  18
ENDBRANCH   1  17
TORSDOF 6
ENDMDL
MODEL 7
REMARK VINA RESULT:    -6.448      2.995      4.372
REMARK INTER + INTRA:          -9.179
REMARK INTER:                  -8.447
REMARK INTRA:                  -0.732
REMARK UNBOUND:                -0.658
REMARK  Name = 
REMARK  6 active torsions:
REMARK  status: ('A' for Active; 'I' for Inactive)
REMARK    1  A    between atoms: C_2  and  O_3
REMARK    2  A    between atoms: C_2  and  C_4
REMARK    3  A    between atoms: C_8  and  C_9
REMARK    4  A    between atoms: C_9  and  O_10
REMARK    5  A    between atoms: O_10  and  C_11
REMARK    6  A    between atoms: C_17  and  C_18
REMARK                            x       y       z     vdW  Elec       q    Type
REMARK                         _______ _______ _______ _____ _____    ______ ____
ROOT
ATOM      1  C   UNL     1      47.738   5.783  14.311  0.00  0.00    +0.000 A 
ATOM      2  C   UNL     1      47.206   4.602  14.820  0.00  0.00    +0.000 A 
ATOM      3  F   UNL     1      46.429   3.824  14.050  0.00  0.00    +0.000 F 
ATOM      4  C   UNL     1      47.444   4.243  16.137  0.00  0.00    +0.000 A 
ATOM      5  F   UNL     1      46.891   3.132  16.644  0.00  0.00    +0.000 F 
ATOM      6  C   UNL     1      48.256   5.029  16.954  0.00  0.00    +0.000 A 
ATOM      7  C   UNL     1      48.892   6.168  16.442  0.00  0.00    +0.000 A 
ATOM      8  C   UNL     1      48.582   6.541  15.125  0.00  0.00    +0.000 A 
ATOM      9  F   UNL     1      49.124   7.674  14.649  0.00  0.00    +0.000 F 
ENDROOT
BRANCH   7  10
ATOM     10  C   UNL     1      49.888   7.025  17.218  0.00  0.00    +0.000 C 
ATOM     11  C   UNL     1      51.352   6.753  16.800  0.00  0.00    +0.000 C 
ATOM     12  C   UNL     1      51.849   5.413  17.332  0.00  0.00    +0.000 C 
ATOM     13  N   UNL     1      51.763   5.345  18.789  0.00  0.00    +0.000 NA
ATOM     14  C   UNL     1      50.410   5.603  19.276  0.00  0.00    +0.000 C 
ATOM     15  C   UNL     1      49.820   6.918  18.751  0.00  0.00    +0.000 C 
ATOM     16  H   UNL     1      52.403   6.027  19.195  0.00  0.00    +0.000 HD
ENDBRANCH   7  10
BRANCH   1  17
ATOM     17  O   UNL     1      47.396   6.105  13.028  0.00  0.00    +0.000 OA
BRANCH  17  18
ATOM     18  C   UNL     1      46.208   6.892  12.885  0.00  0.00    +0.000 C 
BRANCH  18  23
ATOM     19  C   UNL     1      44.438   4.667  10.363  0.00  0.00    +0.000 A 
ATOM     20  C   UNL     1      43.227   4.413  11.019  0.00  0.00    +0.000 A 
ATOM     21  C   UNL     1      42.976   4.983  12.267  0.00  0.00    +0.000 A 
ATOM     22  C   UNL     1      43.940   5.789  12.872  0.00  0.00    +0.000 A 
ATOM     23  C   UNL     1      45.158   6.043  12.224  0.00  0.00    +0.000 A 
ATOM     24  C   UNL     1      45.379   5.515  10.947  0.00  0.00    +0.000 A 
BRANCH  19  26
ATOM     25  O   UNL     1      44.352   2.897   8.788  0.00  0.00    +0.000 OA
ATOM     26  C   UNL     1      44.692   4.033   9.050  0.00  0.00    +0.000 C 
BRANCH  26  27
ATOM     27  O   UNL     1      45.387   4.818   8.194  0.00  0.00    +0.000 OA
ATOM     28  H   UNL     1      44.854   5.260   7.505  0.00  0.00    +0.000 HD
ENDBRANCH  26  27
ENDBRANCH  19  26
ENDBRANCH  18  23
ENDBRANCH  17  18
ENDBRANCH   1  17
TORSDOF 6
ENDMDL
MODEL 8
REMARK VINA RESULT:    -6.186      3.460      6.725
REMARK INTER + INTRA:          -8.834
REMARK INTER:                  -8.345
REMARK INTRA:                  -0.489
REMARK UNBOUND:                -0.658
REMARK  Name = 
REMARK  6 active torsions:
REMARK  status: ('A' for Active; 'I' for Inactive)
REMARK    1  A    between atoms: C_2  and  O_3
REMARK    2  A    between atoms: C_2  and  C_4
REMARK    3  A    between atoms: C_8  and  C_9
REMARK    4  A    between atoms: C_9  and  O_10
REMARK    5  A    between atoms: O_10  and  C_11
REMARK    6  A    between atoms: C_17  and  C_18
REMARK                            x       y       z     vdW  Elec       q    Type
REMARK                         _______ _______ _______ _____ _____    ______ ____
ROOT
ATOM      1  C   UNL     1      46.851   6.870  12.868  0.00  0.00    +0.000 A 
ATOM      2  C   UNL     1      47.319   5.903  13.752  0.00  0.00    +0.000 A 
ATOM      3  F   UNL     1      48.257   6.215  14.660  0.00  0.00    +0.000 F 
ATOM      4  C   UNL     1      46.847   4.602  13.673  0.00  0.00    +0.000 A 
ATOM      5  F   UNL     1      47.333   3.657  14.490  0.00  0.00    +0.000 F 
ATOM      6  C   UNL     1      45.865   4.255  12.746  0.00  0.00    +0.000 A 
ATOM      7  C   UNL     1      45.298   5.229  11.912  0.00  0.00    +0.000 A 
ATOM      8  C   UNL     1      45.840   6.522  11.970  0.00  0.00    +0.000 A 
ATOM      9  F   UNL     1      45.358   7.444  11.121  0.00  0.00    +0.000 F 
ENDROOT
BRANCH   7  10
ATOM     10  C   UNL     1      44.141   4.975  10.949  0.00  0.00    +0.000 C 
ATOM     11  C   UNL     1      42.995   4.169  11.604  0.00  0.00    +0.000 C 
ATOM     12  C   UNL     1      43.373   2.702  11.787  0.00  0.00    +0.000 C 
ATOM     13  N   UNL     1      43.716   2.070  10.515  0.00  0.00    +0.000 NA
ATOM     14  C   UNL     1      44.788   2.777   9.818  0.00  0.00    +0.000 C 
ATOM     15  C   UNL     1      44.503   4.272   9.630  0.00  0.00    +0.000 C 
ATOM     16  H   UNL     1      42.889   2.042   9.920  0.00  0.00    +0.000 HD
ENDBRANCH   7  10
BRANCH   1  17
ATOM     17  O   UNL     1      47.420   8.109  12.959  0.00  0.00    +0.000 OA
BRANCH  17  18
ATOM     18  C   UNL     1      48.172   8.529  11.815  0.00  0.00    +0.000 C 
BRANCH  18  23
ATOM     19  C   UNL     1      51.939   8.076  11.605  0.00  0.00    +0.000 A 
ATOM     20  C   UNL     1      52.349   8.583  12.844  0.00  0.00    +0.000 A 
ATOM     21  C   UNL     1      51.402   9.049  13.756  0.00  0.00    +0.000 A 
ATOM     22  C   UNL     1      50.048   9.029  13.425  0.00  0.00    +0.000 A 
ATOM     23  C   UNL     1      49.630   8.529  12.184  0.00  0.00    +0.000 A 
ATOM     24  C   UNL     1      50.581   8.010  11.298  0.00  0.00    +0.000 A 
BRANCH  19  26
ATOM     25  O   UNL     1      53.788   8.348  10.146  0.00  0.00    +0.000 OA
ATOM     26  C   UNL     1      52.964   7.608  10.644  0.00  0.00    +0.000 C 
BRANCH  26  27
ATOM     27  O   UNL     1      52.857   6.296  10.334  0.00  0.00    +0.000 OA
ATOM     28  H   UNL     1      53.530   5.956   9.712  0.00  0.00    +0.000 HD
ENDBRANCH  26  27
ENDBRANCH  19  26
ENDBRANCH  18  23
ENDBRANCH  17  18
ENDBRANCH   1  17
TORSDOF 6
ENDMDL
MODEL 9
REMARK VINA RESULT:    -6.125      3.973      7.074
REMARK INTER + INTRA:          -8.753
REMARK INTER:                  -8.310
REMARK INTRA:                  -0.443
REMARK UNBOUND:                -0.658
REMARK  Name = 
REMARK  6 active torsions:
REMARK  status: ('A' for Active; 'I' for Inactive)
REMARK    1  A    between atoms: C_2  and  O_3
REMARK    2  A    between atoms: C_2  and  C_4
REMARK    3  A    between atoms: C_8  and  C_9
REMARK    4  A    between atoms: C_9  and  O_10
REMARK    5  A    between atoms: O_10  and  C_11
REMARK    6  A    between atoms: C_17  and  C_18
REMARK                            x       y       z     vdW  Elec       q    Type
REMARK                         _______ _______ _______ _____ _____    ______ ____
ROOT
ATOM      1  C   UNL     1      47.090   6.714  13.191  0.00  0.00    +0.000 A 
ATOM      2  C   UNL     1      47.422   5.701  14.085  0.00  0.00    +0.000 A 
ATOM      3  F   UNL     1      48.326   5.923  15.052  0.00  0.00    +0.000 F 
ATOM      4  C   UNL     1      46.849   4.445  13.957  0.00  0.00    +0.000 A 
ATOM      5  F   UNL     1      47.205   3.454  14.786  0.00  0.00    +0.000 F 
ATOM      6  C   UNL     1      45.900   4.192  12.968  0.00  0.00    +0.000 A 
ATOM      7  C   UNL     1      45.466   5.220  12.118  0.00  0.00    +0.000 A 
ATOM      8  C   UNL     1      46.109   6.462  12.229  0.00  0.00    +0.000 A 
ATOM      9  F   UNL     1      45.757   7.431  11.368  0.00  0.00    +0.000 F 
ENDROOT
BRANCH   7  10
ATOM     10  C   UNL     1      44.352   5.075  11.084  0.00  0.00    +0.000 C 
ATOM     11  C   UNL     1      43.117   4.335  11.649  0.00  0.00    +0.000 C 
ATOM     12  C   UNL     1      43.380   2.841  11.808  0.00  0.00    +0.000 C 
ATOM     13  N   UNL     1      43.752   2.220  10.539  0.00  0.00    +0.000 NA
ATOM     14  C   UNL     1      44.910   2.866   9.925  0.00  0.00    +0.000 C 
ATOM     15  C   UNL     1      44.740   4.383   9.767  0.00  0.00    +0.000 C 
ATOM     16  H   UNL     1      42.961   2.266   9.898  0.00  0.00    +0.000 HD
ENDBRANCH   7  10
BRANCH   1  17
ATOM     17  O   UNL     1      47.753   7.900  13.336  0.00  0.00    +0.000 OA
BRANCH  17  18
ATOM     18  C   UNL     1      48.998   8.001  12.636  0.00  0.00    +0.000 C 
BRANCH  18  23
ATOM     19  C   UNL     1      50.205  10.953  10.570  0.00  0.00    +0.000 A 
ATOM     20  C   UNL     1      49.032  11.707  10.451  0.00  0.00    +0.000 A 
ATOM     21  C   UNL     1      47.855  11.270  11.060  0.00  0.00    +0.000 A 
ATOM     22  C   UNL     1      47.844  10.070  11.771  0.00  0.00    +0.000 A 
ATOM     23  C   UNL     1      49.014   9.306  11.890  0.00  0.00    +0.000 A 
ATOM     24  C   UNL     1      50.203   9.780  11.325  0.00  0.00    +0.000 A 
BRANCH  19  26
ATOM     25  O   UNL     1      51.613  11.324   8.698  0.00  0.00    +0.000 OA
ATOM     26  C   UNL     1      51.436  11.425   9.896  0.00  0.00    +0.000 C 
BRANCH  26  27
ATOM     27  O   UNL     1      52.361  11.926  10.745  0.00  0.00    +0.000 OA
ATOM     28  H   UNL     1      52.956  12.602  10.366  0.00  0.00    +0.000 HD
ENDBRANCH  26  27
ENDBRANCH  19  26
ENDBRANCH  18  23
ENDBRANCH  17  18
ENDBRANCH   1  17
TORSDOF 6
ENDMDL
