MODEL 1
REMARK VINA RESULT:    -8.298      0.000      0.000
REMARK INTER + INTRA:         -12.327
REMARK INTER:                 -11.209
REMARK INTRA:                  -1.118
REMARK UNBOUND:                -1.118
REMARK  Name = 
REMARK  10 active torsions:
REMARK  status: ('A' for Active; 'I' for Inactive)
REMARK    1  A    between atoms: C_1  and  C_2
REMARK    2  A    between atoms: C_4  and  C_5
REMARK    3  A    between atoms: C_5  and  C_6
REMARK    4  A    between atoms: C_5  and  C_7
REMARK    5  A    between atoms: C_7  and  O_8
REMARK    6  A    between atoms: O_8  and  C_9
REMARK    7  A    between atoms: C_13  and  C_14
REMARK    8  A    between atoms: C_24  and  C_25
REMARK    9  A    between atoms: N_27  and  C_28
REMARK   10  A    between atoms: N_27  and  C_29
REMARK                            x       y       z     vdW  Elec       q    Type
REMARK                         _______ _______ _______ _____ _____    ______ ____
ROOT
ATOM      1  C   UNL     1      45.094   6.883  12.685  0.00  0.00    +0.000 C 
ENDROOT
BRANCH   1   2
ATOM      2  C   UNL     1      45.707   8.286  12.844  0.00  0.00    +0.000 C 
ATOM      3  C   UNL     1      45.014   9.309  11.947  0.00  0.00    +0.000 C 
BRANCH   2   7
ATOM      4  C   UNL     1      49.427  10.669  11.004  0.00  0.00    +0.000 C 
ATOM      5  C   UNL     1      49.073   9.371  11.660  0.00  0.00    +0.000 A 
ATOM      6  N   UNL     1      47.766   9.361  12.069  0.00  0.00    +0.000 NA
ATOM      7  C   UNL     1      47.189   8.223  12.518  0.00  0.00    +0.000 A 
ATOM      8  C   UNL     1      47.917   7.060  12.657  0.00  0.00    +0.000 A 
ATOM      9  C   UNL     1      49.269   7.088  12.308  0.00  0.00    +0.000 A 
ATOM     10  C   UNL     1      49.892   8.250  11.795  0.00  0.00    +0.000 A 
BRANCH  10  11
ATOM     11  C   UNL     1      51.284   8.011  11.294  0.00  0.00    +0.000 C 
ATOM     12  O   UNL     1      51.354   7.244  10.326  0.00  0.00    +0.000 OA
ATOM     13  N   UNL     1      52.454   8.495  11.885  0.00  0.00    +0.000 N 
ATOM     14  C   UNL     1      52.582   9.456  12.961  0.00  0.00    +0.000 C 
ATOM     15  C   UNL     1      53.732   8.003  11.369  0.00  0.00    +0.000 C 
ENDBRANCH  10  11
ENDBRANCH   2   7
ENDBRANCH   1   2
BRANCH   1  16
ATOM     16  O   UNL     1      44.428   6.727  11.427  0.00  0.00    +0.000 OA
BRANCH  16  17
ATOM     17  C   UNL     1      44.323   5.431  10.984  0.00  0.00    +0.000 A 
ATOM     18  C   UNL     1      43.401   4.623  11.619  0.00  0.00    +0.000 A 
ATOM     19  N   UNL     1      43.189   3.318  11.303  0.00  0.00    +0.000 NA
ATOM     20  C   UNL     1      43.945   2.807  10.302  0.00  0.00    +0.000 A 
ATOM     21  C   UNL     1      44.913   3.512   9.585  0.00  0.00    +0.000 A 
ATOM     22  C   UNL     1      45.084   4.858   9.957  0.00  0.00    +0.000 A 
BRANCH  21  23
ATOM     23  C   UNL     1      45.726   2.901   8.510  0.00  0.00    +0.000 A 
ATOM     24  C   UNL     1      46.266   3.673   7.463  0.00  0.00    +0.000 A 
ATOM     25  C   UNL     1      47.019   3.087   6.436  0.00  0.00    +0.000 A 
ATOM     26  C   UNL     1      47.237   1.712   6.428  0.00  0.00    +0.000 A 
ATOM     27  C   UNL     1      46.710   0.942   7.449  0.00  0.00    +0.000 A 
ATOM     28  F   UNL     1      46.904  -0.388   7.442  0.00  0.00    +0.000 F 
ATOM     29  C   UNL     1      45.972   1.515   8.481  0.00  0.00    +0.000 A 
ENDBRANCH  21  23
ENDBRANCH  16  17
ENDBRANCH   1  16
TORSDOF 6
ENDMDL
MODEL 2
REMARK VINA RESULT:    -8.216      1.520      2.168
REMARK INTER + INTRA:         -12.217
REMARK INTER:                 -11.277
REMARK INTRA:                  -0.940
REMARK UNBOUND:                -1.118
REMARK  Name = 
REMARK  10 active torsions:
REMARK  status: ('A' for Active; 'I' for Inactive)
REMARK    1  A    between atoms: C_1  and  C_2
REMARK    2  A    between atoms: C_4  and  C_5
REMARK    3  A    between atoms: C_5  and  C_6
REMARK    4  A    between atoms: C_5  and  C_7
REMARK    5  A    between atoms: C_7  and  O_8
REMARK    6  A    between atoms: O_8  and  C_9
REMARK    7  A    between atoms: C_13  and  C_14
REMARK    8  A    between atoms: C_24  and  C_25
REMARK    9  A    between atoms: N_27  and  C_28
REMARK   10  A    between atoms: N_27  and  C_29
REMARK                            x       y       z     vdW  Elec       q    Type
REMARK                         _______ _______ _______ _____ _____    ______ ____
ROOT
ATOM      1  C   UNL     1      45.205   6.655  12.860  0.00  0.00    +0.000 C 
ENDROOT
BRANCH   1   2
ATOM      2  C   UNL     1      46.415   5.703  12.864  0.00  0.00    +0.000 C 
ATOM      3  C   UNL     1      46.427   4.811  14.103  0.00  0.00    +0.000 C 
BRANCH   2   7
ATOM      4  C   UNL     1      50.242   7.220  15.306  0.00  0.00    +0.000 C 
ATOM      5  C   UNL     1      49.627   7.263  13.942  0.00  0.00    +0.000 A 
ATOM      6  N   UNL     1      48.504   6.481  13.878  0.00  0.00    +0.000 NA
ATOM      7  C   UNL     1      47.693   6.521  12.795  0.00  0.00    +0.000 A 
ATOM      8  C   UNL     1      48.013   7.284  11.692  0.00  0.00    +0.000 A 
ATOM      9  C   UNL     1      49.195   8.025  11.728  0.00  0.00    +0.000 A 
ATOM     10  C   UNL     1      50.044   8.039  12.861  0.00  0.00    +0.000 A 
BRANCH  10  11
ATOM     11  C   UNL     1      51.145   9.051  12.772  0.00  0.00    +0.000 C 
ATOM     12  O   UNL     1      52.175   8.639  12.225  0.00  0.00    +0.000 OA
ATOM     13  N   UNL     1      51.118  10.332  13.330  0.00  0.00    +0.000 N 
ATOM     14  C   UNL     1      49.996  11.021  13.933  0.00  0.00    +0.000 C 
ATOM     15  C   UNL     1      52.355  11.111  13.308  0.00  0.00    +0.000 C 
ENDBRANCH  10  11
ENDBRANCH   2   7
ENDBRANCH   1   2
BRANCH   1  16
ATOM     16  O   UNL     1      44.454   6.561  11.644  0.00  0.00    +0.000 OA
BRANCH  16  17
ATOM     17  C   UNL     1      44.334   5.291  11.133  0.00  0.00    +0.000 A 
ATOM     18  C   UNL     1      43.408   4.459  11.729  0.00  0.00    +0.000 A 
ATOM     19  N   UNL     1      43.184   3.174  11.344  0.00  0.00    +0.000 NA
ATOM     20  C   UNL     1      43.930   2.712  10.313  0.00  0.00    +0.000 A 
ATOM     21  C   UNL     1      44.901   3.445   9.630  0.00  0.00    +0.000 A 
ATOM     22  C   UNL     1      45.085   4.768  10.073  0.00  0.00    +0.000 A 
BRANCH  21  23
ATOM     23  C   UNL     1      45.703   2.886   8.520  0.00  0.00    +0.000 A 
ATOM     24  C   UNL     1      46.195   3.700   7.481  0.00  0.00    +0.000 A 
ATOM     25  C   UNL     1      46.938   3.163   6.421  0.00  0.00    +0.000 A 
ATOM     26  C   UNL     1      47.193   1.795   6.370  0.00  0.00    +0.000 A 
ATOM     27  C   UNL     1      46.713   0.984   7.382  0.00  0.00    +0.000 A 
ATOM     28  F   UNL     1      46.943  -0.340   7.336  0.00  0.00    +0.000 F 
ATOM     29  C   UNL     1      45.986   1.508   8.447  0.00  0.00    +0.000 A 
ENDBRANCH  21  23
ENDBRANCH  16  17
ENDBRANCH   1  16
TORSDOF 6
ENDMDL
MODEL 3
REMARK VINA RESULT:    -7.992      4.023      4.945
REMARK INTER + INTRA:         -11.914
REMARK INTER:                 -10.927
REMARK INTRA:                  -0.987
REMARK UNBOUND:                -1.118
REMARK  Name = 
REMARK  10 active torsions:
REMARK  status: ('A' for Active; 'I' for Inactive)
REMARK    1  A    between atoms: C_1  and  C_2
REMARK    2  A    between atoms: C_4  and  C_5
REMARK    3  A    between atoms: C_5  and  C_6
REMARK    4  A    between atoms: C_5  and  C_7
REMARK    5  A    between atoms: C_7  and  O_8
REMARK    6  A    between atoms: O_8  and  C_9
REMARK    7  A    between atoms: C_13  and  C_14
REMARK    8  A    between atoms: C_24  and  C_25
REMARK    9  A    between atoms: N_27  and  C_28
REMARK   10  A    between atoms: N_27  and  C_29
REMARK                            x       y       z     vdW  Elec       q    Type
REMARK                         _______ _______ _______ _____ _____    ______ ____
ROOT
ATOM      1  C   UNL     1      46.394   6.583  13.140  0.00  0.00    +0.000 C 
ENDROOT
BRANCH   1   2
ATOM      2  C   UNL     1      47.800   7.143  13.424  0.00  0.00    +0.000 C 
ATOM      3  C   UNL     1      48.775   6.822  12.293  0.00  0.00    +0.000 C 
BRANCH   2   7
ATOM      4  C   UNL     1      47.245   3.672  16.672  0.00  0.00    +0.000 C 
ATOM      5  C   UNL     1      48.110   4.851  16.349  0.00  0.00    +0.000 A 
ATOM      6  N   UNL     1      47.780   5.391  15.135  0.00  0.00    +0.000 NA
ATOM      7  C   UNL     1      48.311   6.570  14.734  0.00  0.00    +0.000 A 
ATOM      8  C   UNL     1      49.259   7.221  15.494  0.00  0.00    +0.000 A 
ATOM      9  C   UNL     1      49.649   6.633  16.699  0.00  0.00    +0.000 A 
ATOM     10  C   UNL     1      49.083   5.423  17.167  0.00  0.00    +0.000 A 
BRANCH  10  11
ATOM     11  C   UNL     1      49.488   5.075  18.567  0.00  0.00    +0.000 C 
ATOM     12  O   UNL     1      50.553   4.449  18.650  0.00  0.00    +0.000 OA
ATOM     13  N   UNL     1      48.729   5.311  19.715  0.00  0.00    +0.000 N 
ATOM     14  C   UNL     1      47.511   6.086  19.839  0.00  0.00    +0.000 C 
ATOM     15  C   UNL     1      49.197   4.732  20.974  0.00  0.00    +0.000 C 
ENDBRANCH  10  11
ENDBRANCH   2   7
ENDBRANCH   1   2
BRANCH   1  16
ATOM     16  O   UNL     1      45.866   7.061  11.898  0.00  0.00    +0.000 OA
BRANCH  16  17
ATOM     17  C   UNL     1      45.241   6.110  11.129  0.00  0.00    +0.000 A 
ATOM     18  C   UNL     1      43.884   5.944  11.317  0.00  0.00    +0.000 A 
ATOM     19  N   UNL     1      43.129   5.037  10.641  0.00  0.00    +0.000 NA
ATOM     20  C   UNL     1      43.777   4.263   9.737  0.00  0.00    +0.000 A 
ATOM     21  C   UNL     1      45.142   4.326   9.457  0.00  0.00    +0.000 A 
ATOM     22  C   UNL     1      45.868   5.285  10.186  0.00  0.00    +0.000 A 
BRANCH  21  23
ATOM     23  C   UNL     1      45.806   3.444   8.471  0.00  0.00    +0.000 A 
ATOM     24  C   UNL     1      46.368   3.954   7.285  0.00  0.00    +0.000 A 
ATOM     25  C   UNL     1      46.978   3.112   6.345  0.00  0.00    +0.000 A 
ATOM     26  C   UNL     1      47.027   1.739   6.566  0.00  0.00    +0.000 A 
ATOM     27  C   UNL     1      46.477   1.224   7.726  0.00  0.00    +0.000 A 
ATOM     28  F   UNL     1      46.508  -0.102   7.942  0.00  0.00    +0.000 F 
ATOM     29  C   UNL     1      45.880   2.052   8.673  0.00  0.00    +0.000 A 
ENDBRANCH  21  23
ENDBRANCH  16  17
ENDBRANCH   1  16
TORSDOF 6
ENDMDL
MODEL 4
REMARK VINA RESULT:    -7.964      1.914      2.126
REMARK INTER + INTRA:         -11.875
REMARK INTER:                 -10.879
REMARK INTRA:                  -0.996
REMARK UNBOUND:                -1.118
REMARK  Name = 
REMARK  10 active torsions:
REMARK  status: ('A' for Active; 'I' for Inactive)
REMARK    1  A    between atoms: C_1  and  C_2
REMARK    2  A    between atoms: C_4  and  C_5
REMARK    3  A    between atoms: C_5  and  C_6
REMARK    4  A    between atoms: C_5  and  C_7
REMARK    5  A    between atoms: C_7  and  O_8
REMARK    6  A    between atoms: O_8  and  C_9
REMARK    7  A    between atoms: C_13  and  C_14
REMARK    8  A    between atoms: C_24  and  C_25
REMARK    9  A    between atoms: N_27  and  C_28
REMARK   10  A    between atoms: N_27  and  C_29
REMARK                            x       y       z     vdW  Elec       q    Type
REMARK                         _______ _______ _______ _____ _____    ______ ____
ROOT
ATOM      1  C   UNL     1      45.115   7.289  11.308  0.00  0.00    +0.000 C 
ENDROOT
BRANCH   1   2
ATOM      2  C   UNL     1      45.292   8.271  12.480  0.00  0.00    +0.000 C 
ATOM      3  C   UNL     1      45.308   9.722  12.004  0.00  0.00    +0.000 C 
BRANCH   2   7
ATOM      4  C   UNL     1      48.622   9.930  15.491  0.00  0.00    +0.000 C 
ATOM      5  C   UNL     1      48.232   8.699  14.733  0.00  0.00    +0.000 A 
ATOM      6  N   UNL     1      47.030   8.864  14.100  0.00  0.00    +0.000 NA
ATOM      7  C   UNL     1      46.581   7.945  13.213  0.00  0.00    +0.000 A 
ATOM      8  C   UNL     1      47.277   6.778  12.982  0.00  0.00    +0.000 A 
ATOM      9  C   UNL     1      48.468   6.576  13.682  0.00  0.00    +0.000 A 
ATOM     10  C   UNL     1      48.986   7.535  14.584  0.00  0.00    +0.000 A 
BRANCH  10  11
ATOM     11  C   UNL     1      50.367   7.215  15.070  0.00  0.00    +0.000 C 
ATOM     12  O   UNL     1      50.411   6.343  15.947  0.00  0.00    +0.000 OA
ATOM     13  N   UNL     1      51.537   7.878  14.688  0.00  0.00    +0.000 N 
ATOM     14  C   UNL     1      51.706   8.858  13.635  0.00  0.00    +0.000 C 
ATOM     15  C   UNL     1      52.768   7.557  15.409  0.00  0.00    +0.000 C 
ENDBRANCH  10  11
ENDBRANCH   2   7
ENDBRANCH   1   2
BRANCH   1  16
ATOM     16  O   UNL     1      43.884   6.564  11.396  0.00  0.00    +0.000 OA
BRANCH  16  17
ATOM     17  C   UNL     1      43.955   5.250  11.000  0.00  0.00    +0.000 A 
ATOM     18  C   UNL     1      43.182   4.343  11.696  0.00  0.00    +0.000 A 
ATOM     19  N   UNL     1      43.153   3.009  11.431  0.00  0.00    +0.000 NA
ATOM     20  C   UNL     1      43.943   2.575  10.420  0.00  0.00    +0.000 A 
ATOM     21  C   UNL     1      44.774   3.385   9.645  0.00  0.00    +0.000 A 
ATOM     22  C   UNL     1      44.757   4.754   9.965  0.00  0.00    +0.000 A 
BRANCH  21  23
ATOM     23  C   UNL     1      45.632   2.858   8.561  0.00  0.00    +0.000 A 
ATOM     24  C   UNL     1      46.172   3.701   7.570  0.00  0.00    +0.000 A 
ATOM     25  C   UNL     1      46.968   3.194   6.534  0.00  0.00    +0.000 A 
ATOM     26  C   UNL     1      47.231   1.829   6.459  0.00  0.00    +0.000 A 
ATOM     27  C   UNL     1      46.704   0.989   7.424  0.00  0.00    +0.000 A 
ATOM     28  F   UNL     1      46.941  -0.332   7.353  0.00  0.00    +0.000 F 
ATOM     29  C   UNL     1      45.923   1.483   8.465  0.00  0.00    +0.000 A 
ENDBRANCH  21  23
ENDBRANCH  16  17
ENDBRANCH   1  16
TORSDOF 6
ENDMDL
MODEL 5
REMARK VINA RESULT:    -7.955      2.923      3.858
REMARK INTER + INTRA:         -11.864
REMARK INTER:                 -10.894
REMARK INTRA:                  -0.970
REMARK UNBOUND:                -1.118
REMARK  Name = 
REMARK  10 active torsions:
REMARK  status: ('A' for Active; 'I' for Inactive)
REMARK    1  A    between atoms: C_1  and  C_2
REMARK    2  A    between atoms: C_4  and  C_5
REMARK    3  A    between atoms: C_5  and  C_6
REMARK    4  A    between atoms: C_5  and  C_7
REMARK    5  A    between atoms: C_7  and  O_8
REMARK    6  A    between atoms: O_8  and  C_9
REMARK    7  A    between atoms: C_13  and  C_14
REMARK    8  A    between atoms: C_24  and  C_25
REMARK    9  A    between atoms: N_27  and  C_28
REMARK   10  A    between atoms: N_27  and  C_29
REMARK                            x       y       z     vdW  Elec       q    Type
REMARK                         _______ _______ _______ _____ _____    ______ ____
ROOT
ATOM      1  C   UNL     1      45.330   7.102  11.266  0.00  0.00    +0.000 C 
ENDROOT
BRANCH   1   2
ATOM      2  C   UNL     1      45.556   8.143  12.378  0.00  0.00    +0.000 C 
ATOM      3  C   UNL     1      45.983   9.494  11.808  0.00  0.00    +0.000 C 
BRANCH   2   7
ATOM      4  C   UNL     1      47.237   4.281  14.651  0.00  0.00    +0.000 C 
ATOM      5  C   UNL     1      47.510   5.740  14.455  0.00  0.00    +0.000 A 
ATOM      6  N   UNL     1      46.658   6.286  13.533  0.00  0.00    +0.000 NA
ATOM      7  C   UNL     1      46.610   7.624  13.341  0.00  0.00    +0.000 A 
ATOM      8  C   UNL     1      47.471   8.472  14.005  0.00  0.00    +0.000 A 
ATOM      9  C   UNL     1      48.389   7.909  14.893  0.00  0.00    +0.000 A 
ATOM     10  C   UNL     1      48.437   6.518  15.149  0.00  0.00    +0.000 A 
BRANCH  10  11
ATOM     11  C   UNL     1      49.349   6.147  16.278  0.00  0.00    +0.000 C 
ATOM     12  O   UNL     1      50.553   6.179  15.995  0.00  0.00    +0.000 OA
ATOM     13  N   UNL     1      48.942   5.694  17.536  0.00  0.00    +0.000 N 
ATOM     14  C   UNL     1      47.602   5.659  18.083  0.00  0.00    +0.000 C 
ATOM     15  C   UNL     1      49.972   5.197  18.447  0.00  0.00    +0.000 C 
ENDBRANCH  10  11
ENDBRANCH   2   7
ENDBRANCH   1   2
BRANCH   1  16
ATOM     16  O   UNL     1      44.094   6.399  11.433  0.00  0.00    +0.000 OA
BRANCH  16  17
ATOM     17  C   UNL     1      44.097   5.104  10.973  0.00  0.00    +0.000 A 
ATOM     18  C   UNL     1      43.301   4.198  11.644  0.00  0.00    +0.000 A 
ATOM     19  N   UNL     1      43.207   2.881  11.317  0.00  0.00    +0.000 NA
ATOM     20  C   UNL     1      43.952   2.464  10.266  0.00  0.00    +0.000 A 
ATOM     21  C   UNL     1      44.800   3.273   9.510  0.00  0.00    +0.000 A 
ATOM     22  C   UNL     1      44.852   4.625   9.895  0.00  0.00    +0.000 A 
BRANCH  21  23
ATOM     23  C   UNL     1      45.608   2.763   8.380  0.00  0.00    +0.000 A 
ATOM     24  C   UNL     1      46.158   1.467   8.391  0.00  0.00    +0.000 A 
ATOM     25  C   UNL     1      46.939   0.995   7.327  0.00  0.00    +0.000 A 
ATOM     26  C   UNL     1      47.198   1.817   6.233  0.00  0.00    +0.000 A 
ATOM     27  C   UNL     1      46.667   3.093   6.211  0.00  0.00    +0.000 A 
ATOM     28  F   UNL     1      46.922   3.899   5.166  0.00  0.00    +0.000 F 
ATOM     29  C   UNL     1      45.878   3.567   7.255  0.00  0.00    +0.000 A 
ENDBRANCH  21  23
ENDBRANCH  16  17
ENDBRANCH   1  16
TORSDOF 6
ENDMDL
MODEL 6
REMARK VINA RESULT:    -7.720      3.758      4.423
REMARK INTER + INTRA:         -11.546
REMARK INTER:                 -10.615
REMARK INTRA:                  -0.931
REMARK UNBOUND:                -1.118
REMARK  Name = 
REMARK  10 active torsions:
REMARK  status: ('A' for Active; 'I' for Inactive)
REMARK    1  A    between atoms: C_1  and  C_2
REMARK    2  A    between atoms: C_4  and  C_5
REMARK    3  A    between atoms: C_5  and  C_6
REMARK    4  A    between atoms: C_5  and  C_7
REMARK    5  A    between atoms: C_7  and  O_8
REMARK    6  A    between atoms: O_8  and  C_9
REMARK    7  A    between atoms: C_13  and  C_14
REMARK    8  A    between atoms: C_24  and  C_25
REMARK    9  A    between atoms: N_27  and  C_28
REMARK   10  A    between atoms: N_27  and  C_29
REMARK                            x       y       z     vdW  Elec       q    Type
REMARK                         _______ _______ _______ _____ _____    ______ ____
ROOT
ATOM      1  C   UNL     1      46.792   6.445  12.845  0.00  0.00    +0.000 C 
ENDROOT
BRANCH   1   2
ATOM      2  C   UNL     1      47.938   7.419  13.175  0.00  0.00    +0.000 C 
ATOM      3  C   UNL     1      48.915   7.557  12.010  0.00  0.00    +0.000 C 
BRANCH   2   7
ATOM      4  C   UNL     1      47.734   4.481  16.948  0.00  0.00    +0.000 C 
ATOM      5  C   UNL     1      48.639   5.464  16.273  0.00  0.00    +0.000 A 
ATOM      6  N   UNL     1      48.103   5.904  15.092  0.00  0.00    +0.000 NA
ATOM      7  C   UNL     1      48.667   6.930  14.414  0.00  0.00    +0.000 A 
ATOM      8  C   UNL     1      49.842   7.509  14.845  0.00  0.00    +0.000 A 
ATOM      9  C   UNL     1      50.428   7.012  16.011  0.00  0.00    +0.000 A 
ATOM     10  C   UNL     1      49.842   5.970  16.766  0.00  0.00    +0.000 A 
BRANCH  10  11
ATOM     11  C   UNL     1      50.519   5.728  18.081  0.00  0.00    +0.000 C 
ATOM     12  O   UNL     1      50.485   6.692  18.857  0.00  0.00    +0.000 OA
ATOM     13  N   UNL     1      51.234   4.580  18.428  0.00  0.00    +0.000 N 
ATOM     14  C   UNL     1      51.325   3.329  17.703  0.00  0.00    +0.000 C 
ATOM     15  C   UNL     1      51.988   4.599  19.681  0.00  0.00    +0.000 C 
ENDBRANCH  10  11
ENDBRANCH   2   7
ENDBRANCH   1   2
BRANCH   1  16
ATOM     16  O   UNL     1      45.906   6.976  11.854  0.00  0.00    +0.000 OA
BRANCH  16  17
ATOM     17  C   UNL     1      45.274   6.034  11.078  0.00  0.00    +0.000 A 
ATOM     18  C   UNL     1      43.915   5.877  11.264  0.00  0.00    +0.000 A 
ATOM     19  N   UNL     1      43.154   4.980  10.581  0.00  0.00    +0.000 NA
ATOM     20  C   UNL     1      43.797   4.209   9.673  0.00  0.00    +0.000 A 
ATOM     21  C   UNL     1      45.162   4.263   9.394  0.00  0.00    +0.000 A 
ATOM     22  C   UNL     1      45.895   5.212  10.130  0.00  0.00    +0.000 A 
BRANCH  21  23
ATOM     23  C   UNL     1      45.820   3.383   8.402  0.00  0.00    +0.000 A 
ATOM     24  C   UNL     1      46.342   3.890   7.196  0.00  0.00    +0.000 A 
ATOM     25  C   UNL     1      46.946   3.050   6.251  0.00  0.00    +0.000 A 
ATOM     26  C   UNL     1      47.030   1.680   6.487  0.00  0.00    +0.000 A 
ATOM     27  C   UNL     1      46.519   1.169   7.666  0.00  0.00    +0.000 A 
ATOM     28  F   UNL     1      46.583  -0.154   7.897  0.00  0.00    +0.000 F 
ATOM     29  C   UNL     1      45.929   1.996   8.618  0.00  0.00    +0.000 A 
ENDBRANCH  21  23
ENDBRANCH  16  17
ENDBRANCH   1  16
TORSDOF 6
ENDMDL
MODEL 7
REMARK VINA RESULT:    -7.312      4.550      5.536
REMARK INTER + INTRA:         -10.995
REMARK INTER:                 -10.078
REMARK INTRA:                  -0.917
REMARK UNBOUND:                -1.118
REMARK  Name = 
REMARK  10 active torsions:
REMARK  status: ('A' for Active; 'I' for Inactive)
REMARK    1  A    between atoms: C_1  and  C_2
REMARK    2  A    between atoms: C_4  and  C_5
REMARK    3  A    between atoms: C_5  and  C_6
REMARK    4  A    between atoms: C_5  and  C_7
REMARK    5  A    between atoms: C_7  and  O_8
REMARK    6  A    between atoms: O_8  and  C_9
REMARK    7  A    between atoms: C_13  and  C_14
REMARK    8  A    between atoms: C_24  and  C_25
REMARK    9  A    between atoms: N_27  and  C_28
REMARK   10  A    between atoms: N_27  and  C_29
REMARK                            x       y       z     vdW  Elec       q    Type
REMARK                         _______ _______ _______ _____ _____    ______ ____
ROOT
ATOM      1  C   UNL     1      47.154   5.827  13.397  0.00  0.00    +0.000 C 
ENDROOT
BRANCH   1   2
ATOM      2  C   UNL     1      48.067   6.893  14.028  0.00  0.00    +0.000 C 
ATOM      3  C   UNL     1      49.285   7.184  13.154  0.00  0.00    +0.000 C 
BRANCH   2   7
ATOM      4  C   UNL     1      47.690   3.416  17.295  0.00  0.00    +0.000 C 
ATOM      5  C   UNL     1      48.395   4.710  17.034  0.00  0.00    +0.000 A 
ATOM      6  N   UNL     1      48.125   5.180  15.777  0.00  0.00    +0.000 NA
ATOM      7  C   UNL     1      48.510   6.421  15.402  0.00  0.00    +0.000 A 
ATOM      8  C   UNL     1      49.258   7.220  16.242  0.00  0.00    +0.000 A 
ATOM      9  C   UNL     1      49.596   6.713  17.498  0.00  0.00    +0.000 A 
ATOM     10  C   UNL     1      49.173   5.436  17.937  0.00  0.00    +0.000 A 
BRANCH  10  11
ATOM     11  C   UNL     1      49.467   5.171  19.382  0.00  0.00    +0.000 C 
ATOM     12  O   UNL     1      50.547   4.602  19.587  0.00  0.00    +0.000 OA
ATOM     13  N   UNL     1      48.599   5.421  20.447  0.00  0.00    +0.000 N 
ATOM     14  C   UNL     1      47.342   6.140  20.427  0.00  0.00    +0.000 C 
ATOM     15  C   UNL     1      48.980   4.921  21.768  0.00  0.00    +0.000 C 
ENDBRANCH  10  11
ENDBRANCH   2   7
ENDBRANCH   1   2
BRANCH   1  16
ATOM     16  O   UNL     1      45.817   6.305  13.216  0.00  0.00    +0.000 OA
BRANCH  16  17
ATOM     17  C   UNL     1      45.078   5.622  12.280  0.00  0.00    +0.000 A 
ATOM     18  C   UNL     1      43.707   5.632  12.434  0.00  0.00    +0.000 A 
ATOM     19  N   UNL     1      42.844   4.994  11.598  0.00  0.00    +0.000 NA
ATOM     20  C   UNL     1      43.394   4.314  10.564  0.00  0.00    +0.000 A 
ATOM     21  C   UNL     1      44.761   4.219  10.300  0.00  0.00    +0.000 A 
ATOM     22  C   UNL     1      45.601   4.902  11.198  0.00  0.00    +0.000 A 
BRANCH  21  23
ATOM     23  C   UNL     1      45.313   3.447   9.165  0.00  0.00    +0.000 A 
ATOM     24  C   UNL     1      45.429   2.045   9.212  0.00  0.00    +0.000 A 
ATOM     25  C   UNL     1      45.971   1.320   8.142  0.00  0.00    +0.000 A 
ATOM     26  C   UNL     1      46.421   1.985   7.005  0.00  0.00    +0.000 A 
ATOM     27  C   UNL     1      46.316   3.363   6.947  0.00  0.00    +0.000 A 
ATOM     28  F   UNL     1      46.760   4.016   5.859  0.00  0.00    +0.000 F 
ATOM     29  C   UNL     1      45.767   4.092   7.998  0.00  0.00    +0.000 A 
ENDBRANCH  21  23
ENDBRANCH  16  17
ENDBRANCH   1  16
TORSDOF 6
ENDMDL
MODEL 8
REMARK VINA RESULT:    -6.601      4.171      5.434
REMARK INTER + INTRA:         -10.035
REMARK INTER:                  -8.982
REMARK INTRA:                  -1.054
REMARK UNBOUND:                -1.118
REMARK  Name = 
REMARK  10 active torsions:
REMARK  status: ('A' for Active; 'I' for Inactive)
REMARK    1  A    between atoms: C_1  and  C_2
REMARK    2  A    between atoms: C_4  and  C_5
REMARK    3  A    between atoms: C_5  and  C_6
REMARK    4  A    between atoms: C_5  and  C_7
REMARK    5  A    between atoms: C_7  and  O_8
REMARK    6  A    between atoms: O_8  and  C_9
REMARK    7  A    between atoms: C_13  and  C_14
REMARK    8  A    between atoms: C_24  and  C_25
REMARK    9  A    between atoms: N_27  and  C_28
REMARK   10  A    between atoms: N_27  and  C_29
REMARK                            x       y       z     vdW  Elec       q    Type
REMARK                         _______ _______ _______ _____ _____    ______ ____
ROOT
ATOM      1  C   UNL     1      48.930   7.436  12.528  0.00  0.00    +0.000 C 
ENDROOT
BRANCH   1   2
ATOM      2  C   UNL     1      49.673   8.176  13.656  0.00  0.00    +0.000 C 
ATOM      3  C   UNL     1      51.097   8.543  13.247  0.00  0.00    +0.000 C 
BRANCH   2   7
ATOM      4  C   UNL     1      47.440   4.665  16.022  0.00  0.00    +0.000 C 
ATOM      5  C   UNL     1      48.655   5.538  16.087  0.00  0.00    +0.000 A 
ATOM      6  N   UNL     1      48.773   6.311  14.964  0.00  0.00    +0.000 NA
ATOM      7  C   UNL     1      49.693   7.301  14.897  0.00  0.00    +0.000 A 
ATOM      8  C   UNL     1      50.593   7.509  15.921  0.00  0.00    +0.000 A 
ATOM      9  C   UNL     1      50.519   6.673  17.037  0.00  0.00    +0.000 A 
ATOM     10  C   UNL     1      49.543   5.657  17.157  0.00  0.00    +0.000 A 
BRANCH  10  11
ATOM     11  C   UNL     1      49.508   5.015  18.510  0.00  0.00    +0.000 C 
ATOM     12  O   UNL     1      50.340   4.113  18.669  0.00  0.00    +0.000 OA
ATOM     13  N   UNL     1      48.578   5.289  19.516  0.00  0.00    +0.000 N 
ATOM     14  C   UNL     1      47.589   6.347  19.556  0.00  0.00    +0.000 C 
ATOM     15  C   UNL     1      48.581   4.430  20.700  0.00  0.00    +0.000 C 
ENDBRANCH  10  11
ENDBRANCH   2   7
ENDBRANCH   1   2
BRANCH   1  16
ATOM     16  O   UNL     1      47.706   8.089  12.173  0.00  0.00    +0.000 OA
BRANCH  16  17
ATOM     17  C   UNL     1      46.633   7.251  11.990  0.00  0.00    +0.000 A 
ATOM     18  C   UNL     1      45.572   7.391  12.861  0.00  0.00    +0.000 A 
ATOM     19  N   UNL     1      44.447   6.628  12.815  0.00  0.00    +0.000 NA
ATOM     20  C   UNL     1      44.395   5.683  11.847  0.00  0.00    +0.000 A 
ATOM     21  C   UNL     1      45.398   5.435  10.910  0.00  0.00    +0.000 A 
ATOM     22  C   UNL     1      46.536   6.258  11.008  0.00  0.00    +0.000 A 
BRANCH  21  23
ATOM     23  C   UNL     1      45.300   4.376   9.882  0.00  0.00    +0.000 A 
ATOM     24  C   UNL     1      44.688   3.137  10.153  0.00  0.00    +0.000 A 
ATOM     25  C   UNL     1      44.615   2.130   9.182  0.00  0.00    +0.000 A 
ATOM     26  C   UNL     1      45.166   2.336   7.920  0.00  0.00    +0.000 A 
ATOM     27  C   UNL     1      45.772   3.547   7.641  0.00  0.00    +0.000 A 
ATOM     28  F   UNL     1      46.319   3.751   6.429  0.00  0.00    +0.000 F 
ATOM     29  C   UNL     1      45.839   4.559   8.593  0.00  0.00    +0.000 A 
ENDBRANCH  21  23
ENDBRANCH  16  17
ENDBRANCH   1  16
TORSDOF 6
ENDMDL
MODEL 9
REMARK VINA RESULT:    -6.177      5.688      7.021
REMARK INTER + INTRA:          -9.462
REMARK INTER:                  -8.685
REMARK INTRA:                  -0.777
REMARK UNBOUND:                -1.118
REMARK  Name = 
REMARK  10 active torsions:
REMARK  status: ('A' for Active; 'I' for Inactive)
REMARK    1  A    between atoms: C_1  and  C_2
REMARK    2  A    between atoms: C_4  and  C_5
REMARK    3  A    between atoms: C_5  and  C_6
REMARK    4  A    between atoms: C_5  and  C_7
REMARK    5  A    between atoms: C_7  and  O_8
REMARK    6  A    between atoms: O_8  and  C_9
REMARK    7  A    between atoms: C_13  and  C_14
REMARK    8  A    between atoms: C_24  and  C_25
REMARK    9  A    between atoms: N_27  and  C_28
REMARK   10  A    between atoms: N_27  and  C_29
REMARK                            x       y       z     vdW  Elec       q    Type
REMARK                         _______ _______ _______ _____ _____    ______ ____
ROOT
ATOM      1  C   UNL     1      49.358   7.218  15.903  0.00  0.00    +0.000 C 
ENDROOT
BRANCH   1   2
ATOM      2  C   UNL     1      48.861   6.140  16.883  0.00  0.00    +0.000 C 
ATOM      3  C   UNL     1      48.125   6.753  18.072  0.00  0.00    +0.000 C 
BRANCH   2   7
ATOM      4  C   UNL     1      50.650   1.726  17.366  0.00  0.00    +0.000 C 
ATOM      5  C   UNL     1      50.998   3.165  17.589  0.00  0.00    +0.000 A 
ATOM      6  N   UNL     1      50.021   3.994  17.106  0.00  0.00    +0.000 NA
ATOM      7  C   UNL     1      50.046   5.321  17.367  0.00  0.00    +0.000 A 
ATOM      8  C   UNL     1      51.096   5.894  18.054  0.00  0.00    +0.000 A 
ATOM      9  C   UNL     1      52.129   5.059  18.485  0.00  0.00    +0.000 A 
ATOM     10  C   UNL     1      52.112   3.661  18.266  0.00  0.00    +0.000 A 
BRANCH  10  11
ATOM     11  C   UNL     1      53.206   2.929  18.982  0.00  0.00    +0.000 C 
ATOM     12  O   UNL     1      53.341   3.247  20.170  0.00  0.00    +0.000 OA
ATOM     13  N   UNL     1      54.102   2.032  18.396  0.00  0.00    +0.000 N 
ATOM     14  C   UNL     1      54.066   1.476  17.059  0.00  0.00    +0.000 C 
ATOM     15  C   UNL     1      55.223   1.560  19.208  0.00  0.00    +0.000 C 
ENDBRANCH  10  11
ENDBRANCH   2   7
ENDBRANCH   1   2
BRANCH   1  16
ATOM     16  O   UNL     1      49.367   6.749  14.550  0.00  0.00    +0.000 OA
BRANCH  16  17
ATOM     17  C   UNL     1      48.195   6.945  13.860  0.00  0.00    +0.000 A 
ATOM     18  C   UNL     1      47.668   8.220  13.869  0.00  0.00    +0.000 A 
ATOM     19  N   UNL     1      46.511   8.567  13.245  0.00  0.00    +0.000 NA
ATOM     20  C   UNL     1      45.859   7.581  12.584  0.00  0.00    +0.000 A 
ATOM     21  C   UNL     1      46.280   6.253  12.503  0.00  0.00    +0.000 A 
ATOM     22  C   UNL     1      47.484   5.957  13.167  0.00  0.00    +0.000 A 
BRANCH  21  23
ATOM     23  C   UNL     1      45.521   5.208  11.782  0.00  0.00    +0.000 A 
ATOM     24  C   UNL     1      45.427   5.199  10.377  0.00  0.00    +0.000 A 
ATOM     25  C   UNL     1      44.690   4.217   9.700  0.00  0.00    +0.000 A 
ATOM     26  C   UNL     1      44.020   3.230  10.416  0.00  0.00    +0.000 A 
ATOM     27  C   UNL     1      44.102   3.228  11.797  0.00  0.00    +0.000 A 
ATOM     28  F   UNL     1      43.447   2.286  12.498  0.00  0.00    +0.000 F 
ATOM     29  C   UNL     1      44.841   4.190  12.479  0.00  0.00    +0.000 A 
ENDBRANCH  21  23
ENDBRANCH  16  17
ENDBRANCH   1  16
TORSDOF 6
ENDMDL
