MODEL 1
REMARK VINA RESULT:    -7.832      0.000      0.000
REMARK INTER + INTRA:          -9.991
REMARK INTER:                  -9.664
REMARK INTRA:                  -0.327
REMARK UNBOUND:                -0.327
REMARK  Name = 
REMARK  4 active torsions:
REMARK  status: ('A' for Active; 'I' for Inactive)
REMARK    1  A    between atoms: C_3  and  C_4
REMARK    2  A    between atoms: C_8  and  C_9
REMARK    3  A    between atoms: C_9  and  O_10
REMARK    4  A    between atoms: O_10  and  C_11
REMARK                            x       y       z     vdW  Elec       q    Type
REMARK                         _______ _______ _______ _____ _____    ______ ____
ROOT
ATOM      1  C   UNL     1      46.909   5.056  13.605  0.00  0.00    +0.000 A 
ATOM      2  C   UNL     1      47.555   6.121  12.963  0.00  0.00    +0.000 A 
ATOM      3  C   UNL     1      47.024   6.625  11.792  0.00  0.00    +0.000 A 
ATOM      4  N   UNL     1      45.918   6.140  11.206  0.00  0.00    +0.000 NA
ATOM      5  C   UNL     1      45.275   5.096  11.792  0.00  0.00    +0.000 A 
ATOM      6  C   UNL     1      45.753   4.547  12.988  0.00  0.00    +0.000 A 
ENDROOT
BRANCH   1   9
ATOM      7  C   UNL     1      48.246   4.643  17.075  0.00  0.00    +0.000 A 
ATOM      8  C   UNL     1      47.754   5.285  15.962  0.00  0.00    +0.000 A 
ATOM      9  C   UNL     1      47.427   4.492  14.872  0.00  0.00    +0.000 A 
ATOM     10  N   UNL     1      47.573   3.148  14.912  0.00  0.00    +0.000 NA
ATOM     11  C   UNL     1      48.064   2.629  16.048  0.00  0.00    +0.000 A 
ATOM     12  N   UNL     1      48.416   3.313  17.146  0.00  0.00    +0.000 NA
ENDBRANCH   1   9
BRANCH   5  13
ATOM     13  C   UNL     1      44.031   4.554  11.094  0.00  0.00    +0.000 C 
ATOM     14  C   UNL     1      42.685   4.883  11.723  0.00  0.00    +0.000 C 
ATOM     15  C   UNL     1      43.191   3.478  11.764  0.00  0.00    +0.000 C 
BRANCH  13  16
ATOM     16  O   UNL     1      44.027   4.571   9.642  0.00  0.00    +0.000 OA
BRANCH  16  17
ATOM     17  C   UNL     1      44.882   3.709   8.999  0.00  0.00    +0.000 A 
ATOM     18  C   UNL     1      45.009   2.352   9.278  0.00  0.00    +0.000 A 
ATOM     19  N   UNL     1      45.869   1.532   8.613  0.00  0.00    +0.000 NA
ATOM     20  C   UNL     1      46.609   2.129   7.658  0.00  0.00    +0.000 A 
ATOM     21  C   UNL     1      46.500   3.482   7.384  0.00  0.00    +0.000 A 
ATOM     22  N   UNL     1      45.646   4.297   8.047  0.00  0.00    +0.000 NA
ENDBRANCH  16  17
ENDBRANCH  13  16
ENDBRANCH   5  13
TORSDOF 4
ENDMDL
MODEL 2
REMARK VINA RESULT:    -7.405      1.879      3.737
REMARK INTER + INTRA:          -9.464
REMARK INTER:                  -9.138
REMARK INTRA:                  -0.326
REMARK UNBOUND:                -0.327
REMARK  Name = 
REMARK  4 active torsions:
REMARK  status: ('A' for Active; 'I' for Inactive)
REMARK    1  A    between atoms: C_3  and  C_4
REMARK    2  A    between atoms: C_8  and  C_9
REMARK    3  A    between atoms: C_9  and  O_10
REMARK    4  A    between atoms: O_10  and  C_11
REMARK                            x       y       z     vdW  Elec       q    Type
REMARK                         _______ _______ _______ _____ _____    ______ ____
ROOT
ATOM      1  C   UNL     1      47.051   6.409  12.380  0.00  0.00    +0.000 A 
ATOM      2  C   UNL     1      47.469   5.567  13.419  0.00  0.00    +0.000 A 
ATOM      3  C   UNL     1      46.805   4.375  13.631  0.00  0.00    +0.000 A 
ATOM      4  N   UNL     1      45.750   3.970  12.904  0.00  0.00    +0.000 NA
ATOM      5  C   UNL     1      45.307   4.769  11.899  0.00  0.00    +0.000 A 
ATOM      6  C   UNL     1      45.945   5.984  11.622  0.00  0.00    +0.000 A 
ENDROOT
BRANCH   1   9
ATOM      7  C   UNL     1      49.607   9.000  11.515  0.00  0.00    +0.000 A 
ATOM      8  C   UNL     1      49.076   7.749  11.727  0.00  0.00    +0.000 A 
ATOM      9  C   UNL     1      47.740   7.688  12.099  0.00  0.00    +0.000 A 
ATOM     10  N   UNL     1      46.996   8.809  12.231  0.00  0.00    +0.000 NA
ATOM     11  C   UNL     1      47.619   9.976  12.001  0.00  0.00    +0.000 A 
ATOM     12  N   UNL     1      48.902  10.135  11.649  0.00  0.00    +0.000 NA
ENDBRANCH   1   9
BRANCH   5  13
ATOM     13  C   UNL     1      44.096   4.291  11.102  0.00  0.00    +0.000 C 
ATOM     14  C   UNL     1      42.724   4.543  11.711  0.00  0.00    +0.000 C 
ATOM     15  C   UNL     1      43.246   3.145  11.625  0.00  0.00    +0.000 C 
BRANCH  13  16
ATOM     16  O   UNL     1      44.144   4.460   9.660  0.00  0.00    +0.000 OA
BRANCH  16  17
ATOM     17  C   UNL     1      45.001   3.645   8.960  0.00  0.00    +0.000 A 
ATOM     18  C   UNL     1      45.153   2.278   9.167  0.00  0.00    +0.000 A 
ATOM     19  N   UNL     1      46.013   1.506   8.447  0.00  0.00    +0.000 NA
ATOM     20  C   UNL     1      46.726   2.162   7.510  0.00  0.00    +0.000 A 
ATOM     21  C   UNL     1      46.592   3.525   7.307  0.00  0.00    +0.000 A 
ATOM     22  N   UNL     1      45.737   4.293   8.025  0.00  0.00    +0.000 NA
ENDBRANCH  16  17
ENDBRANCH  13  16
ENDBRANCH   5  13
TORSDOF 4
ENDMDL
MODEL 3
REMARK VINA RESULT:    -6.822      2.722      4.988
REMARK INTER + INTRA:          -8.745
REMARK INTER:                  -8.433
REMARK INTRA:                  -0.311
REMARK UNBOUND:                -0.327
REMARK  Name = 
REMARK  4 active torsions:
REMARK  status: ('A' for Active; 'I' for Inactive)
REMARK    1  A    between atoms: C_3  and  C_4
REMARK    2  A    between atoms: C_8  and  C_9
REMARK    3  A    between atoms: C_9  and  O_10
REMARK    4  A    between atoms: O_10  and  C_11
REMARK                            x       y       z     vdW  Elec       q    Type
REMARK                         _______ _______ _______ _____ _____    ______ ____
ROOT
ATOM      1  C   UNL     1      45.109   7.841  11.666  0.00  0.00    +0.000 A 
ATOM      2  C   UNL     1      46.313   7.688  12.367  0.00  0.00    +0.000 A 
ATOM      3  C   UNL     1      46.809   6.418  12.588  0.00  0.00    +0.000 A 
ATOM      4  N   UNL     1      46.192   5.296  12.183  0.00  0.00    +0.000 NA
ATOM      5  C   UNL     1      45.014   5.406  11.514  0.00  0.00    +0.000 A 
ATOM      6  C   UNL     1      44.463   6.665  11.245  0.00  0.00    +0.000 A 
ENDROOT
BRANCH   1   9
ATOM      7  C   UNL     1      44.574  11.536  11.416  0.00  0.00    +0.000 A 
ATOM      8  C   UNL     1      45.215  10.353  11.706  0.00  0.00    +0.000 A 
ATOM      9  C   UNL     1      44.544   9.180  11.387  0.00  0.00    +0.000 A 
ATOM     10  N   UNL     1      43.324   9.205  10.805  0.00  0.00    +0.000 NA
ATOM     11  C   UNL     1      42.793  10.415  10.569  0.00  0.00    +0.000 A 
ATOM     12  N   UNL     1      43.358  11.597  10.850  0.00  0.00    +0.000 NA
ENDBRANCH   1   9
BRANCH   5  13
ATOM     13  C   UNL     1      44.327   4.114  11.082  0.00  0.00    +0.000 C 
ATOM     14  C   UNL     1      43.240   3.568  11.998  0.00  0.00    +0.000 C 
ATOM     15  C   UNL     1      44.538   2.836  11.879  0.00  0.00    +0.000 C 
BRANCH  13  16
ATOM     16  O   UNL     1      44.042   3.957   9.666  0.00  0.00    +0.000 OA
BRANCH  16  17
ATOM     17  C   UNL     1      45.036   3.425   8.880  0.00  0.00    +0.000 A 
ATOM     18  C   UNL     1      45.395   2.082   8.845  0.00  0.00    +0.000 A 
ATOM     19  N   UNL     1      46.386   1.597   8.047  0.00  0.00    +0.000 NA
ATOM     20  C   UNL     1      47.013   2.516   7.286  0.00  0.00    +0.000 A 
ATOM     21  C   UNL     1      46.671   3.857   7.325  0.00  0.00    +0.000 A 
ATOM     22  N   UNL     1      45.687   4.340   8.121  0.00  0.00    +0.000 NA
ENDBRANCH  16  17
ENDBRANCH  13  16
ENDBRANCH   5  13
TORSDOF 4
ENDMDL
MODEL 4
REMARK VINA RESULT:    -6.705      1.996      3.339
REMARK INTER + INTRA:          -8.600
REMARK INTER:                  -8.746
REMARK INTRA:                   0.146
REMARK UNBOUND:                -0.327
REMARK  Name = 
REMARK  4 active torsions:
REMARK  status: ('A' for Active; 'I' for Inactive)
REMARK    1  A    between atoms: C_3  and  C_4
REMARK    2  A    between atoms: C_8  and  C_9
REMARK    3  A    between atoms: C_9  and  O_10
REMARK    4  A    between atoms: O_10  and  C_11
REMARK                            x       y       z     vdW  Elec       q    Type
REMARK                         _______ _______ _______ _____ _____    ______ ____
ROOT
ATOM      1  C   UNL     1      47.165   5.646  12.864  0.00  0.00    +0.000 A 
ATOM      2  C   UNL     1      47.422   4.489  13.612  0.00  0.00    +0.000 A 
ATOM      3  C   UNL     1      46.488   3.473  13.628  0.00  0.00    +0.000 A 
ATOM      4  N   UNL     1      45.315   3.529  12.976  0.00  0.00    +0.000 NA
ATOM      5  C   UNL     1      45.025   4.642  12.254  0.00  0.00    +0.000 A 
ATOM      6  C   UNL     1      45.935   5.703  12.184  0.00  0.00    +0.000 A 
ENDROOT
BRANCH   1   9
ATOM      7  C   UNL     1      49.065   8.707  11.857  0.00  0.00    +0.000 A 
ATOM      8  C   UNL     1      48.086   7.741  11.823  0.00  0.00    +0.000 A 
ATOM      9  C   UNL     1      48.142   6.755  12.799  0.00  0.00    +0.000 A 
ATOM     10  N   UNL     1      49.108   6.757  13.745  0.00  0.00    +0.000 NA
ATOM     11  C   UNL     1      50.013   7.747  13.680  0.00  0.00    +0.000 A 
ATOM     12  N   UNL     1      50.046   8.733  12.773  0.00  0.00    +0.000 NA
ENDBRANCH   1   9
BRANCH   5  13
ATOM     13  C   UNL     1      43.677   4.686  11.538  0.00  0.00    +0.000 C 
ATOM     14  C   UNL     1      43.144   6.057  11.147  0.00  0.00    +0.000 C 
ATOM     15  C   UNL     1      42.465   5.286  12.233  0.00  0.00    +0.000 C 
BRANCH  13  16
ATOM     16  O   UNL     1      43.415   3.647  10.557  0.00  0.00    +0.000 OA
BRANCH  16  17
ATOM     17  C   UNL     1      44.378   3.426   9.602  0.00  0.00    +0.000 A 
ATOM     18  C   UNL     1      44.935   4.405   8.786  0.00  0.00    +0.000 A 
ATOM     19  N   UNL     1      45.891   4.142   7.853  0.00  0.00    +0.000 NA
ATOM     20  C   UNL     1      46.265   2.851   7.762  0.00  0.00    +0.000 A 
ATOM     21  C   UNL     1      45.705   1.867   8.560  0.00  0.00    +0.000 A 
ATOM     22  N   UNL     1      44.753   2.129   9.487  0.00  0.00    +0.000 NA
ENDBRANCH  16  17
ENDBRANCH  13  16
ENDBRANCH   5  13
TORSDOF 4
ENDMDL
MODEL 5
REMARK VINA RESULT:    -6.653      1.817      2.467
REMARK INTER + INTRA:          -8.536
REMARK INTER:                  -8.102
REMARK INTRA:                  -0.434
REMARK UNBOUND:                -0.327
REMARK  Name = 
REMARK  4 active torsions:
REMARK  status: ('A' for Active; 'I' for Inactive)
REMARK    1  A    between atoms: C_3  and  C_4
REMARK    2  A    between atoms: C_8  and  C_9
REMARK    3  A    between atoms: C_9  and  O_10
REMARK    4  A    between atoms: O_10  and  C_11
REMARK                            x       y       z     vdW  Elec       q    Type
REMARK                         _______ _______ _______ _____ _____    ______ ____
ROOT
ATOM      1  C   UNL     1      46.879   6.775  12.960  0.00  0.00    +0.000 A 
ATOM      2  C   UNL     1      46.262   7.922  12.442  0.00  0.00    +0.000 A 
ATOM      3  C   UNL     1      45.114   7.790  11.688  0.00  0.00    +0.000 A 
ATOM      4  N   UNL     1      44.546   6.608  11.395  0.00  0.00    +0.000 NA
ATOM      5  C   UNL     1      45.126   5.474  11.867  0.00  0.00    +0.000 A 
ATOM      6  C   UNL     1      46.285   5.539  12.650  0.00  0.00    +0.000 A 
ENDROOT
BRANCH   1   9
ATOM      7  C   UNL     1      50.275   7.628  14.277  0.00  0.00    +0.000 A 
ATOM      8  C   UNL     1      49.189   7.647  13.432  0.00  0.00    +0.000 A 
ATOM      9  C   UNL     1      48.101   6.864  13.790  0.00  0.00    +0.000 A 
ATOM     10  N   UNL     1      48.107   6.129  14.925  0.00  0.00    +0.000 NA
ATOM     11  C   UNL     1      49.221   6.185  15.672  0.00  0.00    +0.000 A 
ATOM     12  N   UNL     1      50.321   6.901  15.405  0.00  0.00    +0.000 NA
ENDBRANCH   1   9
BRANCH   5  13
ATOM     13  C   UNL     1      44.469   4.145  11.504  0.00  0.00    +0.000 C 
ATOM     14  C   UNL     1      43.541   3.525  12.540  0.00  0.00    +0.000 C 
ATOM     15  C   UNL     1      44.856   2.877  12.249  0.00  0.00    +0.000 C 
BRANCH  13  16
ATOM     16  O   UNL     1      44.020   3.981  10.133  0.00  0.00    +0.000 OA
BRANCH  16  17
ATOM     17  C   UNL     1      44.970   3.661   9.193  0.00  0.00    +0.000 A 
ATOM     18  C   UNL     1      45.684   4.580   8.433  0.00  0.00    +0.000 A 
ATOM     19  N   UNL     1      46.621   4.219   7.513  0.00  0.00    +0.000 NA
ATOM     20  C   UNL     1      46.809   2.891   7.377  0.00  0.00    +0.000 A 
ATOM     21  C   UNL     1      46.092   1.968   8.119  0.00  0.00    +0.000 A 
ATOM     22  N   UNL     1      45.159   2.329   9.033  0.00  0.00    +0.000 NA
ENDBRANCH  16  17
ENDBRANCH  13  16
ENDBRANCH   5  13
TORSDOF 4
ENDMDL
MODEL 6
REMARK VINA RESULT:    -6.472      2.552      6.605
REMARK INTER + INTRA:          -8.313
REMARK INTER:                  -7.810
REMARK INTRA:                  -0.503
REMARK UNBOUND:                -0.327
REMARK  Name = 
REMARK  4 active torsions:
REMARK  status: ('A' for Active; 'I' for Inactive)
REMARK    1  A    between atoms: C_3  and  C_4
REMARK    2  A    between atoms: C_8  and  C_9
REMARK    3  A    between atoms: C_9  and  O_10
REMARK    4  A    between atoms: O_10  and  C_11
REMARK                            x       y       z     vdW  Elec       q    Type
REMARK                         _______ _______ _______ _____ _____    ______ ____
ROOT
ATOM      1  C   UNL     1      45.055   3.293   9.457  0.00  0.00    +0.000 A 
ATOM      2  C   UNL     1      44.202   2.396  10.113  0.00  0.00    +0.000 A 
ATOM      3  C   UNL     1      43.486   2.827  11.213  0.00  0.00    +0.000 A 
ATOM      4  N   UNL     1      43.570   4.069  11.717  0.00  0.00    +0.000 NA
ATOM      5  C   UNL     1      44.400   4.960  11.115  0.00  0.00    +0.000 A 
ATOM      6  C   UNL     1      45.144   4.592   9.988  0.00  0.00    +0.000 A 
ENDROOT
BRANCH   1   9
ATOM      7  C   UNL     1      47.030   1.347   6.944  0.00  0.00    +0.000 A 
ATOM      8  C   UNL     1      46.303   1.594   8.086  0.00  0.00    +0.000 A 
ATOM      9  C   UNL     1      45.830   2.887   8.263  0.00  0.00    +0.000 A 
ATOM     10  N   UNL     1      46.064   3.852   7.346  0.00  0.00    +0.000 NA
ATOM     11  C   UNL     1      46.786   3.499   6.270  0.00  0.00    +0.000 A 
ATOM     12  N   UNL     1      47.292   2.284   6.018  0.00  0.00    +0.000 NA
ENDBRANCH   1   9
BRANCH   5  13
ATOM     13  C   UNL     1      44.489   6.359  11.720  0.00  0.00    +0.000 C 
ATOM     14  C   UNL     1      43.321   7.301  11.461  0.00  0.00    +0.000 C 
ATOM     15  C   UNL     1      44.643   7.571  10.816  0.00  0.00    +0.000 C 
BRANCH  13  16
ATOM     16  O   UNL     1      45.052   6.468  13.054  0.00  0.00    +0.000 OA
BRANCH  16  17
ATOM     17  C   UNL     1      46.399   6.724  13.149  0.00  0.00    +0.000 A 
ATOM     18  C   UNL     1      47.408   5.794  12.923  0.00  0.00    +0.000 A 
ATOM     19  N   UNL     1      48.732   6.092  13.025  0.00  0.00    +0.000 NA
ATOM     20  C   UNL     1      49.010   7.364  13.374  0.00  0.00    +0.000 A 
ATOM     21  C   UNL     1      48.012   8.293  13.615  0.00  0.00    +0.000 A 
ATOM     22  N   UNL     1      46.694   7.995  13.515  0.00  0.00    +0.000 NA
ENDBRANCH  16  17
ENDBRANCH  13  16
ENDBRANCH   5  13
TORSDOF 4
ENDMDL
MODEL 7
REMARK VINA RESULT:    -6.418      3.133      8.107
REMARK INTER + INTRA:          -8.245
REMARK INTER:                  -7.994
REMARK INTRA:                  -0.252
REMARK UNBOUND:                -0.327
REMARK  Name = 
REMARK  4 active torsions:
REMARK  status: ('A' for Active; 'I' for Inactive)
REMARK    1  A    between atoms: C_3  and  C_4
REMARK    2  A    between atoms: C_8  and  C_9
REMARK    3  A    between atoms: C_9  and  O_10
REMARK    4  A    between atoms: O_10  and  C_11
REMARK                            x       y       z     vdW  Elec       q    Type
REMARK                         _______ _______ _______ _____ _____    ______ ____
ROOT
ATOM      1  C   UNL     1      46.376   5.050  13.457  0.00  0.00    +0.000 A 
ATOM      2  C   UNL     1      47.101   6.212  13.160  0.00  0.00    +0.000 A 
ATOM      3  C   UNL     1      48.123   6.603  14.002  0.00  0.00    +0.000 A 
ATOM      4  N   UNL     1      48.464   5.940  15.119  0.00  0.00    +0.000 NA
ATOM      5  C   UNL     1      47.772   4.818  15.446  0.00  0.00    +0.000 A 
ATOM      6  C   UNL     1      46.732   4.359  14.628  0.00  0.00    +0.000 A 
ENDROOT
BRANCH   1   9
ATOM      7  C   UNL     1      43.912   4.683  10.665  0.00  0.00    +0.000 A 
ATOM      8  C   UNL     1      44.964   5.205  11.382  0.00  0.00    +0.000 A 
ATOM      9  C   UNL     1      45.283   4.577  12.578  0.00  0.00    +0.000 A 
ATOM     10  N   UNL     1      44.597   3.495  13.007  0.00  0.00    +0.000 NA
ATOM     11  C   UNL     1      43.588   3.073  12.228  0.00  0.00    +0.000 A 
ATOM     12  N   UNL     1      43.201   3.617  11.066  0.00  0.00    +0.000 NA
ENDBRANCH   1   9
BRANCH   5  13
ATOM     13  C   UNL     1      48.169   4.095  16.730  0.00  0.00    +0.000 C 
ATOM     14  C   UNL     1      48.394   2.592  16.638  0.00  0.00    +0.000 C 
ATOM     15  C   UNL     1      47.206   3.114  17.381  0.00  0.00    +0.000 C 
BRANCH  13  16
ATOM     16  O   UNL     1      49.096   4.779  17.615  0.00  0.00    +0.000 OA
BRANCH  16  17
ATOM     17  C   UNL     1      48.589   5.281  18.790  0.00  0.00    +0.000 A 
ATOM     18  C   UNL     1      47.799   6.420  18.898  0.00  0.00    +0.000 A 
ATOM     19  N   UNL     1      47.315   6.881  20.084  0.00  0.00    +0.000 NA
ATOM     20  C   UNL     1      47.663   6.157  21.166  0.00  0.00    +0.000 A 
ATOM     21  C   UNL     1      48.461   5.030  21.070  0.00  0.00    +0.000 A 
ATOM     22  N   UNL     1      48.943   4.573  19.890  0.00  0.00    +0.000 NA
ENDBRANCH  16  17
ENDBRANCH  13  16
ENDBRANCH   5  13
TORSDOF 4
ENDMDL
MODEL 8
REMARK VINA RESULT:    -5.964      3.118      6.845
REMARK INTER + INTRA:          -7.685
REMARK INTER:                  -8.238
REMARK INTRA:                   0.552
REMARK UNBOUND:                -0.327
REMARK  Name = 
REMARK  4 active torsions:
REMARK  status: ('A' for Active; 'I' for Inactive)
REMARK    1  A    between atoms: C_3  and  C_4
REMARK    2  A    between atoms: C_8  and  C_9
REMARK    3  A    between atoms: C_9  and  O_10
REMARK    4  A    between atoms: O_10  and  C_11
REMARK                            x       y       z     vdW  Elec       q    Type
REMARK                         _______ _______ _______ _____ _____    ______ ____
ROOT
ATOM      1  C   UNL     1      44.924   4.615  10.046  0.00  0.00    +0.000 A 
ATOM      2  C   UNL     1      43.584   4.477  10.434  0.00  0.00    +0.000 A 
ATOM      3  C   UNL     1      43.075   5.308  11.411  0.00  0.00    +0.000 A 
ATOM      4  N   UNL     1      43.798   6.248  12.041  0.00  0.00    +0.000 NA
ATOM      5  C   UNL     1      45.105   6.399  11.702  0.00  0.00    +0.000 A 
ATOM      6  C   UNL     1      45.680   5.597  10.709  0.00  0.00    +0.000 A 
ENDROOT
BRANCH   1   9
ATOM      7  C   UNL     1      46.101   1.693   8.026  0.00  0.00    +0.000 A 
ATOM      8  C   UNL     1      45.501   2.375   9.060  0.00  0.00    +0.000 A 
ATOM      9  C   UNL     1      45.514   3.761   8.991  0.00  0.00    +0.000 A 
ATOM     10  N   UNL     1      46.079   4.407   7.946  0.00  0.00    +0.000 NA
ATOM     11  C   UNL     1      46.637   3.641   6.995  0.00  0.00    +0.000 A 
ATOM     12  N   UNL     1      46.683   2.302   6.980  0.00  0.00    +0.000 NA
ENDBRANCH   1   9
BRANCH   5  13
ATOM     13  C   UNL     1      45.907   7.462  12.448  0.00  0.00    +0.000 C 
ATOM     14  C   UNL     1      47.341   7.694  11.993  0.00  0.00    +0.000 C 
ATOM     15  C   UNL     1      47.085   7.055  13.319  0.00  0.00    +0.000 C 
BRANCH  13  16
ATOM     16  O   UNL     1      45.204   8.674  12.831  0.00  0.00    +0.000 OA
BRANCH  16  17
ATOM     17  C   UNL     1      44.986   9.611  11.850  0.00  0.00    +0.000 A 
ATOM     18  C   UNL     1      44.007   9.526  10.866  0.00  0.00    +0.000 A 
ATOM     19  N   UNL     1      43.823  10.481   9.913  0.00  0.00    +0.000 NA
ATOM     20  C   UNL     1      44.669  11.528   9.979  0.00  0.00    +0.000 A 
ATOM     21  C   UNL     1      45.655  11.615  10.946  0.00  0.00    +0.000 A 
ATOM     22  N   UNL     1      45.839  10.663  11.893  0.00  0.00    +0.000 NA
ENDBRANCH  16  17
ENDBRANCH  13  16
ENDBRANCH   5  13
TORSDOF 4
ENDMDL
MODEL 9
REMARK VINA RESULT:    -5.864      2.653      7.019
REMARK INTER + INTRA:          -7.562
REMARK INTER:                  -7.062
REMARK INTRA:                  -0.501
REMARK UNBOUND:                -0.327
REMARK  Name = 
REMARK  4 active torsions:
REMARK  status: ('A' for Active; 'I' for Inactive)
REMARK    1  A    between atoms: C_3  and  C_4
REMARK    2  A    between atoms: C_8  and  C_9
REMARK    3  A    between atoms: C_9  and  O_10
REMARK    4  A    between atoms: O_10  and  C_11
REMARK                            x       y       z     vdW  Elec       q    Type
REMARK                         _______ _______ _______ _____ _____    ______ ____
ROOT
ATOM      1  C   UNL     1      45.456   6.141  11.103  0.00  0.00    +0.000 A 
ATOM      2  C   UNL     1      44.465   7.084  11.405  0.00  0.00    +0.000 A 
ATOM      3  C   UNL     1      44.805   8.215  12.121  0.00  0.00    +0.000 A 
ATOM      4  N   UNL     1      46.044   8.467  12.572  0.00  0.00    +0.000 NA
ATOM      5  C   UNL     1      47.027   7.566  12.311  0.00  0.00    +0.000 A 
ATOM      6  C   UNL     1      46.752   6.405  11.579  0.00  0.00    +0.000 A 
ENDROOT
BRANCH   1   9
ATOM      7  C   UNL     1      45.151   3.602   8.371  0.00  0.00    +0.000 A 
ATOM      8  C   UNL     1      45.515   4.775   8.993  0.00  0.00    +0.000 A 
ATOM      9  C   UNL     1      45.147   4.921  10.323  0.00  0.00    +0.000 A 
ATOM     10  N   UNL     1      44.475   3.948  10.977  0.00  0.00    +0.000 NA
ATOM     11  C   UNL     1      44.170   2.847  10.271  0.00  0.00    +0.000 A 
ATOM     12  N   UNL     1      44.472   2.620   8.986  0.00  0.00    +0.000 NA
ENDBRANCH   1   9
BRANCH   5  13
ATOM     13  C   UNL     1      48.422   7.869  12.852  0.00  0.00    +0.000 C 
ATOM     14  C   UNL     1      49.353   8.671  11.954  0.00  0.00    +0.000 C 
ATOM     15  C   UNL     1      49.642   7.227  12.211  0.00  0.00    +0.000 C 
BRANCH  13  16
ATOM     16  O   UNL     1      48.527   8.202  14.262  0.00  0.00    +0.000 OA
BRANCH  16  17
ATOM     17  C   UNL     1      48.862   7.186  15.124  0.00  0.00    +0.000 A 
ATOM     18  C   UNL     1      48.131   6.017  15.305  0.00  0.00    +0.000 A 
ATOM     19  N   UNL     1      48.500   5.033  16.170  0.00  0.00    +0.000 NA
ATOM     20  C   UNL     1      49.635   5.270  16.859  0.00  0.00    +0.000 A 
ATOM     21  C   UNL     1      50.361   6.437  16.696  0.00  0.00    +0.000 A 
ATOM     22  N   UNL     1      49.992   7.416  15.836  0.00  0.00    +0.000 NA
ENDBRANCH  16  17
ENDBRANCH  13  16
ENDBRANCH   5  13
TORSDOF 4
ENDMDL
