MODEL 1
REMARK VINA RESULT:    -8.129      0.000      0.000
REMARK INTER + INTRA:         -11.179
REMARK INTER:                 -10.506
REMARK INTRA:                  -0.673
REMARK UNBOUND:                -0.673
REMARK  Name = 
REMARK  6 active torsions:
REMARK  status: ('A' for Active; 'I' for Inactive)
REMARK    1  A    between atoms: C_1  and  O_2
REMARK    2  A    between atoms: O_2  and  C_3
REMARK    3  A    between atoms: C_6  and  C_7
REMARK    4  A    between atoms: C_11  and  O_12
REMARK    5  A    between atoms: O_12  and  C_13
REMARK    6  A    between atoms: C_13  and  C_14
REMARK                            x       y       z     vdW  Elec       q    Type
REMARK                         _______ _______ _______ _____ _____    ______ ____
ROOT
ATOM      1  C   UNL     1      45.359   5.274  12.332  0.00  0.00    +0.000 A 
ATOM      2  C   UNL     1      44.313   5.234  13.236  0.00  0.00    +0.000 A 
ATOM      3  C   UNL     1      43.212   4.495  12.869  0.00  0.00    +0.000 A 
ATOM      4  N   UNL     1      43.115   3.830  11.707  0.00  0.00    +0.000 NA
ATOM      5  C   UNL     1      44.170   3.930  10.893  0.00  0.00    +0.000 A 
ATOM      6  N   UNL     1      45.293   4.617  11.153  0.00  0.00    +0.000 NA
ENDROOT
BRANCH   1  10
ATOM      7  C   UNL     1      49.023   7.463  12.993  0.00  0.00    +0.000 A 
ATOM      8  C   UNL     1      48.344   7.570  11.784  0.00  0.00    +0.000 A 
ATOM      9  C   UNL     1      47.156   6.854  11.580  0.00  0.00    +0.000 A 
ATOM     10  C   UNL     1      46.614   6.014  12.573  0.00  0.00    +0.000 A 
ATOM     11  C   UNL     1      47.312   5.931  13.789  0.00  0.00    +0.000 A 
ATOM     12  C   UNL     1      48.498   6.645  13.993  0.00  0.00    +0.000 A 
BRANCH   7  14
ATOM     13  C   UNL     1      50.734   7.812  14.605  0.00  0.00    +0.000 C 
ATOM     14  O   UNL     1      50.189   8.096  13.323  0.00  0.00    +0.000 OA
ENDBRANCH   7  14
ENDBRANCH   1  10
BRANCH   5  15
ATOM     15  O   UNL     1      44.079   3.212   9.723  0.00  0.00    +0.000 OA
BRANCH  15  16
ATOM     16  C   UNL     1      44.638   3.930   8.628  0.00  0.00    +0.000 C 
BRANCH  16  17
ATOM     17  C   UNL     1      45.664   3.057   7.942  0.00  0.00    +0.000 A 
ATOM     18  C   UNL     1      46.530   3.592   6.976  0.00  0.00    +0.000 A 
ATOM     19  C   UNL     1      47.494   2.789   6.359  0.00  0.00    +0.000 A 
ATOM     20  C   UNL     1      47.602   1.444   6.705  0.00  0.00    +0.000 A 
ATOM     21  C   UNL     1      46.745   0.912   7.661  0.00  0.00    +0.000 A 
ATOM     22  F   UNL     1      46.849  -0.381   7.994  0.00  0.00    +0.000 F 
ATOM     23  C   UNL     1      45.781   1.701   8.280  0.00  0.00    +0.000 A 
ENDBRANCH  16  17
ENDBRANCH  15  16
ENDBRANCH   5  15
TORSDOF 5
ENDMDL
MODEL 2
REMARK VINA RESULT:    -7.991      1.590      2.131
REMARK INTER + INTRA:         -11.000
REMARK INTER:                 -10.386
REMARK INTRA:                  -0.614
REMARK UNBOUND:                -0.673
REMARK  Name = 
REMARK  6 active torsions:
REMARK  status: ('A' for Active; 'I' for Inactive)
REMARK    1  A    between atoms: C_1  and  O_2
REMARK    2  A    between atoms: O_2  and  C_3
REMARK    3  A    between atoms: C_6  and  C_7
REMARK    4  A    between atoms: C_11  and  O_12
REMARK    5  A    between atoms: O_12  and  C_13
REMARK    6  A    between atoms: C_13  and  C_14
REMARK                            x       y       z     vdW  Elec       q    Type
REMARK                         _______ _______ _______ _____ _____    ______ ____
ROOT
ATOM      1  C   UNL     1      44.943   5.967  11.965  0.00  0.00    +0.000 A 
ATOM      2  C   UNL     1      44.030   5.693  12.967  0.00  0.00    +0.000 A 
ATOM      3  C   UNL     1      43.148   4.664  12.729  0.00  0.00    +0.000 A 
ATOM      4  N   UNL     1      43.141   3.936  11.602  0.00  0.00    +0.000 NA
ATOM      5  C   UNL     1      44.054   4.275  10.687  0.00  0.00    +0.000 A 
ATOM      6  N   UNL     1      44.961   5.254  10.818  0.00  0.00    +0.000 NA
ENDROOT
BRANCH   1  10
ATOM      7  C   UNL     1      47.886   9.114  12.272  0.00  0.00    +0.000 A 
ATOM      8  C   UNL     1      46.557   9.353  12.608  0.00  0.00    +0.000 A 
ATOM      9  C   UNL     1      45.611   8.324  12.504  0.00  0.00    +0.000 A 
ATOM     10  C   UNL     1      45.961   7.033  12.063  0.00  0.00    +0.000 A 
ATOM     11  C   UNL     1      47.311   6.813  11.740  0.00  0.00    +0.000 A 
ATOM     12  C   UNL     1      48.256   7.840  11.844  0.00  0.00    +0.000 A 
BRANCH   7  14
ATOM     13  C   UNL     1      49.234  10.686  11.105  0.00  0.00    +0.000 C 
ATOM     14  O   UNL     1      48.906  10.023  12.320  0.00  0.00    +0.000 OA
ENDBRANCH   7  14
ENDBRANCH   1  10
BRANCH   5  15
ATOM     15  O   UNL     1      44.066   3.497   9.552  0.00  0.00    +0.000 OA
BRANCH  15  16
ATOM     16  C   UNL     1      44.789   4.125   8.500  0.00  0.00    +0.000 C 
BRANCH  16  17
ATOM     17  C   UNL     1      45.705   3.107   7.859  0.00  0.00    +0.000 A 
ATOM     18  C   UNL     1      45.873   1.835   8.429  0.00  0.00    +0.000 A 
ATOM     19  C   UNL     1      46.700   0.886   7.823  0.00  0.00    +0.000 A 
ATOM     20  C   UNL     1      47.367   1.198   6.641  0.00  0.00    +0.000 A 
ATOM     21  C   UNL     1      47.203   2.457   6.075  0.00  0.00    +0.000 A 
ATOM     22  F   UNL     1      47.843   2.758   4.938  0.00  0.00    +0.000 F 
ATOM     23  C   UNL     1      46.382   3.410   6.670  0.00  0.00    +0.000 A 
ENDBRANCH  16  17
ENDBRANCH  15  16
ENDBRANCH   5  15
TORSDOF 5
ENDMDL
MODEL 3
REMARK VINA RESULT:    -7.959      2.457      2.983
REMARK INTER + INTRA:         -10.959
REMARK INTER:                 -10.244
REMARK INTRA:                  -0.715
REMARK UNBOUND:                -0.673
REMARK  Name = 
REMARK  6 active torsions:
REMARK  status: ('A' for Active; 'I' for Inactive)
REMARK    1  A    between atoms: C_1  and  O_2
REMARK    2  A    between atoms: O_2  and  C_3
REMARK    3  A    between atoms: C_6  and  C_7
REMARK    4  A    between atoms: C_11  and  O_12
REMARK    5  A    between atoms: O_12  and  C_13
REMARK    6  A    between atoms: C_13  and  C_14
REMARK                            x       y       z     vdW  Elec       q    Type
REMARK                         _______ _______ _______ _____ _____    ______ ____
ROOT
ATOM      1  C   UNL     1      45.703   5.868  12.551  0.00  0.00    +0.000 A 
ATOM      2  C   UNL     1      46.530   5.372  13.542  0.00  0.00    +0.000 A 
ATOM      3  C   UNL     1      46.586   4.003  13.666  0.00  0.00    +0.000 A 
ATOM      4  N   UNL     1      45.895   3.156  12.888  0.00  0.00    +0.000 NA
ATOM      5  C   UNL     1      45.118   3.724  11.961  0.00  0.00    +0.000 A 
ATOM      6  N   UNL     1      44.993   5.043  11.751  0.00  0.00    +0.000 NA
ENDROOT
BRANCH   1  10
ATOM      7  C   UNL     1      45.165  10.076  11.734  0.00  0.00    +0.000 A 
ATOM      8  C   UNL     1      44.324   9.130  11.157  0.00  0.00    +0.000 A 
ATOM      9  C   UNL     1      44.508   7.767  11.429  0.00  0.00    +0.000 A 
ATOM     10  C   UNL     1      45.534   7.310  12.280  0.00  0.00    +0.000 A 
ATOM     11  C   UNL     1      46.363   8.284  12.859  0.00  0.00    +0.000 A 
ATOM     12  C   UNL     1      46.180   9.645  12.589  0.00  0.00    +0.000 A 
BRANCH   7  14
ATOM     13  C   UNL     1      46.306  12.160  11.759  0.00  0.00    +0.000 C 
ATOM     14  O   UNL     1      45.104  11.429  11.552  0.00  0.00    +0.000 OA
ENDBRANCH   7  14
ENDBRANCH   1  10
BRANCH   5  15
ATOM     15  O   UNL     1      44.445   2.848  11.140  0.00  0.00    +0.000 OA
BRANCH  15  16
ATOM     16  C   UNL     1      44.113   3.453   9.896  0.00  0.00    +0.000 C 
BRANCH  16  17
ATOM     17  C   UNL     1      45.138   3.042   8.863  0.00  0.00    +0.000 A 
ATOM     18  C   UNL     1      45.714   3.993   8.006  0.00  0.00    +0.000 A 
ATOM     19  C   UNL     1      46.679   3.617   7.068  0.00  0.00    +0.000 A 
ATOM     20  C   UNL     1      47.079   2.285   6.979  0.00  0.00    +0.000 A 
ATOM     21  C   UNL     1      46.509   1.342   7.825  0.00  0.00    +0.000 A 
ATOM     22  F   UNL     1      46.894   0.061   7.740  0.00  0.00    +0.000 F 
ATOM     23  C   UNL     1      45.547   1.705   8.762  0.00  0.00    +0.000 A 
ENDBRANCH  16  17
ENDBRANCH  15  16
ENDBRANCH   5  15
TORSDOF 5
ENDMDL
MODEL 4
REMARK VINA RESULT:    -7.946      1.207      1.428
REMARK INTER + INTRA:         -10.942
REMARK INTER:                 -10.298
REMARK INTRA:                  -0.644
REMARK UNBOUND:                -0.673
REMARK  Name = 
REMARK  6 active torsions:
REMARK  status: ('A' for Active; 'I' for Inactive)
REMARK    1  A    between atoms: C_1  and  O_2
REMARK    2  A    between atoms: O_2  and  C_3
REMARK    3  A    between atoms: C_6  and  C_7
REMARK    4  A    between atoms: C_11  and  O_12
REMARK    5  A    between atoms: O_12  and  C_13
REMARK    6  A    between atoms: C_13  and  C_14
REMARK                            x       y       z     vdW  Elec       q    Type
REMARK                         _______ _______ _______ _____ _____    ______ ____
ROOT
ATOM      1  C   UNL     1      44.961   5.886  12.027  0.00  0.00    +0.000 A 
ATOM      2  C   UNL     1      43.923   5.770  12.933  0.00  0.00    +0.000 A 
ATOM      3  C   UNL     1      43.005   4.774  12.691  0.00  0.00    +0.000 A 
ATOM      4  N   UNL     1      43.075   3.935  11.645  0.00  0.00    +0.000 NA
ATOM      5  C   UNL     1      44.108   4.125  10.819  0.00  0.00    +0.000 A 
ATOM      6  N   UNL     1      45.060   5.059  10.964  0.00  0.00    +0.000 NA
ENDROOT
BRANCH   1  10
ATOM      7  C   UNL     1      48.063   8.869  12.397  0.00  0.00    +0.000 A 
ATOM      8  C   UNL     1      46.781   9.119  12.875  0.00  0.00    +0.000 A 
ATOM      9  C   UNL     1      45.782   8.143  12.749  0.00  0.00    +0.000 A 
ATOM     10  C   UNL     1      46.032   6.896  12.144  0.00  0.00    +0.000 A 
ATOM     11  C   UNL     1      47.336   6.664  11.678  0.00  0.00    +0.000 A 
ATOM     12  C   UNL     1      48.334   7.637  11.803  0.00  0.00    +0.000 A 
BRANCH   7  14
ATOM     13  C   UNL     1      50.060   9.658  11.378  0.00  0.00    +0.000 C 
ATOM     14  O   UNL     1      49.125   9.728  12.447  0.00  0.00    +0.000 OA
ENDBRANCH   7  14
ENDBRANCH   1  10
BRANCH   5  15
ATOM     15  O   UNL     1      44.195   3.235   9.773  0.00  0.00    +0.000 OA
BRANCH  15  16
ATOM     16  C   UNL     1      44.646   3.873   8.584  0.00  0.00    +0.000 C 
BRANCH  16  17
ATOM     17  C   UNL     1      45.688   2.999   7.924  0.00  0.00    +0.000 A 
ATOM     18  C   UNL     1      46.596   3.540   6.999  0.00  0.00    +0.000 A 
ATOM     19  C   UNL     1      47.574   2.737   6.407  0.00  0.00    +0.000 A 
ATOM     20  C   UNL     1      47.655   1.385   6.735  0.00  0.00    +0.000 A 
ATOM     21  C   UNL     1      46.757   0.848   7.649  0.00  0.00    +0.000 A 
ATOM     22  F   UNL     1      46.834  -0.452   7.965  0.00  0.00    +0.000 F 
ATOM     23  C   UNL     1      45.778   1.638   8.244  0.00  0.00    +0.000 A 
ENDBRANCH  16  17
ENDBRANCH  15  16
ENDBRANCH   5  15
TORSDOF 5
ENDMDL
MODEL 5
REMARK VINA RESULT:    -7.591      2.076      2.664
REMARK INTER + INTRA:         -10.484
REMARK INTER:                  -9.877
REMARK INTRA:                  -0.607
REMARK UNBOUND:                -0.673
REMARK  Name = 
REMARK  6 active torsions:
REMARK  status: ('A' for Active; 'I' for Inactive)
REMARK    1  A    between atoms: C_1  and  O_2
REMARK    2  A    between atoms: O_2  and  C_3
REMARK    3  A    between atoms: C_6  and  C_7
REMARK    4  A    between atoms: C_11  and  O_12
REMARK    5  A    between atoms: O_12  and  C_13
REMARK    6  A    between atoms: C_13  and  C_14
REMARK                            x       y       z     vdW  Elec       q    Type
REMARK                         _______ _______ _______ _____ _____    ______ ____
ROOT
ATOM      1  C   UNL     1      46.140   5.440  13.212  0.00  0.00    +0.000 A 
ATOM      2  C   UNL     1      45.591   6.634  12.779  0.00  0.00    +0.000 A 
ATOM      3  C   UNL     1      44.778   6.570  11.671  0.00  0.00    +0.000 A 
ATOM      4  N   UNL     1      44.502   5.433  11.015  0.00  0.00    +0.000 NA
ATOM      5  C   UNL     1      45.079   4.330  11.500  0.00  0.00    +0.000 A 
ATOM      6  N   UNL     1      45.882   4.278  12.573  0.00  0.00    +0.000 NA
ENDROOT
BRANCH   1  10
ATOM      7  C   UNL     1      48.718   5.078  16.658  0.00  0.00    +0.000 A 
ATOM      8  C   UNL     1      47.781   4.091  16.369  0.00  0.00    +0.000 A 
ATOM      9  C   UNL     1      46.949   4.219  15.248  0.00  0.00    +0.000 A 
ATOM     10  C   UNL     1      47.027   5.332  14.387  0.00  0.00    +0.000 A 
ATOM     11  C   UNL     1      47.988   6.310  14.694  0.00  0.00    +0.000 A 
ATOM     12  C   UNL     1      48.819   6.182  15.813  0.00  0.00    +0.000 A 
BRANCH   7  14
ATOM     13  C   UNL     1      50.475   3.980  17.824  0.00  0.00    +0.000 C 
ATOM     14  O   UNL     1      49.583   5.084  17.716  0.00  0.00    +0.000 OA
ENDBRANCH   7  14
ENDBRANCH   1  10
BRANCH   5  15
ATOM     15  O   UNL     1      44.757   3.162  10.847  0.00  0.00    +0.000 OA
BRANCH  15  16
ATOM     16  C   UNL     1      44.330   3.415   9.513  0.00  0.00    +0.000 C 
BRANCH  16  17
ATOM     17  C   UNL     1      45.349   2.841   8.555  0.00  0.00    +0.000 A 
ATOM     18  C   UNL     1      46.021   3.671   7.643  0.00  0.00    +0.000 A 
ATOM     19  C   UNL     1      46.981   3.144   6.774  0.00  0.00    +0.000 A 
ATOM     20  C   UNL     1      47.280   1.783   6.810  0.00  0.00    +0.000 A 
ATOM     21  C   UNL     1      46.614   0.961   7.711  0.00  0.00    +0.000 A 
ATOM     22  F   UNL     1      46.901  -0.347   7.746  0.00  0.00    +0.000 F 
ATOM     23  C   UNL     1      45.657   1.474   8.580  0.00  0.00    +0.000 A 
ENDBRANCH  16  17
ENDBRANCH  15  16
ENDBRANCH   5  15
TORSDOF 5
ENDMDL
MODEL 6
REMARK VINA RESULT:    -7.207      2.756      6.786
REMARK INTER + INTRA:          -9.986
REMARK INTER:                  -9.329
REMARK INTRA:                  -0.657
REMARK UNBOUND:                -0.673
REMARK  Name = 
REMARK  6 active torsions:
REMARK  status: ('A' for Active; 'I' for Inactive)
REMARK    1  A    between atoms: C_1  and  O_2
REMARK    2  A    between atoms: O_2  and  C_3
REMARK    3  A    between atoms: C_6  and  C_7
REMARK    4  A    between atoms: C_11  and  O_12
REMARK    5  A    between atoms: O_12  and  C_13
REMARK    6  A    between atoms: C_13  and  C_14
REMARK                            x       y       z     vdW  Elec       q    Type
REMARK                         _______ _______ _______ _____ _____    ______ ____
ROOT
ATOM      1  C   UNL     1      44.508   4.453  10.887  0.00  0.00    +0.000 A 
ATOM      2  C   UNL     1      43.211   4.255  11.326  0.00  0.00    +0.000 A 
ATOM      3  C   UNL     1      42.819   4.978  12.429  0.00  0.00    +0.000 A 
ATOM      4  N   UNL     1      43.618   5.843  13.074  0.00  0.00    +0.000 NA
ATOM      5  C   UNL     1      44.855   5.965  12.584  0.00  0.00    +0.000 A 
ATOM      6  N   UNL     1      45.337   5.314  11.514  0.00  0.00    +0.000 NA
ENDROOT
BRANCH   1  10
ATOM      7  C   UNL     1      46.172   2.387   7.478  0.00  0.00    +0.000 A 
ATOM      8  C   UNL     1      45.599   1.674   8.526  0.00  0.00    +0.000 A 
ATOM      9  C   UNL     1      45.062   2.355   9.628  0.00  0.00    +0.000 A 
ATOM     10  C   UNL     1      45.083   3.761   9.715  0.00  0.00    +0.000 A 
ATOM     11  C   UNL     1      45.657   4.459   8.640  0.00  0.00    +0.000 A 
ATOM     12  C   UNL     1      46.193   3.780   7.540  0.00  0.00    +0.000 A 
BRANCH   7  14
ATOM     13  C   UNL     1      48.066   2.254   6.049  0.00  0.00    +0.000 C 
ATOM     14  O   UNL     1      46.736   1.854   6.353  0.00  0.00    +0.000 OA
ENDBRANCH   7  14
ENDBRANCH   1  10
BRANCH   5  15
ATOM     15  O   UNL     1      45.653   6.884  13.226  0.00  0.00    +0.000 OA
BRANCH  15  16
ATOM     16  C   UNL     1      45.516   8.180  12.655  0.00  0.00    +0.000 C 
BRANCH  16  17
ATOM     17  C   UNL     1      46.879   8.672  12.223  0.00  0.00    +0.000 A 
ATOM     18  C   UNL     1      47.125  10.043  12.054  0.00  0.00    +0.000 A 
ATOM     19  C   UNL     1      48.392  10.499  11.678  0.00  0.00    +0.000 A 
ATOM     20  C   UNL     1      49.425   9.587  11.470  0.00  0.00    +0.000 A 
ATOM     21  C   UNL     1      49.183   8.229  11.636  0.00  0.00    +0.000 A 
ATOM     22  F   UNL     1      50.175   7.352  11.436  0.00  0.00    +0.000 F 
ATOM     23  C   UNL     1      47.925   7.764  12.009  0.00  0.00    +0.000 A 
ENDBRANCH  16  17
ENDBRANCH  15  16
ENDBRANCH   5  15
TORSDOF 5
ENDMDL
MODEL 7
REMARK VINA RESULT:    -7.188      1.570      2.389
REMARK INTER + INTRA:          -9.962
REMARK INTER:                  -9.294
REMARK INTRA:                  -0.668
REMARK UNBOUND:                -0.673
REMARK  Name = 
REMARK  6 active torsions:
REMARK  status: ('A' for Active; 'I' for Inactive)
REMARK    1  A    between atoms: C_1  and  O_2
REMARK    2  A    between atoms: O_2  and  C_3
REMARK    3  A    between atoms: C_6  and  C_7
REMARK    4  A    between atoms: C_11  and  O_12
REMARK    5  A    between atoms: O_12  and  C_13
REMARK    6  A    between atoms: C_13  and  C_14
REMARK                            x       y       z     vdW  Elec       q    Type
REMARK                         _______ _______ _______ _____ _____    ______ ____
ROOT
ATOM      1  C   UNL     1      47.412   6.143  12.759  0.00  0.00    +0.000 A 
ATOM      2  C   UNL     1      47.083   5.322  13.822  0.00  0.00    +0.000 A 
ATOM      3  C   UNL     1      45.930   4.582  13.691  0.00  0.00    +0.000 A 
ATOM      4  N   UNL     1      45.139   4.621  12.608  0.00  0.00    +0.000 NA
ATOM      5  C   UNL     1      45.532   5.447  11.634  0.00  0.00    +0.000 A 
ATOM      6  N   UNL     1      46.637   6.207  11.655  0.00  0.00    +0.000 NA
ENDROOT
BRANCH   1  10
ATOM      7  C   UNL     1      50.945   8.630  12.738  0.00  0.00    +0.000 A 
ATOM      8  C   UNL     1      50.459   8.101  13.929  0.00  0.00    +0.000 A 
ATOM      9  C   UNL     1      49.312   7.295  13.924  0.00  0.00    +0.000 A 
ATOM     10  C   UNL     1      48.618   6.997  12.735  0.00  0.00    +0.000 A 
ATOM     11  C   UNL     1      49.133   7.534  11.544  0.00  0.00    +0.000 A 
ATOM     12  C   UNL     1      50.278   8.338  11.548  0.00  0.00    +0.000 A 
BRANCH   7  14
ATOM     13  C   UNL     1      52.895   9.167  11.492  0.00  0.00    +0.000 C 
ATOM     14  O   UNL     1      52.043   9.432  12.599  0.00  0.00    +0.000 OA
ENDBRANCH   7  14
ENDBRANCH   1  10
BRANCH   5  15
ATOM     15  O   UNL     1      44.738   5.449  10.510  0.00  0.00    +0.000 OA
BRANCH  15  16
ATOM     16  C   UNL     1      44.248   4.145  10.217  0.00  0.00    +0.000 C 
BRANCH  16  17
ATOM     17  C   UNL     1      45.119   3.524   9.149  0.00  0.00    +0.000 A 
ATOM     18  C   UNL     1      45.797   4.329   8.219  0.00  0.00    +0.000 A 
ATOM     19  C   UNL     1      46.621   3.756   7.247  0.00  0.00    +0.000 A 
ATOM     20  C   UNL     1      46.777   2.372   7.196  0.00  0.00    +0.000 A 
ATOM     21  C   UNL     1      46.107   1.574   8.115  0.00  0.00    +0.000 A 
ATOM     22  F   UNL     1      46.256   0.243   8.066  0.00  0.00    +0.000 F 
ATOM     23  C   UNL     1      45.283   2.133   9.086  0.00  0.00    +0.000 A 
ENDBRANCH  16  17
ENDBRANCH  15  16
ENDBRANCH   5  15
TORSDOF 5
ENDMDL
MODEL 8
REMARK VINA RESULT:    -7.168      1.487      1.867
REMARK INTER + INTRA:          -9.937
REMARK INTER:                  -9.311
REMARK INTRA:                  -0.626
REMARK UNBOUND:                -0.673
REMARK  Name = 
REMARK  6 active torsions:
REMARK  status: ('A' for Active; 'I' for Inactive)
REMARK    1  A    between atoms: C_1  and  O_2
REMARK    2  A    between atoms: O_2  and  C_3
REMARK    3  A    between atoms: C_6  and  C_7
REMARK    4  A    between atoms: C_11  and  O_12
REMARK    5  A    between atoms: O_12  and  C_13
REMARK    6  A    between atoms: C_13  and  C_14
REMARK                            x       y       z     vdW  Elec       q    Type
REMARK                         _______ _______ _______ _____ _____    ______ ____
ROOT
ATOM      1  C   UNL     1      46.449   5.794  12.477  0.00  0.00    +0.000 A 
ATOM      2  C   UNL     1      45.670   5.063  13.355  0.00  0.00    +0.000 A 
ATOM      3  C   UNL     1      44.660   4.310  12.799  0.00  0.00    +0.000 A 
ATOM      4  N   UNL     1      44.412   4.256  11.481  0.00  0.00    +0.000 NA
ATOM      5  C   UNL     1      45.211   4.999  10.710  0.00  0.00    +0.000 A 
ATOM      6  N   UNL     1      46.225   5.762  11.145  0.00  0.00    +0.000 NA
ENDROOT
BRANCH   1  10
ATOM      7  C   UNL     1      49.740   8.314  13.693  0.00  0.00    +0.000 A 
ATOM      8  C   UNL     1      49.196   8.428  12.417  0.00  0.00    +0.000 A 
ATOM      9  C   UNL     1      48.128   7.604  12.033  0.00  0.00    +0.000 A 
ATOM     10  C   UNL     1      47.576   6.647  12.907  0.00  0.00    +0.000 A 
ATOM     11  C   UNL     1      48.135   6.559  14.193  0.00  0.00    +0.000 A 
ATOM     12  C   UNL     1      49.200   7.381  14.577  0.00  0.00    +0.000 A 
BRANCH   7  14
ATOM     13  C   UNL     1      50.878  10.399  13.770  0.00  0.00    +0.000 C 
ATOM     14  O   UNL     1      50.781   9.045  14.194  0.00  0.00    +0.000 OA
ENDBRANCH   7  14
ENDBRANCH   1  10
BRANCH   5  15
ATOM     15  O   UNL     1      44.975   4.905   9.357  0.00  0.00    +0.000 OA
BRANCH  15  16
ATOM     16  C   UNL     1      44.420   3.640   9.014  0.00  0.00    +0.000 C 
BRANCH  16  17
ATOM     17  C   UNL     1      45.416   2.881   8.167  0.00  0.00    +0.000 A 
ATOM     18  C   UNL     1      45.857   1.604   8.549  0.00  0.00    +0.000 A 
ATOM     19  C   UNL     1      46.760   0.894   7.753  0.00  0.00    +0.000 A 
ATOM     20  C   UNL     1      47.230   1.453   6.567  0.00  0.00    +0.000 A 
ATOM     21  C   UNL     1      46.795   2.717   6.187  0.00  0.00    +0.000 A 
ATOM     22  F   UNL     1      47.247   3.255   5.046  0.00  0.00    +0.000 F 
ATOM     23  C   UNL     1      45.898   3.434   6.972  0.00  0.00    +0.000 A 
ENDBRANCH  16  17
ENDBRANCH  15  16
ENDBRANCH   5  15
TORSDOF 5
ENDMDL
MODEL 9
REMARK VINA RESULT:    -6.510      3.616      7.809
REMARK INTER + INTRA:          -9.087
REMARK INTER:                  -8.362
REMARK INTRA:                  -0.725
REMARK UNBOUND:                -0.673
REMARK  Name = 
REMARK  6 active torsions:
REMARK  status: ('A' for Active; 'I' for Inactive)
REMARK    1  A    between atoms: C_1  and  O_2
REMARK    2  A    between atoms: O_2  and  C_3
REMARK    3  A    between atoms: C_6  and  C_7
REMARK    4  A    between atoms: C_11  and  O_12
REMARK    5  A    between atoms: O_12  and  C_13
REMARK    6  A    between atoms: C_13  and  C_14
REMARK                            x       y       z     vdW  Elec       q    Type
REMARK                         _______ _______ _______ _____ _____    ______ ____
ROOT
ATOM      1  C   UNL     1      46.813   6.689  12.913  0.00  0.00    +0.000 A 
ATOM      2  C   UNL     1      46.479   8.031  12.868  0.00  0.00    +0.000 A 
ATOM      3  C   UNL     1      47.275   8.886  13.595  0.00  0.00    +0.000 A 
ATOM      4  N   UNL     1      48.331   8.485  14.320  0.00  0.00    +0.000 NA
ATOM      5  C   UNL     1      48.575   7.172  14.309  0.00  0.00    +0.000 A 
ATOM      6  N   UNL     1      47.868   6.253  13.634  0.00  0.00    +0.000 NA
ENDROOT
BRANCH   1  10
ATOM      7  C   UNL     1      44.630   3.598  10.832  0.00  0.00    +0.000 A 
ATOM      8  C   UNL     1      45.062   3.400  12.139  0.00  0.00    +0.000 A 
ATOM      9  C   UNL     1      45.770   4.411  12.805  0.00  0.00    +0.000 A 
ATOM     10  C   UNL     1      46.067   5.641  12.187  0.00  0.00    +0.000 A 
ATOM     11  C   UNL     1      45.611   5.821  10.871  0.00  0.00    +0.000 A 
ATOM     12  C   UNL     1      44.904   4.814  10.206  0.00  0.00    +0.000 A 
BRANCH   7  14
ATOM     13  C   UNL     1      44.686   1.974   9.097  0.00  0.00    +0.000 C 
ATOM     14  O   UNL     1      43.939   2.701  10.066  0.00  0.00    +0.000 OA
ENDBRANCH   7  14
ENDBRANCH   1  10
BRANCH   5  15
ATOM     15  O   UNL     1      49.684   6.774  15.022  0.00  0.00    +0.000 OA
BRANCH  15  16
ATOM     16  C   UNL     1      49.413   6.726  16.419  0.00  0.00    +0.000 C 
BRANCH  16  17
ATOM     17  C   UNL     1      49.403   5.281  16.865  0.00  0.00    +0.000 A 
ATOM     18  C   UNL     1      50.591   4.642  17.251  0.00  0.00    +0.000 A 
ATOM     19  C   UNL     1      50.578   3.314  17.686  0.00  0.00    +0.000 A 
ATOM     20  C   UNL     1      49.375   2.613  17.741  0.00  0.00    +0.000 A 
ATOM     21  C   UNL     1      48.198   3.244  17.359  0.00  0.00    +0.000 A 
ATOM     22  F   UNL     1      47.040   2.570  17.411  0.00  0.00    +0.000 F 
ATOM     23  C   UNL     1      48.199   4.565  16.923  0.00  0.00    +0.000 A 
ENDBRANCH  16  17
ENDBRANCH  15  16
ENDBRANCH   5  15
TORSDOF 5
ENDMDL
