MODEL 1
REMARK VINA RESULT:    -6.811      0.000      0.000
REMARK INTER + INTRA:         -11.094
REMARK INTER:                  -9.798
REMARK INTRA:                  -1.296
REMARK UNBOUND:                -1.296
REMARK  Name = 
REMARK  8 active torsions:
REMARK  status: ('A' for Active; 'I' for Inactive)
REMARK    1  A    between atoms: C_2  and  C_21
REMARK    2  A    between atoms: N_3  and  C_4
REMARK    3  A    between atoms: C_4  and  C_5
REMARK    4  A    between atoms: C_8  and  C_9
REMARK    5  A    between atoms: C_9  and  C_10
REMARK    6  A    between atoms: C_10  and  N_11
REMARK    7  A    between atoms: C_14  and  C_15
REMARK    8  A    between atoms: C_15  and  O_16
REMARK                            x       y       z     vdW  Elec       q    Type
REMARK                         _______ _______ _______ _____ _____    ______ ____
ROOT
ATOM      1  C   UNL     1      48.215   7.957  13.169  0.00  0.00    +0.000 A 
ATOM      2  C   UNL     1      49.416   7.335  13.520  0.00  0.00    +0.000 A 
ATOM      3  C   UNL     1      49.977   7.537  14.776  0.00  0.00    +0.000 A 
ATOM      4  C   UNL     1      49.334   8.360  15.712  0.00  0.00    +0.000 A 
ATOM      5  C   UNL     1      48.113   8.956  15.365  0.00  0.00    +0.000 A 
ATOM      6  C   UNL     1      47.555   8.762  14.105  0.00  0.00    +0.000 A 
ENDROOT
BRANCH   1   7
ATOM      7  C   UNL     1      47.637   7.738  11.803  0.00  0.00    +0.000 C 
BRANCH   7  10
ATOM      8  O   UNL     1      44.854   7.533  11.930  0.00  0.00    +0.000 OA
ATOM      9  C   UNL     1      45.531   6.514  11.749  0.00  0.00    +0.000 C 
ATOM     10  N   UNL     1      46.897   6.514  11.721  0.00  0.00    +0.000 N 
ATOM     11  H   UNL     1      47.385   5.734  11.303  0.00  0.00    +0.000 HD
BRANCH   9  12
ATOM     12  C   UNL     1      44.916   5.205  11.600  0.00  0.00    +0.000 A 
ATOM     13  C   UNL     1      44.241   4.568  12.629  0.00  0.00    +0.000 A 
ATOM     14  S   UNL     1      43.598   3.052  12.160  0.00  0.00    +0.000 S 
ATOM     15  C   UNL     1      44.203   3.221  10.578  0.00  0.00    +0.000 A 
ATOM     16  N   UNL     1      44.012   2.263   9.629  0.00  0.00    +0.000 NA
ATOM     17  C   UNL     1      44.519   2.540   8.480  0.00  0.00    +0.000 A 
ATOM     18  N   UNL     1      45.206   3.693   8.178  0.00  0.00    +0.000 N 
ATOM     19  C   UNL     1      45.473   4.648   9.104  0.00  0.00    +0.000 A 
ATOM     20  O   UNL     1      46.226   5.594   8.819  0.00  0.00    +0.000 OA
ATOM     21  C   UNL     1      44.898   4.401  10.408  0.00  0.00    +0.000 A 
ATOM     22  H   UNL     1      45.616   3.834   7.266  0.00  0.00    +0.000 HD
ENDBRANCH   9  12
ENDBRANCH   7  10
ENDBRANCH   1   7
BRANCH   4  23
ATOM     23  C   UNL     1      49.846   8.553  17.118  0.00  0.00    +0.000 C 
BRANCH  23  24
ATOM     24  C   UNL     1      50.896   7.534  17.591  0.00  0.00    +0.000 C 
BRANCH  24  25
ATOM     25  N   UNL     1      50.372   6.354  18.308  0.00  0.00    +0.000 NA
ATOM     26  C   UNL     1      49.022   6.569  18.854  0.00  0.00    +0.000 C 
ATOM     27  C   UNL     1      48.493   5.326  19.567  0.00  0.00    +0.000 C 
ATOM     28  C   UNL     1      48.472   4.117  18.625  0.00  0.00    +0.000 C 
ATOM     29  C   UNL     1      49.885   3.915  18.070  0.00  0.00    +0.000 C 
ATOM     30  C   UNL     1      50.429   5.184  17.411  0.00  0.00    +0.000 C 
BRANCH  28  31
ATOM     31  C   UNL     1      47.441   4.276  17.492  0.00  0.00    +0.000 C 
BRANCH  31  32
ATOM     32  O   UNL     1      46.598   3.136  17.410  0.00  0.00    +0.000 OA
ATOM     33  H   UNL     1      46.556   2.869  16.476  0.00  0.00    +0.000 HD
ENDBRANCH  31  32
ENDBRANCH  28  31
ENDBRANCH  24  25
ENDBRANCH  23  24
ENDBRANCH   4  23
TORSDOF 8
ENDMDL
MODEL 2
REMARK VINA RESULT:    -6.765      1.442      2.082
REMARK INTER + INTRA:         -11.027
REMARK INTER:                  -9.877
REMARK INTRA:                  -1.149
REMARK UNBOUND:                -1.296
REMARK  Name = 
REMARK  8 active torsions:
REMARK  status: ('A' for Active; 'I' for Inactive)
REMARK    1  A    between atoms: C_2  and  C_21
REMARK    2  A    between atoms: N_3  and  C_4
REMARK    3  A    between atoms: C_4  and  C_5
REMARK    4  A    between atoms: C_8  and  C_9
REMARK    5  A    between atoms: C_9  and  C_10
REMARK    6  A    between atoms: C_10  and  N_11
REMARK    7  A    between atoms: C_14  and  C_15
REMARK    8  A    between atoms: C_15  and  O_16
REMARK                            x       y       z     vdW  Elec       q    Type
REMARK                         _______ _______ _______ _____ _____    ______ ____
ROOT
ATOM      1  C   UNL     1      48.272   8.123  13.405  0.00  0.00    +0.000 A 
ATOM      2  C   UNL     1      48.510   6.875  13.988  0.00  0.00    +0.000 A 
ATOM      3  C   UNL     1      48.772   6.767  15.350  0.00  0.00    +0.000 A 
ATOM      4  C   UNL     1      48.788   7.913  16.157  0.00  0.00    +0.000 A 
ATOM      5  C   UNL     1      48.517   9.159  15.573  0.00  0.00    +0.000 A 
ATOM      6  C   UNL     1      48.264   9.270  14.209  0.00  0.00    +0.000 A 
ENDROOT
BRANCH   1   7
ATOM      7  C   UNL     1      48.008   8.217  11.933  0.00  0.00    +0.000 C 
BRANCH   7  10
ATOM      8  O   UNL     1      45.257   7.943  11.532  0.00  0.00    +0.000 OA
ATOM      9  C   UNL     1      46.013   7.015  11.221  0.00  0.00    +0.000 C 
ATOM     10  N   UNL     1      47.363   7.043  11.425  0.00  0.00    +0.000 N 
ATOM     11  H   UNL     1      47.956   6.403  10.914  0.00  0.00    +0.000 HD
BRANCH   9  12
ATOM     12  C   UNL     1      45.506   5.777  10.648  0.00  0.00    +0.000 A 
ATOM     13  C   UNL     1      45.726   5.413   9.329  0.00  0.00    +0.000 A 
ATOM     14  S   UNL     1      45.037   3.895   8.939  0.00  0.00    +0.000 S 
ATOM     15  C   UNL     1      44.441   3.696  10.521  0.00  0.00    +0.000 A 
ATOM     16  N   UNL     1      43.735   2.590  10.889  0.00  0.00    +0.000 NA
ATOM     17  C   UNL     1      43.362   2.580  12.121  0.00  0.00    +0.000 A 
ATOM     18  N   UNL     1      43.626   3.574  13.034  0.00  0.00    +0.000 N 
ATOM     19  C   UNL     1      44.273   4.720  12.699  0.00  0.00    +0.000 A 
ATOM     20  O   UNL     1      44.351   5.649  13.520  0.00  0.00    +0.000 OA
ATOM     21  C   UNL     1      44.742   4.770  11.332  0.00  0.00    +0.000 A 
ATOM     22  H   UNL     1      43.270   3.527  13.977  0.00  0.00    +0.000 HD
ENDBRANCH   9  12
ENDBRANCH   7  10
ENDBRANCH   1   7
BRANCH   4  23
ATOM     23  C   UNL     1      48.983   7.856  17.653  0.00  0.00    +0.000 C 
BRANCH  23  24
ATOM     24  C   UNL     1      50.238   7.107  18.133  0.00  0.00    +0.000 C 
BRANCH  24  25
ATOM     25  N   UNL     1      50.032   5.704  18.546  0.00  0.00    +0.000 NA
ATOM     26  C   UNL     1      48.655   5.435  18.994  0.00  0.00    +0.000 C 
ATOM     27  C   UNL     1      48.463   3.972  19.390  0.00  0.00    +0.000 C 
ATOM     28  C   UNL     1      48.810   3.036  18.228  0.00  0.00    +0.000 C 
ATOM     29  C   UNL     1      50.244   3.335  17.782  0.00  0.00    +0.000 C 
ATOM     30  C   UNL     1      50.442   4.814  17.443  0.00  0.00    +0.000 C 
BRANCH  28  31
ATOM     31  C   UNL     1      47.818   3.163  17.057  0.00  0.00    +0.000 C 
BRANCH  31  32
ATOM     32  O   UNL     1      46.480   3.004  17.506  0.00  0.00    +0.000 OA
ATOM     33  H   UNL     1      46.319   3.675  18.190  0.00  0.00    +0.000 HD
ENDBRANCH  31  32
ENDBRANCH  28  31
ENDBRANCH  24  25
ENDBRANCH  23  24
ENDBRANCH   4  23
TORSDOF 8
ENDMDL
MODEL 3
REMARK VINA RESULT:    -6.714      3.769      8.881
REMARK INTER + INTRA:         -10.954
REMARK INTER:                  -9.819
REMARK INTRA:                  -1.135
REMARK UNBOUND:                -1.296
REMARK  Name = 
REMARK  8 active torsions:
REMARK  status: ('A' for Active; 'I' for Inactive)
REMARK    1  A    between atoms: C_2  and  C_21
REMARK    2  A    between atoms: N_3  and  C_4
REMARK    3  A    between atoms: C_4  and  C_5
REMARK    4  A    between atoms: C_8  and  C_9
REMARK    5  A    between atoms: C_9  and  C_10
REMARK    6  A    between atoms: C_10  and  N_11
REMARK    7  A    between atoms: C_14  and  C_15
REMARK    8  A    between atoms: C_15  and  O_16
REMARK                            x       y       z     vdW  Elec       q    Type
REMARK                         _______ _______ _______ _____ _____    ______ ____
ROOT
ATOM      1  C   UNL     1      48.106   5.360  15.883  0.00  0.00    +0.000 A 
ATOM      2  C   UNL     1      48.689   6.548  15.436  0.00  0.00    +0.000 A 
ATOM      3  C   UNL     1      48.422   7.032  14.159  0.00  0.00    +0.000 A 
ATOM      4  C   UNL     1      47.551   6.335  13.310  0.00  0.00    +0.000 A 
ATOM      5  C   UNL     1      46.943   5.160  13.776  0.00  0.00    +0.000 A 
ATOM      6  C   UNL     1      47.217   4.671  15.050  0.00  0.00    +0.000 A 
ENDROOT
BRANCH   1   7
ATOM      7  C   UNL     1      48.421   4.850  17.257  0.00  0.00    +0.000 C 
BRANCH   7  10
ATOM      8  O   UNL     1      49.795   4.597  19.676  0.00  0.00    +0.000 OA
ATOM      9  C   UNL     1      50.373   4.327  18.617  0.00  0.00    +0.000 C 
ATOM     10  N   UNL     1      49.796   4.468  17.388  0.00  0.00    +0.000 N 
ATOM     11  H   UNL     1      50.193   3.984  16.594  0.00  0.00    +0.000 HD
BRANCH   9  12
ATOM     12  C   UNL     1      51.757   3.879  18.595  0.00  0.00    +0.000 A 
ATOM     13  C   UNL     1      52.798   4.622  19.130  0.00  0.00    +0.000 A 
ATOM     14  S   UNL     1      54.313   3.837  18.987  0.00  0.00    +0.000 S 
ATOM     15  C   UNL     1      53.607   2.493  18.217  0.00  0.00    +0.000 A 
ATOM     16  N   UNL     1      54.349   1.426  17.811  0.00  0.00    +0.000 NA
ATOM     17  C   UNL     1      53.672   0.484  17.255  0.00  0.00    +0.000 A 
ATOM     18  N   UNL     1      52.310   0.500  17.062  0.00  0.00    +0.000 N 
ATOM     19  C   UNL     1      51.537   1.565  17.395  0.00  0.00    +0.000 A 
ATOM     20  O   UNL     1      50.342   1.590  17.061  0.00  0.00    +0.000 OA
ATOM     21  C   UNL     1      52.245   2.641  18.053  0.00  0.00    +0.000 A 
ATOM     22  H   UNL     1      51.841  -0.254  16.582  0.00  0.00    +0.000 HD
ENDBRANCH   9  12
ENDBRANCH   7  10
ENDBRANCH   1   7
BRANCH   4  23
ATOM     23  C   UNL     1      47.154   6.848  11.947  0.00  0.00    +0.000 C 
BRANCH  23  24
ATOM     24  C   UNL     1      45.708   7.355  11.820  0.00  0.00    +0.000 C 
BRANCH  24  25
ATOM     25  N   UNL     1      44.760   6.438  11.155  0.00  0.00    +0.000 NA
ATOM     26  C   UNL     1      45.432   5.401  10.355  0.00  0.00    +0.000 C 
ATOM     27  C   UNL     1      44.431   4.451   9.701  0.00  0.00    +0.000 C 
ATOM     28  C   UNL     1      43.537   3.782  10.751  0.00  0.00    +0.000 C 
ATOM     29  C   UNL     1      42.851   4.881  11.568  0.00  0.00    +0.000 C 
ATOM     30  C   UNL     1      43.859   5.862  12.171  0.00  0.00    +0.000 C 
BRANCH  28  31
ATOM     31  C   UNL     1      44.322   2.815  11.657  0.00  0.00    +0.000 C 
BRANCH  31  32
ATOM     32  O   UNL     1      43.474   2.244  12.643  0.00  0.00    +0.000 OA
ATOM     33  H   UNL     1      44.043   1.851  13.326  0.00  0.00    +0.000 HD
ENDBRANCH  31  32
ENDBRANCH  28  31
ENDBRANCH  24  25
ENDBRANCH  23  24
ENDBRANCH   4  23
TORSDOF 8
ENDMDL
MODEL 4
REMARK VINA RESULT:    -6.387      4.164      6.261
REMARK INTER + INTRA:         -10.483
REMARK INTER:                  -9.394
REMARK INTRA:                  -1.089
REMARK UNBOUND:                -1.296
REMARK  Name = 
REMARK  8 active torsions:
REMARK  status: ('A' for Active; 'I' for Inactive)
REMARK    1  A    between atoms: C_2  and  C_21
REMARK    2  A    between atoms: N_3  and  C_4
REMARK    3  A    between atoms: C_4  and  C_5
REMARK    4  A    between atoms: C_8  and  C_9
REMARK    5  A    between atoms: C_9  and  C_10
REMARK    6  A    between atoms: C_10  and  N_11
REMARK    7  A    between atoms: C_14  and  C_15
REMARK    8  A    between atoms: C_15  and  O_16
REMARK                            x       y       z     vdW  Elec       q    Type
REMARK                         _______ _______ _______ _____ _____    ______ ____
ROOT
ATOM      1  C   UNL     1      47.523   8.412  12.074  0.00  0.00    +0.000 A 
ATOM      2  C   UNL     1      48.015   9.704  11.870  0.00  0.00    +0.000 A 
ATOM      3  C   UNL     1      49.382   9.929  11.745  0.00  0.00    +0.000 A 
ATOM      4  C   UNL     1      50.282   8.856  11.811  0.00  0.00    +0.000 A 
ATOM      5  C   UNL     1      49.780   7.558  11.984  0.00  0.00    +0.000 A 
ATOM      6  C   UNL     1      48.413   7.333  12.119  0.00  0.00    +0.000 A 
ENDROOT
BRANCH   1   7
ATOM      7  C   UNL     1      46.047   8.195  12.222  0.00  0.00    +0.000 C 
BRANCH   7  10
ATOM      8  O   UNL     1      43.559   7.319  11.303  0.00  0.00    +0.000 OA
ATOM      9  C   UNL     1      44.452   6.492  11.520  0.00  0.00    +0.000 C 
ATOM     10  N   UNL     1      45.681   6.825  12.015  0.00  0.00    +0.000 N 
ATOM     11  H   UNL     1      46.450   6.177  11.912  0.00  0.00    +0.000 HD
BRANCH   9  12
ATOM     12  C   UNL     1      44.243   5.068  11.309  0.00  0.00    +0.000 A 
ATOM     13  C   UNL     1      43.490   4.283  12.166  0.00  0.00    +0.000 A 
ATOM     14  S   UNL     1      43.393   2.652  11.655  0.00  0.00    +0.000 S 
ATOM     15  C   UNL     1      44.348   2.966  10.282  0.00  0.00    +0.000 A 
ATOM     16  N   UNL     1      44.666   1.989   9.388  0.00  0.00    +0.000 NA
ATOM     17  C   UNL     1      45.384   2.384   8.397  0.00  0.00    +0.000 A 
ATOM     18  N   UNL     1      45.822   3.673   8.204  0.00  0.00    +0.000 N 
ATOM     19  C   UNL     1      45.582   4.667   9.097  0.00  0.00    +0.000 A 
ATOM     20  O   UNL     1      46.127   5.773   8.953  0.00  0.00    +0.000 OA
ATOM     21  C   UNL     1      44.751   4.284  10.217  0.00  0.00    +0.000 A 
ATOM     22  H   UNL     1      46.419   3.912   7.425  0.00  0.00    +0.000 HD
ENDBRANCH   9  12
ENDBRANCH   7  10
ENDBRANCH   1   7
BRANCH   4  23
ATOM     23  C   UNL     1      51.768   9.022  11.601  0.00  0.00    +0.000 C 
BRANCH  23  24
ATOM     24  C   UNL     1      52.231   9.082  10.135  0.00  0.00    +0.000 C 
BRANCH  24  25
ATOM     25  N   UNL     1      53.198   8.044   9.723  0.00  0.00    +0.000 NA
ATOM     26  C   UNL     1      52.686   6.677   9.910  0.00  0.00    +0.000 C 
ATOM     27  C   UNL     1      53.695   5.625   9.452  0.00  0.00    +0.000 C 
ATOM     28  C   UNL     1      54.073   5.828   7.981  0.00  0.00    +0.000 C 
ATOM     29  C   UNL     1      54.602   7.255   7.813  0.00  0.00    +0.000 C 
ATOM     30  C   UNL     1      53.609   8.299   8.329  0.00  0.00    +0.000 C 
BRANCH  28  31
ATOM     31  C   UNL     1      52.894   5.549   7.029  0.00  0.00    +0.000 C 
BRANCH  31  32
ATOM     32  O   UNL     1      53.091   4.334   6.321  0.00  0.00    +0.000 OA
ATOM     33  H   UNL     1      53.968   3.992   6.563  0.00  0.00    +0.000 HD
ENDBRANCH  31  32
ENDBRANCH  28  31
ENDBRANCH  24  25
ENDBRANCH  23  24
ENDBRANCH   4  23
TORSDOF 8
ENDMDL
MODEL 5
REMARK VINA RESULT:    -6.116      3.040      4.979
REMARK INTER + INTRA:         -10.094
REMARK INTER:                  -9.068
REMARK INTRA:                  -1.026
REMARK UNBOUND:                -1.296
REMARK  Name = 
REMARK  8 active torsions:
REMARK  status: ('A' for Active; 'I' for Inactive)
REMARK    1  A    between atoms: C_2  and  C_21
REMARK    2  A    between atoms: N_3  and  C_4
REMARK    3  A    between atoms: C_4  and  C_5
REMARK    4  A    between atoms: C_8  and  C_9
REMARK    5  A    between atoms: C_9  and  C_10
REMARK    6  A    between atoms: C_10  and  N_11
REMARK    7  A    between atoms: C_14  and  C_15
REMARK    8  A    between atoms: C_15  and  O_16
REMARK                            x       y       z     vdW  Elec       q    Type
REMARK                         _______ _______ _______ _____ _____    ______ ____
ROOT
ATOM      1  C   UNL     1      47.643   4.245  17.771  0.00  0.00    +0.000 A 
ATOM      2  C   UNL     1      48.629   3.692  18.592  0.00  0.00    +0.000 A 
ATOM      3  C   UNL     1      48.929   4.266  19.823  0.00  0.00    +0.000 A 
ATOM      4  C   UNL     1      48.234   5.403  20.259  0.00  0.00    +0.000 A 
ATOM      5  C   UNL     1      47.224   5.934  19.445  0.00  0.00    +0.000 A 
ATOM      6  C   UNL     1      46.929   5.367  18.209  0.00  0.00    +0.000 A 
ENDROOT
BRANCH   1   7
ATOM      7  C   UNL     1      47.347   3.619  16.441  0.00  0.00    +0.000 C 
BRANCH   7  10
ATOM      8  O   UNL     1      46.962   3.128  13.718  0.00  0.00    +0.000 OA
ATOM      9  C   UNL     1      46.660   4.232  14.185  0.00  0.00    +0.000 C 
ATOM     10  N   UNL     1      46.859   4.576  15.492  0.00  0.00    +0.000 N 
ATOM     11  H   UNL     1      46.354   5.360  15.881  0.00  0.00    +0.000 HD
BRANCH   9  12
ATOM     12  C   UNL     1      46.107   5.289  13.352  0.00  0.00    +0.000 A 
ATOM     13  C   UNL     1      46.823   6.422  13.000  0.00  0.00    +0.000 A 
ATOM     14  S   UNL     1      45.931   7.481  11.993  0.00  0.00    +0.000 S 
ATOM     15  C   UNL     1      44.580   6.445  12.004  0.00  0.00    +0.000 A 
ATOM     16  N   UNL     1      43.437   6.747  11.329  0.00  0.00    +0.000 NA
ATOM     17  C   UNL     1      42.510   5.860  11.424  0.00  0.00    +0.000 A 
ATOM     18  N   UNL     1      42.610   4.687  12.133  0.00  0.00    +0.000 N 
ATOM     19  C   UNL     1      43.705   4.370  12.870  0.00  0.00    +0.000 A 
ATOM     20  O   UNL     1      43.685   3.375  13.613  0.00  0.00    +0.000 OA
ATOM     21  C   UNL     1      44.792   5.319  12.774  0.00  0.00    +0.000 A 
ATOM     22  H   UNL     1      41.830   4.049  12.204  0.00  0.00    +0.000 HD
ENDBRANCH   9  12
ENDBRANCH   7  10
ENDBRANCH   1   7
BRANCH   4  23
ATOM     23  C   UNL     1      48.454   6.023  21.617  0.00  0.00    +0.000 C 
BRANCH  23  24
ATOM     24  C   UNL     1      49.808   6.724  21.818  0.00  0.00    +0.000 C 
BRANCH  24  25
ATOM     25  N   UNL     1      49.979   8.010  21.113  0.00  0.00    +0.000 NA
ATOM     26  C   UNL     1      50.490   7.848  19.742  0.00  0.00    +0.000 C 
ATOM     27  C   UNL     1      50.631   9.190  19.026  0.00  0.00    +0.000 C 
ATOM     28  C   UNL     1      49.293   9.937  18.983  0.00  0.00    +0.000 C 
ATOM     29  C   UNL     1      48.784  10.093  20.419  0.00  0.00    +0.000 C 
ATOM     30  C   UNL     1      48.701   8.749  21.147  0.00  0.00    +0.000 C 
BRANCH  28  31
ATOM     31  C   UNL     1      48.257   9.229  18.092  0.00  0.00    +0.000 C 
BRANCH  31  32
ATOM     32  O   UNL     1      47.631  10.151  17.211  0.00  0.00    +0.000 OA
ATOM     33  H   UNL     1      47.918  11.043  17.469  0.00  0.00    +0.000 HD
ENDBRANCH  31  32
ENDBRANCH  28  31
ENDBRANCH  24  25
ENDBRANCH  23  24
ENDBRANCH   4  23
TORSDOF 8
ENDMDL
MODEL 6
REMARK VINA RESULT:    -6.058      3.250      8.371
REMARK INTER + INTRA:         -10.010
REMARK INTER:                  -9.106
REMARK INTRA:                  -0.904
REMARK UNBOUND:                -1.296
REMARK  Name = 
REMARK  8 active torsions:
REMARK  status: ('A' for Active; 'I' for Inactive)
REMARK    1  A    between atoms: C_2  and  C_21
REMARK    2  A    between atoms: N_3  and  C_4
REMARK    3  A    between atoms: C_4  and  C_5
REMARK    4  A    between atoms: C_8  and  C_9
REMARK    5  A    between atoms: C_9  and  C_10
REMARK    6  A    between atoms: C_10  and  N_11
REMARK    7  A    between atoms: C_14  and  C_15
REMARK    8  A    between atoms: C_15  and  O_16
REMARK                            x       y       z     vdW  Elec       q    Type
REMARK                         _______ _______ _______ _____ _____    ______ ____
ROOT
ATOM      1  C   UNL     1      48.910   7.806  15.990  0.00  0.00    +0.000 A 
ATOM      2  C   UNL     1      48.270   8.878  15.362  0.00  0.00    +0.000 A 
ATOM      3  C   UNL     1      47.641   8.706  14.134  0.00  0.00    +0.000 A 
ATOM      4  C   UNL     1      47.632   7.448  13.516  0.00  0.00    +0.000 A 
ATOM      5  C   UNL     1      48.249   6.369  14.165  0.00  0.00    +0.000 A 
ATOM      6  C   UNL     1      48.887   6.541  15.390  0.00  0.00    +0.000 A 
ENDROOT
BRANCH   1   7
ATOM      7  C   UNL     1      49.596   8.018  17.306  0.00  0.00    +0.000 C 
BRANCH   7  10
ATOM      8  O   UNL     1      49.351   5.939  19.156  0.00  0.00    +0.000 OA
ATOM      9  C   UNL     1      50.367   6.013  18.455  0.00  0.00    +0.000 C 
ATOM     10  N   UNL     1      50.592   7.021  17.561  0.00  0.00    +0.000 N 
ATOM     11  H   UNL     1      51.280   6.892  16.831  0.00  0.00    +0.000 HD
BRANCH   9  12
ATOM     12  C   UNL     1      51.445   5.043  18.567  0.00  0.00    +0.000 A 
ATOM     13  C   UNL     1      52.652   5.326  19.188  0.00  0.00    +0.000 A 
ATOM     14  S   UNL     1      53.721   3.989  19.195  0.00  0.00    +0.000 S 
ATOM     15  C   UNL     1      52.593   3.010  18.378  0.00  0.00    +0.000 A 
ATOM     16  N   UNL     1      52.866   1.716  18.055  0.00  0.00    +0.000 NA
ATOM     17  C   UNL     1      51.910   1.103  17.449  0.00  0.00    +0.000 A 
ATOM     18  N   UNL     1      50.693   1.659  17.131  0.00  0.00    +0.000 N 
ATOM     19  C   UNL     1      50.398   2.961  17.378  0.00  0.00    +0.000 A 
ATOM     20  O   UNL     1      49.348   3.452  16.934  0.00  0.00    +0.000 OA
ATOM     21  C   UNL     1      51.427   3.689  18.087  0.00  0.00    +0.000 A 
ATOM     22  H   UNL     1      49.998   1.138  16.617  0.00  0.00    +0.000 HD
ENDBRANCH   9  12
ENDBRANCH   7  10
ENDBRANCH   1   7
BRANCH   4  23
ATOM     23  C   UNL     1      46.898   7.176  12.226  0.00  0.00    +0.000 C 
BRANCH  23  24
ATOM     24  C   UNL     1      45.365   7.286  12.295  0.00  0.00    +0.000 C 
BRANCH  24  25
ATOM     25  N   UNL     1      44.633   6.009  12.408  0.00  0.00    +0.000 NA
ATOM     26  C   UNL     1      43.538   5.888  11.432  0.00  0.00    +0.000 C 
ATOM     27  C   UNL     1      42.814   4.548  11.553  0.00  0.00    +0.000 C 
ATOM     28  C   UNL     1      43.787   3.378  11.371  0.00  0.00    +0.000 C 
ATOM     29  C   UNL     1      44.915   3.526  12.396  0.00  0.00    +0.000 C 
ATOM     30  C   UNL     1      45.594   4.894  12.307  0.00  0.00    +0.000 C 
BRANCH  28  31
ATOM     31  C   UNL     1      44.339   3.293   9.936  0.00  0.00    +0.000 C 
BRANCH  31  32
ATOM     32  O   UNL     1      44.638   1.949   9.586  0.00  0.00    +0.000 OA
ATOM     33  H   UNL     1      45.604   1.849   9.609  0.00  0.00    +0.000 HD
ENDBRANCH  31  32
ENDBRANCH  28  31
ENDBRANCH  24  25
ENDBRANCH  23  24
ENDBRANCH   4  23
TORSDOF 8
ENDMDL
MODEL 7
REMARK VINA RESULT:    -6.035      2.853      5.113
REMARK INTER + INTRA:          -9.978
REMARK INTER:                  -8.029
REMARK INTRA:                  -1.949
REMARK UNBOUND:                -1.296
REMARK  Name = 
REMARK  8 active torsions:
REMARK  status: ('A' for Active; 'I' for Inactive)
REMARK    1  A    between atoms: C_2  and  C_21
REMARK    2  A    between atoms: N_3  and  C_4
REMARK    3  A    between atoms: C_4  and  C_5
REMARK    4  A    between atoms: C_8  and  C_9
REMARK    5  A    between atoms: C_9  and  C_10
REMARK    6  A    between atoms: C_10  and  N_11
REMARK    7  A    between atoms: C_14  and  C_15
REMARK    8  A    between atoms: C_15  and  O_16
REMARK                            x       y       z     vdW  Elec       q    Type
REMARK                         _______ _______ _______ _____ _____    ______ ____
ROOT
ATOM      1  C   UNL     1      47.944   4.892  17.360  0.00  0.00    +0.000 A 
ATOM      2  C   UNL     1      49.184   5.488  17.120  0.00  0.00    +0.000 A 
ATOM      3  C   UNL     1      49.723   6.393  18.029  0.00  0.00    +0.000 A 
ATOM      4  C   UNL     1      49.028   6.709  19.205  0.00  0.00    +0.000 A 
ATOM      5  C   UNL     1      47.798   6.084  19.456  0.00  0.00    +0.000 A 
ATOM      6  C   UNL     1      47.254   5.185  18.543  0.00  0.00    +0.000 A 
ENDROOT
BRANCH   1   7
ATOM      7  C   UNL     1      47.375   3.932  16.359  0.00  0.00    +0.000 C 
BRANCH   7  10
ATOM      8  O   UNL     1      47.458   3.339  13.631  0.00  0.00    +0.000 OA
ATOM      9  C   UNL     1      46.682   4.210  14.041  0.00  0.00    +0.000 C 
ATOM     10  N   UNL     1      46.609   4.598  15.348  0.00  0.00    +0.000 N 
ATOM     11  H   UNL     1      45.791   5.094  15.674  0.00  0.00    +0.000 HD
BRANCH   9  12
ATOM     12  C   UNL     1      45.805   4.939  13.137  0.00  0.00    +0.000 A 
ATOM     13  C   UNL     1      44.770   4.335  12.442  0.00  0.00    +0.000 A 
ATOM     14  S   UNL     1      43.889   5.439  11.475  0.00  0.00    +0.000 S 
ATOM     15  C   UNL     1      44.868   6.741  11.970  0.00  0.00    +0.000 A 
ATOM     16  N   UNL     1      44.665   8.007  11.513  0.00  0.00    +0.000 NA
ATOM     17  C   UNL     1      45.479   8.884  11.987  0.00  0.00    +0.000 A 
ATOM     18  N   UNL     1      46.488   8.620  12.884  0.00  0.00    +0.000 N 
ATOM     19  C   UNL     1      46.767   7.365  13.321  0.00  0.00    +0.000 A 
ATOM     20  O   UNL     1      47.781   7.161  14.008  0.00  0.00    +0.000 OA
ATOM     21  C   UNL     1      45.861   6.344  12.843  0.00  0.00    +0.000 A 
ATOM     22  H   UNL     1      47.122   9.345  13.188  0.00  0.00    +0.000 HD
ENDBRANCH   9  12
ENDBRANCH   7  10
ENDBRANCH   1   7
BRANCH   4  23
ATOM     23  C   UNL     1      49.594   7.618  20.269  0.00  0.00    +0.000 C 
BRANCH  23  24
ATOM     24  C   UNL     1      48.720   8.824  20.649  0.00  0.00    +0.000 C 
BRANCH  24  25
ATOM     25  N   UNL     1      48.809   9.993  19.750  0.00  0.00    +0.000 NA
ATOM     26  C   UNL     1      50.103  10.081  19.052  0.00  0.00    +0.000 C 
ATOM     27  C   UNL     1      50.158  11.282  18.110  0.00  0.00    +0.000 C 
ATOM     28  C   UNL     1      49.028  11.226  17.077  0.00  0.00    +0.000 C 
ATOM     29  C   UNL     1      47.695  11.135  17.827  0.00  0.00    +0.000 C 
ATOM     30  C   UNL     1      47.671   9.964  18.811  0.00  0.00    +0.000 C 
BRANCH  28  31
ATOM     31  C   UNL     1      49.197  10.059  16.087  0.00  0.00    +0.000 C 
BRANCH  31  32
ATOM     32  O   UNL     1      48.061   9.941  15.242  0.00  0.00    +0.000 OA
ATOM     33  H   UNL     1      47.396   9.416  15.718  0.00  0.00    +0.000 HD
ENDBRANCH  31  32
ENDBRANCH  28  31
ENDBRANCH  24  25
ENDBRANCH  23  24
ENDBRANCH   4  23
TORSDOF 8
ENDMDL
MODEL 8
REMARK VINA RESULT:    -5.999      4.102      9.354
REMARK INTER + INTRA:          -9.926
REMARK INTER:                  -8.986
REMARK INTRA:                  -0.940
REMARK UNBOUND:                -1.296
REMARK  Name = 
REMARK  8 active torsions:
REMARK  status: ('A' for Active; 'I' for Inactive)
REMARK    1  A    between atoms: C_2  and  C_21
REMARK    2  A    between atoms: N_3  and  C_4
REMARK    3  A    between atoms: C_4  and  C_5
REMARK    4  A    between atoms: C_8  and  C_9
REMARK    5  A    between atoms: C_9  and  C_10
REMARK    6  A    between atoms: C_10  and  N_11
REMARK    7  A    between atoms: C_14  and  C_15
REMARK    8  A    between atoms: C_15  and  O_16
REMARK                            x       y       z     vdW  Elec       q    Type
REMARK                         _______ _______ _______ _____ _____    ______ ____
ROOT
ATOM      1  C   UNL     1      46.288   4.901  13.691  0.00  0.00    +0.000 A 
ATOM      2  C   UNL     1      44.974   4.650  13.288  0.00  0.00    +0.000 A 
ATOM      3  C   UNL     1      44.283   5.574  12.510  0.00  0.00    +0.000 A 
ATOM      4  C   UNL     1      44.906   6.765  12.111  0.00  0.00    +0.000 A 
ATOM      5  C   UNL     1      46.235   6.997  12.491  0.00  0.00    +0.000 A 
ATOM      6  C   UNL     1      46.925   6.078  13.277  0.00  0.00    +0.000 A 
ENDROOT
BRANCH   1   7
ATOM      7  C   UNL     1      47.008   3.899  14.542  0.00  0.00    +0.000 C 
BRANCH   7  10
ATOM      8  O   UNL     1      46.488   3.126  17.175  0.00  0.00    +0.000 OA
ATOM      9  C   UNL     1      47.308   4.025  16.956  0.00  0.00    +0.000 C 
ATOM     10  N   UNL     1      47.589   4.499  15.706  0.00  0.00    +0.000 N 
ATOM     11  H   UNL     1      48.442   5.018  15.552  0.00  0.00    +0.000 HD
BRANCH   9  12
ATOM     12  C   UNL     1      48.014   4.695  18.037  0.00  0.00    +0.000 A 
ATOM     13  C   UNL     1      47.414   5.637  18.858  0.00  0.00    +0.000 A 
ATOM     14  S   UNL     1      48.475   6.239  20.059  0.00  0.00    +0.000 S 
ATOM     15  C   UNL     1      49.748   5.251  19.510  0.00  0.00    +0.000 A 
ATOM     16  N   UNL     1      50.975   5.265  20.101  0.00  0.00    +0.000 NA
ATOM     17  C   UNL     1      51.828   4.456  19.580  0.00  0.00    +0.000 A 
ATOM     18  N   UNL     1      51.577   3.622  18.515  0.00  0.00    +0.000 N 
ATOM     19  C   UNL     1      50.391   3.617  17.856  0.00  0.00    +0.000 A 
ATOM     20  O   UNL     1      50.267   2.960  16.810  0.00  0.00    +0.000 OA
ATOM     21  C   UNL     1      49.383   4.487  18.420  0.00  0.00    +0.000 A 
ATOM     22  H   UNL     1      52.303   3.038  18.125  0.00  0.00    +0.000 HD
ENDBRANCH   9  12
ENDBRANCH   7  10
ENDBRANCH   1   7
BRANCH   4  23
ATOM     23  C   UNL     1      44.241   7.768  11.200  0.00  0.00    +0.000 C 
BRANCH  23  24
ATOM     24  C   UNL     1      44.717   9.223  11.351  0.00  0.00    +0.000 C 
BRANCH  24  25
ATOM     25  N   UNL     1      43.819  10.255  10.794  0.00  0.00    +0.000 NA
ATOM     26  C   UNL     1      42.437   9.779  10.620  0.00  0.00    +0.000 C 
ATOM     27  C   UNL     1      41.524  10.873  10.069  0.00  0.00    +0.000 C 
ATOM     28  C   UNL     1      41.525  12.104  10.981  0.00  0.00    +0.000 C 
ATOM     29  C   UNL     1      42.972  12.579  11.145  0.00  0.00    +0.000 C 
ATOM     30  C   UNL     1      43.890  11.460  11.642  0.00  0.00    +0.000 C 
BRANCH  28  31
ATOM     31  C   UNL     1      40.867  11.823  12.345  0.00  0.00    +0.000 C 
BRANCH  31  32
ATOM     32  O   UNL     1      39.672  11.072  12.186  0.00  0.00    +0.000 OA
ATOM     33  H   UNL     1      38.925  11.677  12.329  0.00  0.00    +0.000 HD
ENDBRANCH  31  32
ENDBRANCH  28  31
ENDBRANCH  24  25
ENDBRANCH  23  24
ENDBRANCH   4  23
TORSDOF 8
ENDMDL
MODEL 9
REMARK VINA RESULT:    -5.883      3.559      8.887
REMARK INTER + INTRA:          -9.759
REMARK INTER:                  -8.705
REMARK INTRA:                  -1.054
REMARK UNBOUND:                -1.296
REMARK  Name = 
REMARK  8 active torsions:
REMARK  status: ('A' for Active; 'I' for Inactive)
REMARK    1  A    between atoms: C_2  and  C_21
REMARK    2  A    between atoms: N_3  and  C_4
REMARK    3  A    between atoms: C_4  and  C_5
REMARK    4  A    between atoms: C_8  and  C_9
REMARK    5  A    between atoms: C_9  and  C_10
REMARK    6  A    between atoms: C_10  and  N_11
REMARK    7  A    between atoms: C_14  and  C_15
REMARK    8  A    between atoms: C_15  and  O_16
REMARK                            x       y       z     vdW  Elec       q    Type
REMARK                         _______ _______ _______ _____ _____    ______ ____
ROOT
ATOM      1  C   UNL     1      47.796   5.028  15.826  0.00  0.00    +0.000 A 
ATOM      2  C   UNL     1      48.442   6.221  15.493  0.00  0.00    +0.000 A 
ATOM      3  C   UNL     1      48.287   6.783  14.230  0.00  0.00    +0.000 A 
ATOM      4  C   UNL     1      47.466   6.161  13.279  0.00  0.00    +0.000 A 
ATOM      5  C   UNL     1      46.794   4.980  13.629  0.00  0.00    +0.000 A 
ATOM      6  C   UNL     1      46.957   4.412  14.889  0.00  0.00    +0.000 A 
ENDROOT
BRANCH   1   7
ATOM      7  C   UNL     1      47.991   4.432  17.188  0.00  0.00    +0.000 C 
BRANCH   7  10
ATOM      8  O   UNL     1      49.771   5.539  19.034  0.00  0.00    +0.000 OA
ATOM      9  C   UNL     1      48.580   5.871  19.063  0.00  0.00    +0.000 C 
ATOM     10  N   UNL     1      47.632   5.346  18.231  0.00  0.00    +0.000 N 
ATOM     11  H   UNL     1      46.758   5.837  18.103  0.00  0.00    +0.000 HD
BRANCH   9  12
ATOM     12  C   UNL     1      48.078   6.828  20.036  0.00  0.00    +0.000 A 
ATOM     13  C   UNL     1      47.857   6.504  21.366  0.00  0.00    +0.000 A 
ATOM     14  S   UNL     1      47.290   7.833  22.285  0.00  0.00    +0.000 S 
ATOM     15  C   UNL     1      47.336   8.862  20.930  0.00  0.00    +0.000 A 
ATOM     16  N   UNL     1      46.970  10.171  21.009  0.00  0.00    +0.000 NA
ATOM     17  C   UNL     1      47.069  10.822  19.904  0.00  0.00    +0.000 A 
ATOM     18  N   UNL     1      47.505  10.291  18.712  0.00  0.00    +0.000 N 
ATOM     19  C   UNL     1      47.823   8.980  18.570  0.00  0.00    +0.000 A 
ATOM     20  O   UNL     1      48.061   8.520  17.442  0.00  0.00    +0.000 OA
ATOM     21  C   UNL     1      47.758   8.207  19.791  0.00  0.00    +0.000 A 
ATOM     22  H   UNL     1      47.521  10.845  17.868  0.00  0.00    +0.000 HD
ENDBRANCH   9  12
ENDBRANCH   7  10
ENDBRANCH   1   7
BRANCH   4  23
ATOM     23  C   UNL     1      47.190   6.761  11.921  0.00  0.00    +0.000 C 
BRANCH  23  24
ATOM     24  C   UNL     1      45.773   7.321  11.716  0.00  0.00    +0.000 C 
BRANCH  24  25
ATOM     25  N   UNL     1      44.814   6.420  11.046  0.00  0.00    +0.000 NA
ATOM     26  C   UNL     1      45.473   5.400  10.214  0.00  0.00    +0.000 C 
ATOM     27  C   UNL     1      44.461   4.465   9.554  0.00  0.00    +0.000 C 
ATOM     28  C   UNL     1      43.582   3.774  10.603  0.00  0.00    +0.000 C 
ATOM     29  C   UNL     1      42.909   4.855  11.453  0.00  0.00    +0.000 C 
ATOM     30  C   UNL     1      43.927   5.822  12.062  0.00  0.00    +0.000 C 
BRANCH  28  31
ATOM     31  C   UNL     1      44.379   2.786  11.476  0.00  0.00    +0.000 C 
BRANCH  31  32
ATOM     32  O   UNL     1      43.610   2.361  12.591  0.00  0.00    +0.000 OA
ATOM     33  H   UNL     1      43.145   1.548  12.333  0.00  0.00    +0.000 HD
ENDBRANCH  31  32
ENDBRANCH  28  31
ENDBRANCH  24  25
ENDBRANCH  23  24
ENDBRANCH   4  23
TORSDOF 8
ENDMDL
