MODEL 1
REMARK VINA RESULT:    -7.504      0.000      0.000
REMARK INTER + INTRA:         -10.219
REMARK INTER:                  -9.259
REMARK INTRA:                  -0.960
REMARK UNBOUND:                -0.960
REMARK  Name = 
REMARK  4 active torsions:
REMARK  status: ('A' for Active; 'I' for Inactive)
REMARK    1  A    between atoms: C_5  and  O_6
REMARK    2  A    between atoms: O_6  and  C_7
REMARK    3  A    between atoms: C_7  and  C_8
REMARK    4  A    between atoms: C_12  and  N_13
REMARK                            x       y       z     vdW  Elec       q    Type
REMARK                         _______ _______ _______ _____ _____    ______ ____
ROOT
ATOM      1  C   UNL     1      44.903   4.788  12.184  0.00  0.00    +0.000 A 
ATOM      2  C   UNL     1      45.282   3.591  12.809  0.00  0.00    +0.000 A 
ATOM      3  C   UNL     1      46.492   3.469  13.492  0.00  0.00    +0.000 A 
ATOM      4  C   UNL     1      47.371   4.546  13.542  0.00  0.00    +0.000 A 
ATOM      5  C   UNL     1      47.036   5.772  12.954  0.00  0.00    +0.000 A 
ATOM      6  C   UNL     1      45.775   5.884  12.336  0.00  0.00    +0.000 A 
ENDROOT
BRANCH   5   7
ATOM      7  N   UNL     1      47.971   6.846  12.896  0.00  0.00    +0.000 N 
ATOM      8  C   UNL     1      48.173   7.585  11.747  0.00  0.00    +0.000 C 
ATOM      9  C   UNL     1      49.281   8.503  11.722  0.00  0.00    +0.000 C 
ATOM     10  C   UNL     1      50.062   8.603  12.810  0.00  0.00    +0.000 C 
ATOM     11  N   UNL     1      49.880   7.879  13.969  0.00  0.00    +0.000 NA
ATOM     12  C   UNL     1      48.872   7.055  13.941  0.00  0.00    +0.000 C 
ENDBRANCH   5   7
BRANCH   1  13
ATOM     13  C   UNL     1      43.665   4.883  11.294  0.00  0.00    +0.000 C 
ATOM     14  C   UNL     1      42.374   5.412  11.923  0.00  0.00    +0.000 C 
ATOM     15  C   UNL     1      43.121   6.269  10.962  0.00  0.00    +0.000 C 
BRANCH  13  16
ATOM     16  O   UNL     1      43.436   3.777  10.369  0.00  0.00    +0.000 OA
BRANCH  16  21
ATOM     17 CL   UNL     1      47.514   2.174   6.463  0.00  0.00    +0.000 Cl
ATOM     18  C   UNL     1      46.399   2.664   7.677  0.00  0.00    +0.000 A 
ATOM     19  C   UNL     1      46.087   4.016   7.811  0.00  0.00    +0.000 A 
ATOM     20  C   UNL     1      45.134   4.410   8.748  0.00  0.00    +0.000 A 
ATOM     21  C   UNL     1      44.472   3.459   9.524  0.00  0.00    +0.000 A 
ATOM     22  C   UNL     1      44.836   2.116   9.437  0.00  0.00    +0.000 A 
ATOM     23  C   UNL     1      45.800   1.718   8.504  0.00  0.00    +0.000 A 
ENDBRANCH  16  21
ENDBRANCH  13  16
ENDBRANCH   1  13
TORSDOF 4
ENDMDL
MODEL 2
REMARK VINA RESULT:    -7.480      1.918      2.957
REMARK INTER + INTRA:         -10.189
REMARK INTER:                  -9.721
REMARK INTRA:                  -0.468
REMARK UNBOUND:                -0.960
REMARK  Name = 
REMARK  4 active torsions:
REMARK  status: ('A' for Active; 'I' for Inactive)
REMARK    1  A    between atoms: C_5  and  O_6
REMARK    2  A    between atoms: O_6  and  C_7
REMARK    3  A    between atoms: C_7  and  C_8
REMARK    4  A    between atoms: C_12  and  N_13
REMARK                            x       y       z     vdW  Elec       q    Type
REMARK                         _______ _______ _______ _____ _____    ______ ____
ROOT
ATOM      1  C   UNL     1      45.332   5.350  11.946  0.00  0.00    +0.000 A 
ATOM      2  C   UNL     1      46.067   6.362  11.312  0.00  0.00    +0.000 A 
ATOM      3  C   UNL     1      47.262   6.848  11.844  0.00  0.00    +0.000 A 
ATOM      4  C   UNL     1      47.738   6.345  13.050  0.00  0.00    +0.000 A 
ATOM      5  C   UNL     1      47.057   5.319  13.717  0.00  0.00    +0.000 A 
ATOM      6  C   UNL     1      45.893   4.800  13.115  0.00  0.00    +0.000 A 
ENDROOT
BRANCH   5   7
ATOM      7  N   UNL     1      47.467   4.875  15.008  0.00  0.00    +0.000 N 
ATOM      8  C   UNL     1      48.223   5.664  15.852  0.00  0.00    +0.000 C 
ATOM      9  C   UNL     1      48.766   5.055  17.038  0.00  0.00    +0.000 C 
ATOM     10  C   UNL     1      48.511   3.757  17.271  0.00  0.00    +0.000 C 
ATOM     11  N   UNL     1      47.757   2.949  16.446  0.00  0.00    +0.000 NA
ATOM     12  C   UNL     1      47.297   3.541  15.382  0.00  0.00    +0.000 C 
ENDBRANCH   5   7
BRANCH   1  13
ATOM     13  C   UNL     1      43.944   4.932  11.465  0.00  0.00    +0.000 C 
ATOM     14  C   UNL     1      42.753   5.231  12.379  0.00  0.00    +0.000 C 
ATOM     15  C   UNL     1      42.935   6.029  11.135  0.00  0.00    +0.000 C 
BRANCH  13  16
ATOM     16  O   UNL     1      43.842   3.634  10.805  0.00  0.00    +0.000 OA
BRANCH  16  21
ATOM     17 CL   UNL     1      47.067   2.442   6.048  0.00  0.00    +0.000 Cl
ATOM     18  C   UNL     1      46.214   2.817   7.492  0.00  0.00    +0.000 A 
ATOM     19  C   UNL     1      45.831   4.136   7.735  0.00  0.00    +0.000 A 
ATOM     20  C   UNL     1      45.080   4.433   8.871  0.00  0.00    +0.000 A 
ATOM     21  C   UNL     1      44.687   3.418   9.742  0.00  0.00    +0.000 A 
ATOM     22  C   UNL     1      45.131   2.113   9.534  0.00  0.00    +0.000 A 
ATOM     23  C   UNL     1      45.892   1.812   8.400  0.00  0.00    +0.000 A 
ENDBRANCH  16  21
ENDBRANCH  13  16
ENDBRANCH   1  13
TORSDOF 4
ENDMDL
MODEL 3
REMARK VINA RESULT:    -6.756      3.923      6.646
REMARK INTER + INTRA:          -9.296
REMARK INTER:                  -8.358
REMARK INTRA:                  -0.939
REMARK UNBOUND:                -0.960
REMARK  Name = 
REMARK  4 active torsions:
REMARK  status: ('A' for Active; 'I' for Inactive)
REMARK    1  A    between atoms: C_5  and  O_6
REMARK    2  A    between atoms: O_6  and  C_7
REMARK    3  A    between atoms: C_7  and  C_8
REMARK    4  A    between atoms: C_12  and  N_13
REMARK                            x       y       z     vdW  Elec       q    Type
REMARK                         _______ _______ _______ _____ _____    ______ ____
ROOT
ATOM      1  C   UNL     1      45.180   6.391  12.215  0.00  0.00    +0.000 A 
ATOM      2  C   UNL     1      43.922   6.135  12.780  0.00  0.00    +0.000 A 
ATOM      3  C   UNL     1      43.103   5.104  12.318  0.00  0.00    +0.000 A 
ATOM      4  C   UNL     1      43.517   4.317  11.249  0.00  0.00    +0.000 A 
ATOM      5  C   UNL     1      44.772   4.514  10.658  0.00  0.00    +0.000 A 
ATOM      6  C   UNL     1      45.605   5.514  11.197  0.00  0.00    +0.000 A 
ENDROOT
BRANCH   5   7
ATOM      7  N   UNL     1      45.162   3.795   9.491  0.00  0.00    +0.000 N 
ATOM      8  C   UNL     1      45.224   2.416   9.462  0.00  0.00    +0.000 C 
ATOM      9  C   UNL     1      45.829   1.792   8.316  0.00  0.00    +0.000 C 
ATOM     10  C   UNL     1      46.299   2.572   7.328  0.00  0.00    +0.000 C 
ATOM     11  N   UNL     1      46.246   3.950   7.332  0.00  0.00    +0.000 NA
ATOM     12  C   UNL     1      45.700   4.469   8.393  0.00  0.00    +0.000 C 
ENDBRANCH   5   7
BRANCH   1  13
ATOM     13  C   UNL     1      46.008   7.616  12.598  0.00  0.00    +0.000 C 
ATOM     14  C   UNL     1      47.253   7.392  13.460  0.00  0.00    +0.000 C 
ATOM     15  C   UNL     1      47.415   7.742  12.022  0.00  0.00    +0.000 C 
BRANCH  13  16
ATOM     16  O   UNL     1      45.268   8.819  12.968  0.00  0.00    +0.000 OA
BRANCH  16  21
ATOM     17 CL   UNL     1      44.377  12.381   8.389  0.00  0.00    +0.000 Cl
ATOM     18  C   UNL     1      44.562  11.393   9.783  0.00  0.00    +0.000 A 
ATOM     19  C   UNL     1      43.725  10.290   9.953  0.00  0.00    +0.000 A 
ATOM     20  C   UNL     1      43.916   9.448  11.047  0.00  0.00    +0.000 A 
ATOM     21  C   UNL     1      44.954   9.685  11.948  0.00  0.00    +0.000 A 
ATOM     22  C   UNL     1      45.744  10.826  11.813  0.00  0.00    +0.000 A 
ATOM     23  C   UNL     1      45.549  11.679  10.722  0.00  0.00    +0.000 A 
ENDBRANCH  16  21
ENDBRANCH  13  16
ENDBRANCH   1  13
TORSDOF 4
ENDMDL
MODEL 4
REMARK VINA RESULT:    -6.730      3.668      6.670
REMARK INTER + INTRA:          -9.263
REMARK INTER:                  -8.437
REMARK INTRA:                  -0.826
REMARK UNBOUND:                -0.960
REMARK  Name = 
REMARK  4 active torsions:
REMARK  status: ('A' for Active; 'I' for Inactive)
REMARK    1  A    between atoms: C_5  and  O_6
REMARK    2  A    between atoms: O_6  and  C_7
REMARK    3  A    between atoms: C_7  and  C_8
REMARK    4  A    between atoms: C_12  and  N_13
REMARK                            x       y       z     vdW  Elec       q    Type
REMARK                         _______ _______ _______ _____ _____    ______ ____
ROOT
ATOM      1  C   UNL     1      45.456   6.287  11.895  0.00  0.00    +0.000 A 
ATOM      2  C   UNL     1      44.081   6.412  12.143  0.00  0.00    +0.000 A 
ATOM      3  C   UNL     1      43.137   5.653  11.452  0.00  0.00    +0.000 A 
ATOM      4  C   UNL     1      43.550   4.761  10.468  0.00  0.00    +0.000 A 
ATOM      5  C   UNL     1      44.911   4.580  10.192  0.00  0.00    +0.000 A 
ATOM      6  C   UNL     1      45.843   5.307  10.959  0.00  0.00    +0.000 A 
ENDROOT
BRANCH   5   7
ATOM      7  N   UNL     1      45.345   3.759   9.111  0.00  0.00    +0.000 N 
ATOM      8  C   UNL     1      45.410   2.383   9.211  0.00  0.00    +0.000 C 
ATOM      9  C   UNL     1      46.058   1.659   8.149  0.00  0.00    +0.000 C 
ATOM     10  C   UNL     1      46.561   2.348   7.112  0.00  0.00    +0.000 C 
ATOM     11  N   UNL     1      46.505   3.720   6.986  0.00  0.00    +0.000 NA
ATOM     12  C   UNL     1      45.920   4.331   7.976  0.00  0.00    +0.000 C 
ENDBRANCH   5   7
BRANCH   1  13
ATOM     13  C   UNL     1      46.483   7.228  12.521  0.00  0.00    +0.000 C 
ATOM     14  C   UNL     1      46.631   8.625  11.913  0.00  0.00    +0.000 C 
ATOM     15  C   UNL     1      45.973   8.474  13.240  0.00  0.00    +0.000 C 
BRANCH  13  16
ATOM     16  O   UNL     1      47.760   6.640  12.913  0.00  0.00    +0.000 OA
BRANCH  16  21
ATOM     17 CL   UNL     1      48.269   3.825  18.038  0.00  0.00    +0.000 Cl
ATOM     18  C   UNL     1      48.040   4.708  16.581  0.00  0.00    +0.000 A 
ATOM     19  C   UNL     1      48.689   5.931  16.415  0.00  0.00    +0.000 A 
ATOM     20  C   UNL     1      48.560   6.616  15.208  0.00  0.00    +0.000 A 
ATOM     21  C   UNL     1      47.816   6.072  14.163  0.00  0.00    +0.000 A 
ATOM     22  C   UNL     1      47.112   4.884  14.356  0.00  0.00    +0.000 A 
ATOM     23  C   UNL     1      47.232   4.197  15.569  0.00  0.00    +0.000 A 
ENDBRANCH  16  21
ENDBRANCH  13  16
ENDBRANCH   1  13
TORSDOF 4
ENDMDL
MODEL 5
REMARK VINA RESULT:    -6.720      2.325      2.867
REMARK INTER + INTRA:          -9.252
REMARK INTER:                  -8.762
REMARK INTRA:                  -0.490
REMARK UNBOUND:                -0.960
REMARK  Name = 
REMARK  4 active torsions:
REMARK  status: ('A' for Active; 'I' for Inactive)
REMARK    1  A    between atoms: C_5  and  O_6
REMARK    2  A    between atoms: O_6  and  C_7
REMARK    3  A    between atoms: C_7  and  C_8
REMARK    4  A    between atoms: C_12  and  N_13
REMARK                            x       y       z     vdW  Elec       q    Type
REMARK                         _______ _______ _______ _____ _____    ______ ____
ROOT
ATOM      1  C   UNL     1      45.249   5.907  12.657  0.00  0.00    +0.000 A 
ATOM      2  C   UNL     1      46.421   5.416  13.249  0.00  0.00    +0.000 A 
ATOM      3  C   UNL     1      47.497   6.249  13.554  0.00  0.00    +0.000 A 
ATOM      4  C   UNL     1      47.434   7.604  13.242  0.00  0.00    +0.000 A 
ATOM      5  C   UNL     1      46.280   8.154  12.669  0.00  0.00    +0.000 A 
ATOM      6  C   UNL     1      45.184   7.298  12.444  0.00  0.00    +0.000 A 
ENDROOT
BRANCH   5   7
ATOM      7  N   UNL     1      46.242   9.512  12.240  0.00  0.00    +0.000 N 
ATOM      8  C   UNL     1      45.066  10.131  11.862  0.00  0.00    +0.000 C 
ATOM      9  C   UNL     1      45.156  11.428  11.244  0.00  0.00    +0.000 C 
ATOM     10  C   UNL     1      46.369  11.977  11.069  0.00  0.00    +0.000 C 
ATOM     11  N   UNL     1      47.556  11.381  11.440  0.00  0.00    +0.000 NA
ATOM     12  C   UNL     1      47.425  10.206  11.984  0.00  0.00    +0.000 C 
ENDBRANCH   5   7
BRANCH   1  13
ATOM     13  C   UNL     1      44.137   4.981  12.167  0.00  0.00    +0.000 C 
ATOM     14  C   UNL     1      42.829   4.957  12.961  0.00  0.00    +0.000 C 
ATOM     15  C   UNL     1      42.859   5.614  11.625  0.00  0.00    +0.000 C 
BRANCH  13  16
ATOM     16  O   UNL     1      44.543   3.659  11.699  0.00  0.00    +0.000 OA
BRANCH  16  21
ATOM     17 CL   UNL     1      46.544   3.315   6.192  0.00  0.00    +0.000 Cl
ATOM     18  C   UNL     1      45.859   3.430   7.764  0.00  0.00    +0.000 A 
ATOM     19  C   UNL     1      45.334   2.285   8.364  0.00  0.00    +0.000 A 
ATOM     20  C   UNL     1      44.840   2.360   9.665  0.00  0.00    +0.000 A 
ATOM     21  C   UNL     1      44.897   3.559  10.375  0.00  0.00    +0.000 A 
ATOM     22  C   UNL     1      45.358   4.716   9.747  0.00  0.00    +0.000 A 
ATOM     23  C   UNL     1      45.847   4.647   8.439  0.00  0.00    +0.000 A 
ENDBRANCH  16  21
ENDBRANCH  13  16
ENDBRANCH   1  13
TORSDOF 4
ENDMDL
MODEL 6
REMARK VINA RESULT:    -6.048      4.373      7.791
REMARK INTER + INTRA:          -8.422
REMARK INTER:                  -7.513
REMARK INTRA:                  -0.908
REMARK UNBOUND:                -0.960
REMARK  Name = 
REMARK  4 active torsions:
REMARK  status: ('A' for Active; 'I' for Inactive)
REMARK    1  A    between atoms: C_5  and  O_6
REMARK    2  A    between atoms: O_6  and  C_7
REMARK    3  A    between atoms: C_7  and  C_8
REMARK    4  A    between atoms: C_12  and  N_13
REMARK                            x       y       z     vdW  Elec       q    Type
REMARK                         _______ _______ _______ _____ _____    ______ ____
ROOT
ATOM      1  C   UNL     1      47.608   7.480  13.657  0.00  0.00    +0.000 A 
ATOM      2  C   UNL     1      46.937   8.698  13.472  0.00  0.00    +0.000 A 
ATOM      3  C   UNL     1      45.662   8.759  12.909  0.00  0.00    +0.000 A 
ATOM      4  C   UNL     1      45.036   7.591  12.487  0.00  0.00    +0.000 A 
ATOM      5  C   UNL     1      45.649   6.345  12.665  0.00  0.00    +0.000 A 
ATOM      6  C   UNL     1      46.904   6.312  13.305  0.00  0.00    +0.000 A 
ENDROOT
BRANCH   5   7
ATOM      7  N   UNL     1      45.073   5.153  12.135  0.00  0.00    +0.000 N 
ATOM      8  C   UNL     1      44.735   5.029  10.801  0.00  0.00    +0.000 C 
ATOM      9  C   UNL     1      43.968   3.877  10.405  0.00  0.00    +0.000 C 
ATOM     10  C   UNL     1      43.623   2.978  11.341  0.00  0.00    +0.000 C 
ATOM     11  N   UNL     1      43.951   3.077  12.677  0.00  0.00    +0.000 NA
ATOM     12  C   UNL     1      44.635   4.140  12.989  0.00  0.00    +0.000 C 
ENDBRANCH   5   7
BRANCH   1  13
ATOM     13  C   UNL     1      49.064   7.416  14.114  0.00  0.00    +0.000 C 
ATOM     14  C   UNL     1      50.149   7.706  13.074  0.00  0.00    +0.000 C 
ATOM     15  C   UNL     1      49.869   8.712  14.135  0.00  0.00    +0.000 C 
BRANCH  13  16
ATOM     16  O   UNL     1      49.420   6.330  15.021  0.00  0.00    +0.000 OA
BRANCH  16  21
ATOM     17 CL   UNL     1      47.206   6.030  20.448  0.00  0.00    +0.000 Cl
ATOM     18  C   UNL     1      47.761   6.161  18.826  0.00  0.00    +0.000 A 
ATOM     19  C   UNL     1      48.331   7.358  18.395  0.00  0.00    +0.000 A 
ATOM     20  C   UNL     1      48.844   7.446  17.102  0.00  0.00    +0.000 A 
ATOM     21  C   UNL     1      48.817   6.338  16.256  0.00  0.00    +0.000 A 
ATOM     22  C   UNL     1      48.183   5.166  16.666  0.00  0.00    +0.000 A 
ATOM     23  C   UNL     1      47.660   5.077  17.959  0.00  0.00    +0.000 A 
ENDBRANCH  16  21
ENDBRANCH  13  16
ENDBRANCH   1  13
TORSDOF 4
ENDMDL
MODEL 7
REMARK VINA RESULT:    -5.718      3.226      5.523
REMARK INTER + INTRA:          -8.016
REMARK INTER:                  -7.175
REMARK INTRA:                  -0.841
REMARK UNBOUND:                -0.960
REMARK  Name = 
REMARK  4 active torsions:
REMARK  status: ('A' for Active; 'I' for Inactive)
REMARK    1  A    between atoms: C_5  and  O_6
REMARK    2  A    between atoms: O_6  and  C_7
REMARK    3  A    between atoms: C_7  and  C_8
REMARK    4  A    between atoms: C_12  and  N_13
REMARK                            x       y       z     vdW  Elec       q    Type
REMARK                         _______ _______ _______ _____ _____    ______ ____
ROOT
ATOM      1  C   UNL     1      48.264   7.958  14.188  0.00  0.00    +0.000 A 
ATOM      2  C   UNL     1      48.173   9.091  15.010  0.00  0.00    +0.000 A 
ATOM      3  C   UNL     1      48.415   9.027  16.382  0.00  0.00    +0.000 A 
ATOM      4  C   UNL     1      48.730   7.808  16.973  0.00  0.00    +0.000 A 
ATOM      5  C   UNL     1      48.855   6.647  16.199  0.00  0.00    +0.000 A 
ATOM      6  C   UNL     1      48.678   6.762  14.806  0.00  0.00    +0.000 A 
ENDROOT
BRANCH   5   7
ATOM      7  N   UNL     1      49.063   5.373  16.802  0.00  0.00    +0.000 N 
ATOM      8  C   UNL     1      50.274   5.010  17.359  0.00  0.00    +0.000 C 
ATOM      9  C   UNL     1      50.452   3.637  17.750  0.00  0.00    +0.000 C 
ATOM     10  C   UNL     1      49.438   2.776  17.563  0.00  0.00    +0.000 C 
ATOM     11  N   UNL     1      48.220   3.114  17.014  0.00  0.00    +0.000 NA
ATOM     12  C   UNL     1      48.110   4.363  16.666  0.00  0.00    +0.000 C 
ENDBRANCH   5   7
BRANCH   1  13
ATOM     13  C   UNL     1      47.838   7.983  12.721  0.00  0.00    +0.000 C 
ATOM     14  C   UNL     1      48.600   8.914  11.775  0.00  0.00    +0.000 C 
ATOM     15  C   UNL     1      48.814   7.444  11.679  0.00  0.00    +0.000 C 
BRANCH  13  16
ATOM     16  O   UNL     1      46.404   7.948  12.454  0.00  0.00    +0.000 OA
BRANCH  16  21
ATOM     17 CL   UNL     1      43.651   2.855  11.486  0.00  0.00    +0.000 Cl
ATOM     18  C   UNL     1      44.551   4.296  11.751  0.00  0.00    +0.000 A 
ATOM     19  C   UNL     1      44.898   5.094  10.661  0.00  0.00    +0.000 A 
ATOM     20  C   UNL     1      45.568   6.296  10.878  0.00  0.00    +0.000 A 
ATOM     21  C   UNL     1      45.861   6.717  12.175  0.00  0.00    +0.000 A 
ATOM     22  C   UNL     1      45.575   5.885  13.256  0.00  0.00    +0.000 A 
ATOM     23  C   UNL     1      44.911   4.673  13.042  0.00  0.00    +0.000 A 
ENDBRANCH  16  21
ENDBRANCH  13  16
ENDBRANCH   1  13
TORSDOF 4
ENDMDL
MODEL 8
REMARK VINA RESULT:    -5.539      2.443      3.950
REMARK INTER + INTRA:          -7.794
REMARK INTER:                  -6.954
REMARK INTRA:                  -0.841
REMARK UNBOUND:                -0.960
REMARK  Name = 
REMARK  4 active torsions:
REMARK  status: ('A' for Active; 'I' for Inactive)
REMARK    1  A    between atoms: C_5  and  O_6
REMARK    2  A    between atoms: O_6  and  C_7
REMARK    3  A    between atoms: C_7  and  C_8
REMARK    4  A    between atoms: C_12  and  N_13
REMARK                            x       y       z     vdW  Elec       q    Type
REMARK                         _______ _______ _______ _____ _____    ______ ____
ROOT
ATOM      1  C   UNL     1      47.195   7.531  12.588  0.00  0.00    +0.000 A 
ATOM      2  C   UNL     1      48.094   7.826  11.553  0.00  0.00    +0.000 A 
ATOM      3  C   UNL     1      49.476   7.770  11.740  0.00  0.00    +0.000 A 
ATOM      4  C   UNL     1      49.992   7.441  12.989  0.00  0.00    +0.000 A 
ATOM      5  C   UNL     1      49.142   7.118  14.053  0.00  0.00    +0.000 A 
ATOM      6  C   UNL     1      47.754   7.111  13.810  0.00  0.00    +0.000 A 
ENDROOT
BRANCH   5   7
ATOM      7  N   UNL     1      49.651   6.893  15.366  0.00  0.00    +0.000 N 
ATOM      8  C   UNL     1      50.934   7.253  15.730  0.00  0.00    +0.000 C 
ATOM      9  C   UNL     1      51.426   6.796  17.002  0.00  0.00    +0.000 C 
ATOM     10  C   UNL     1      50.621   6.049  17.776  0.00  0.00    +0.000 C 
ATOM     11  N   UNL     1      49.337   5.680  17.437  0.00  0.00    +0.000 NA
ATOM     12  C   UNL     1      48.940   6.107  16.274  0.00  0.00    +0.000 C 
ENDBRANCH   5   7
BRANCH   1  13
ATOM     13  C   UNL     1      45.690   7.753  12.443  0.00  0.00    +0.000 C 
ATOM     14  C   UNL     1      45.117   9.086  12.930  0.00  0.00    +0.000 C 
ATOM     15  C   UNL     1      45.211   8.823  11.467  0.00  0.00    +0.000 C 
BRANCH  13  16
ATOM     16  O   UNL     1      44.827   6.616  12.750  0.00  0.00    +0.000 OA
BRANCH  16  21
ATOM     17 CL   UNL     1      44.692   1.919   9.232  0.00  0.00    +0.000 Cl
ATOM     18  C   UNL     1      44.840   3.286  10.265  0.00  0.00    +0.000 A 
ATOM     19  C   UNL     1      45.068   4.542   9.705  0.00  0.00    +0.000 A 
ATOM     20  C   UNL     1      45.120   5.662  10.533  0.00  0.00    +0.000 A 
ATOM     21  C   UNL     1      44.914   5.535  11.906  0.00  0.00    +0.000 A 
ATOM     22  C   UNL     1      44.755   4.269  12.470  0.00  0.00    +0.000 A 
ATOM     23  C   UNL     1      44.711   3.142  11.643  0.00  0.00    +0.000 A 
ENDBRANCH  16  21
ENDBRANCH  13  16
ENDBRANCH   1  13
TORSDOF 4
ENDMDL
MODEL 9
REMARK VINA RESULT:    -5.439      4.881      8.310
REMARK INTER + INTRA:          -7.671
REMARK INTER:                  -7.246
REMARK INTRA:                  -0.425
REMARK UNBOUND:                -0.960
REMARK  Name = 
REMARK  4 active torsions:
REMARK  status: ('A' for Active; 'I' for Inactive)
REMARK    1  A    between atoms: C_5  and  O_6
REMARK    2  A    between atoms: O_6  and  C_7
REMARK    3  A    between atoms: C_7  and  C_8
REMARK    4  A    between atoms: C_12  and  N_13
REMARK                            x       y       z     vdW  Elec       q    Type
REMARK                         _______ _______ _______ _____ _____    ______ ____
ROOT
ATOM      1  C   UNL     1      48.777   6.894  14.282  0.00  0.00    +0.000 A 
ATOM      2  C   UNL     1      49.265   7.602  13.173  0.00  0.00    +0.000 A 
ATOM      3  C   UNL     1      48.567   7.651  11.967  0.00  0.00    +0.000 A 
ATOM      4  C   UNL     1      47.366   6.961  11.833  0.00  0.00    +0.000 A 
ATOM      5  C   UNL     1      46.821   6.255  12.912  0.00  0.00    +0.000 A 
ATOM      6  C   UNL     1      47.514   6.288  14.139  0.00  0.00    +0.000 A 
ENDROOT
BRANCH   5   7
ATOM      7  N   UNL     1      45.655   5.450  12.758  0.00  0.00    +0.000 N 
ATOM      8  C   UNL     1      44.381   5.976  12.852  0.00  0.00    +0.000 C 
ATOM      9  C   UNL     1      43.275   5.056  12.895  0.00  0.00    +0.000 C 
ATOM     10  C   UNL     1      43.527   3.738  12.838  0.00  0.00    +0.000 C 
ATOM     11  N   UNL     1      44.788   3.190  12.741  0.00  0.00    +0.000 NA
ATOM     12  C   UNL     1      45.757   4.059  12.716  0.00  0.00    +0.000 C 
ENDBRANCH   5   7
BRANCH   1  13
ATOM     13  C   UNL     1      49.609   6.695  15.547  0.00  0.00    +0.000 C 
ATOM     14  C   UNL     1      51.019   7.291  15.574  0.00  0.00    +0.000 C 
ATOM     15  C   UNL     1      49.946   7.923  16.389  0.00  0.00    +0.000 C 
BRANCH  13  16
ATOM     16  O   UNL     1      49.534   5.382  16.182  0.00  0.00    +0.000 OA
BRANCH  16  21
ATOM     17 CL   UNL     1      47.544   5.625  21.698  0.00  0.00    +0.000 Cl
ATOM     18  C   UNL     1      48.089   5.453  20.077  0.00  0.00    +0.000 A 
ATOM     19  C   UNL     1      47.208   5.717  19.029  0.00  0.00    +0.000 A 
ATOM     20  C   UNL     1      47.666   5.645  17.715  0.00  0.00    +0.000 A 
ATOM     21  C   UNL     1      49.000   5.342  17.448  0.00  0.00    +0.000 A 
ATOM     22  C   UNL     1      49.860   5.011  18.494  0.00  0.00    +0.000 A 
ATOM     23  C   UNL     1      49.402   5.073  19.814  0.00  0.00    +0.000 A 
ENDBRANCH  16  21
ENDBRANCH  13  16
ENDBRANCH   1  13
TORSDOF 4
ENDMDL
