MODEL 1
REMARK VINA RESULT:    -7.708      0.000      0.000
REMARK INTER + INTRA:         -10.329
REMARK INTER:                  -9.511
REMARK INTRA:                  -0.818
REMARK UNBOUND:                -0.818
REMARK  Name = 
REMARK  4 active torsions:
REMARK  status: ('A' for Active; 'I' for Inactive)
REMARK    1  A    between atoms: C_5  and  O_6
REMARK    2  A    between atoms: O_6  and  C_7
REMARK    3  A    between atoms: C_7  and  C_8
REMARK    4  A    between atoms: C_12  and  C_13
REMARK                            x       y       z     vdW  Elec       q    Type
REMARK                         _______ _______ _______ _____ _____    ______ ____
ROOT
ATOM      1  C   UNL     1      45.144   4.729  12.135  0.00  0.00    +0.000 A 
ATOM      2  C   UNL     1      45.507   3.605  12.879  0.00  0.00    +0.000 A 
ATOM      3  C   UNL     1      46.724   3.595  13.539  0.00  0.00    +0.000 A 
ATOM      4  N   UNL     1      47.609   4.615  13.513  0.00  0.00    +0.000 NA
ATOM      5  C   UNL     1      47.265   5.726  12.821  0.00  0.00    +0.000 A 
ATOM      6  C   UNL     1      46.047   5.808  12.141  0.00  0.00    +0.000 A 
ENDROOT
BRANCH   5   7
ATOM      7  C   UNL     1      48.264   6.815  12.798  0.00  0.00    +0.000 A 
ATOM      8  C   UNL     1      49.048   7.094  13.928  0.00  0.00    +0.000 A 
ATOM      9  C   UNL     1      49.997   8.104  13.869  0.00  0.00    +0.000 A 
ATOM     10  N   UNL     1      50.223   8.857  12.774  0.00  0.00    +0.000 NA
ATOM     11  C   UNL     1      49.457   8.594  11.697  0.00  0.00    +0.000 A 
ATOM     12  C   UNL     1      48.486   7.603  11.662  0.00  0.00    +0.000 A 
ENDBRANCH   5   7
BRANCH   1  13
ATOM     13  C   UNL     1      43.854   4.782  11.331  0.00  0.00    +0.000 C 
ATOM     14  C   UNL     1      42.582   5.177  12.084  0.00  0.00    +0.000 C 
ATOM     15  C   UNL     1      43.171   6.112  11.082  0.00  0.00    +0.000 C 
BRANCH  13  16
ATOM     16  O   UNL     1      43.587   3.668  10.447  0.00  0.00    +0.000 OA
BRANCH  16  21
ATOM     17 CL   UNL     1      47.714   2.394   6.537  0.00  0.00    +0.000 Cl
ATOM     18  C   UNL     1      46.454   2.752   7.645  0.00  0.00    +0.000 A 
ATOM     19  C   UNL     1      45.893   1.743   8.422  0.00  0.00    +0.000 A 
ATOM     20  C   UNL     1      44.903   2.078   9.342  0.00  0.00    +0.000 A 
ATOM     21  C   UNL     1      44.502   3.405   9.442  0.00  0.00    +0.000 A 
ATOM     22  N   UNL     1      45.006   4.405   8.686  0.00  0.00    +0.000 NA
ATOM     23  C   UNL     1      45.976   4.048   7.803  0.00  0.00    +0.000 A 
ENDBRANCH  16  21
ENDBRANCH  13  16
ENDBRANCH   1  13
TORSDOF 4
ENDMDL
MODEL 2
REMARK VINA RESULT:    -7.020      1.939      3.164
REMARK INTER + INTRA:          -9.479
REMARK INTER:                  -9.183
REMARK INTRA:                  -0.296
REMARK UNBOUND:                -0.818
REMARK  Name = 
REMARK  4 active torsions:
REMARK  status: ('A' for Active; 'I' for Inactive)
REMARK    1  A    between atoms: C_5  and  O_6
REMARK    2  A    between atoms: O_6  and  C_7
REMARK    3  A    between atoms: C_7  and  C_8
REMARK    4  A    between atoms: C_12  and  C_13
REMARK                            x       y       z     vdW  Elec       q    Type
REMARK                         _______ _______ _______ _____ _____    ______ ____
ROOT
ATOM      1  C   UNL     1      45.471   5.304  12.393  0.00  0.00    +0.000 A 
ATOM      2  C   UNL     1      46.256   6.279  11.776  0.00  0.00    +0.000 A 
ATOM      3  C   UNL     1      47.418   6.707  12.396  0.00  0.00    +0.000 A 
ATOM      4  N   UNL     1      47.857   6.240  13.586  0.00  0.00    +0.000 NA
ATOM      5  C   UNL     1      47.126   5.273  14.189  0.00  0.00    +0.000 A 
ATOM      6  C   UNL     1      45.950   4.789  13.612  0.00  0.00    +0.000 A 
ENDROOT
BRANCH   5   7
ATOM      7  C   UNL     1      47.625   4.800  15.497  0.00  0.00    +0.000 A 
ATOM      8  C   UNL     1      48.438   5.620  16.294  0.00  0.00    +0.000 A 
ATOM      9  C   UNL     1      48.870   5.159  17.529  0.00  0.00    +0.000 A 
ATOM     10  N   UNL     1      48.556   3.947  18.030  0.00  0.00    +0.000 NA
ATOM     11  C   UNL     1      47.786   3.159  17.253  0.00  0.00    +0.000 A 
ATOM     12  C   UNL     1      47.306   3.535  16.006  0.00  0.00    +0.000 A 
ENDBRANCH   5   7
BRANCH   1  13
ATOM     13  C   UNL     1      44.150   4.838  11.802  0.00  0.00    +0.000 C 
ATOM     14  C   UNL     1      42.897   5.037  12.657  0.00  0.00    +0.000 C 
ATOM     15  C   UNL     1      43.090   5.853  11.424  0.00  0.00    +0.000 C 
BRANCH  13  16
ATOM     16  O   UNL     1      44.134   3.528  11.187  0.00  0.00    +0.000 OA
BRANCH  16  21
ATOM     17 CL   UNL     1      47.013   2.729   6.186  0.00  0.00    +0.000 Cl
ATOM     18  C   UNL     1      46.110   2.952   7.628  0.00  0.00    +0.000 A 
ATOM     19  C   UNL     1      45.757   1.858   8.412  0.00  0.00    +0.000 A 
ATOM     20  C   UNL     1      45.062   2.081   9.598  0.00  0.00    +0.000 A 
ATOM     21  C   UNL     1      44.734   3.385   9.949  0.00  0.00    +0.000 A 
ATOM     22  N   UNL     1      45.038   4.467   9.198  0.00  0.00    +0.000 NA
ATOM     23  C   UNL     1      45.723   4.219   8.050  0.00  0.00    +0.000 A 
ENDBRANCH  16  21
ENDBRANCH  13  16
ENDBRANCH   1  13
TORSDOF 4
ENDMDL
MODEL 3
REMARK VINA RESULT:    -6.757      3.179      6.689
REMARK INTER + INTRA:          -9.155
REMARK INTER:                  -8.602
REMARK INTRA:                  -0.553
REMARK UNBOUND:                -0.818
REMARK  Name = 
REMARK  4 active torsions:
REMARK  status: ('A' for Active; 'I' for Inactive)
REMARK    1  A    between atoms: C_5  and  O_6
REMARK    2  A    between atoms: O_6  and  C_7
REMARK    3  A    between atoms: C_7  and  C_8
REMARK    4  A    between atoms: C_12  and  C_13
REMARK                            x       y       z     vdW  Elec       q    Type
REMARK                         _______ _______ _______ _____ _____    ______ ____
ROOT
ATOM      1  C   UNL     1      45.360   6.301  11.597  0.00  0.00    +0.000 A 
ATOM      2  C   UNL     1      43.974   6.295  11.767  0.00  0.00    +0.000 A 
ATOM      3  C   UNL     1      43.202   5.429  11.011  0.00  0.00    +0.000 A 
ATOM      4  N   UNL     1      43.703   4.571  10.096  0.00  0.00    +0.000 NA
ATOM      5  C   UNL     1      45.047   4.540   9.935  0.00  0.00    +0.000 A 
ATOM      6  C   UNL     1      45.884   5.379  10.673  0.00  0.00    +0.000 A 
ENDROOT
BRANCH   5   7
ATOM      7  C   UNL     1      45.558   3.603   8.912  0.00  0.00    +0.000 A 
ATOM      8  C   UNL     1      46.150   4.079   7.733  0.00  0.00    +0.000 A 
ATOM      9  C   UNL     1      46.645   3.176   6.804  0.00  0.00    +0.000 A 
ATOM     10  N   UNL     1      46.595   1.838   6.958  0.00  0.00    +0.000 NA
ATOM     11  C   UNL     1      46.013   1.386   8.087  0.00  0.00    +0.000 A 
ATOM     12  C   UNL     1      45.492   2.212   9.072  0.00  0.00    +0.000 A 
ENDBRANCH   5   7
BRANCH   1  13
ATOM     13  C   UNL     1      46.260   7.273  12.343  0.00  0.00    +0.000 C 
ATOM     14  C   UNL     1      46.302   8.714  11.832  0.00  0.00    +0.000 C 
ATOM     15  C   UNL     1      45.651   8.409  13.139  0.00  0.00    +0.000 C 
BRANCH  13  16
ATOM     16  O   UNL     1      47.595   6.815  12.661  0.00  0.00    +0.000 OA
BRANCH  16  21
ATOM     17 CL   UNL     1      47.952   4.086  17.796  0.00  0.00    +0.000 Cl
ATOM     18  C   UNL     1      47.890   4.848  16.260  0.00  0.00    +0.000 A 
ATOM     19  C   UNL     1      47.052   4.354  15.264  0.00  0.00    +0.000 A 
ATOM     20  C   UNL     1      46.995   5.024  14.045  0.00  0.00    +0.000 A 
ATOM     21  C   UNL     1      47.785   6.152  13.861  0.00  0.00    +0.000 A 
ATOM     22  N   UNL     1      48.629   6.643  14.796  0.00  0.00    +0.000 NA
ATOM     23  C   UNL     1      48.657   5.972  15.979  0.00  0.00    +0.000 A 
ENDBRANCH  16  21
ENDBRANCH  13  16
ENDBRANCH   1  13
TORSDOF 4
ENDMDL
MODEL 4
REMARK VINA RESULT:    -6.607      3.695      6.832
REMARK INTER + INTRA:          -8.970
REMARK INTER:                  -8.359
REMARK INTRA:                  -0.611
REMARK UNBOUND:                -0.818
REMARK  Name = 
REMARK  4 active torsions:
REMARK  status: ('A' for Active; 'I' for Inactive)
REMARK    1  A    between atoms: C_5  and  O_6
REMARK    2  A    between atoms: O_6  and  C_7
REMARK    3  A    between atoms: C_7  and  C_8
REMARK    4  A    between atoms: C_12  and  C_13
REMARK                            x       y       z     vdW  Elec       q    Type
REMARK                         _______ _______ _______ _____ _____    ______ ____
ROOT
ATOM      1  C   UNL     1      45.121   6.237  11.447  0.00  0.00    +0.000 A 
ATOM      2  C   UNL     1      43.762   6.027  11.684  0.00  0.00    +0.000 A 
ATOM      3  C   UNL     1      43.098   5.031  10.986  0.00  0.00    +0.000 A 
ATOM      4  N   UNL     1      43.683   4.231  10.069  0.00  0.00    +0.000 NA
ATOM      5  C   UNL     1      45.008   4.398   9.844  0.00  0.00    +0.000 A 
ATOM      6  C   UNL     1      45.739   5.376  10.521  0.00  0.00    +0.000 A 
ENDROOT
BRANCH   5   7
ATOM      7  C   UNL     1      45.611   3.518   8.821  0.00  0.00    +0.000 A 
ATOM      8  C   UNL     1      46.205   4.057   7.670  0.00  0.00    +0.000 A 
ATOM      9  C   UNL     1      46.787   3.208   6.740  0.00  0.00    +0.000 A 
ATOM     10  N   UNL     1      46.821   1.866   6.868  0.00  0.00    +0.000 NA
ATOM     11  C   UNL     1      46.236   1.354   7.968  0.00  0.00    +0.000 A 
ATOM     12  C   UNL     1      45.632   2.123   8.952  0.00  0.00    +0.000 A 
ENDBRANCH   5   7
BRANCH   1  13
ATOM     13  C   UNL     1      45.896   7.355  12.127  0.00  0.00    +0.000 C 
ATOM     14  C   UNL     1      46.933   6.945  13.175  0.00  0.00    +0.000 C 
ATOM     15  C   UNL     1      47.381   7.512  11.870  0.00  0.00    +0.000 C 
BRANCH  13  16
ATOM     16  O   UNL     1      45.130   8.489  12.597  0.00  0.00    +0.000 OA
BRANCH  16  21
ATOM     17 CL   UNL     1      44.850  12.903   8.804  0.00  0.00    +0.000 Cl
ATOM     18  C   UNL     1      44.890  11.634   9.958  0.00  0.00    +0.000 A 
ATOM     19  C   UNL     1      43.935  10.622   9.924  0.00  0.00    +0.000 A 
ATOM     20  C   UNL     1      44.024   9.586  10.849  0.00  0.00    +0.000 A 
ATOM     21  C   UNL     1      45.054   9.604  11.781  0.00  0.00    +0.000 A 
ATOM     22  N   UNL     1      45.982  10.583  11.860  0.00  0.00    +0.000 NA
ATOM     23  C   UNL     1      45.874  11.578  10.939  0.00  0.00    +0.000 A 
ENDBRANCH  16  21
ENDBRANCH  13  16
ENDBRANCH   1  13
TORSDOF 4
ENDMDL
MODEL 5
REMARK VINA RESULT:    -6.494      1.455      2.245
REMARK INTER + INTRA:          -8.830
REMARK INTER:                  -9.220
REMARK INTRA:                   0.390
REMARK UNBOUND:                -0.818
REMARK  Name = 
REMARK  4 active torsions:
REMARK  status: ('A' for Active; 'I' for Inactive)
REMARK    1  A    between atoms: C_5  and  O_6
REMARK    2  A    between atoms: O_6  and  C_7
REMARK    3  A    between atoms: C_7  and  C_8
REMARK    4  A    between atoms: C_12  and  C_13
REMARK                            x       y       z     vdW  Elec       q    Type
REMARK                         _______ _______ _______ _____ _____    ______ ____
ROOT
ATOM      1  C   UNL     1      44.719   5.426  11.442  0.00  0.00    +0.000 A 
ATOM      2  C   UNL     1      43.879   6.525  11.251  0.00  0.00    +0.000 A 
ATOM      3  C   UNL     1      44.381   7.802  11.443  0.00  0.00    +0.000 A 
ATOM      4  N   UNL     1      45.652   8.068  11.814  0.00  0.00    +0.000 NA
ATOM      5  C   UNL     1      46.491   7.018  11.978  0.00  0.00    +0.000 A 
ATOM      6  C   UNL     1      46.053   5.705  11.789  0.00  0.00    +0.000 A 
ENDROOT
BRANCH   5   7
ATOM      7  C   UNL     1      47.868   7.345  12.402  0.00  0.00    +0.000 A 
ATOM      8  C   UNL     1      48.252   7.232  13.747  0.00  0.00    +0.000 A 
ATOM      9  C   UNL     1      49.559   7.520  14.111  0.00  0.00    +0.000 A 
ATOM     10  N   UNL     1      50.511   7.913  13.240  0.00  0.00    +0.000 NA
ATOM     11  C   UNL     1      50.133   8.032  11.953  0.00  0.00    +0.000 A 
ATOM     12  C   UNL     1      48.851   7.765  11.495  0.00  0.00    +0.000 A 
ENDBRANCH   5   7
BRANCH   1  13
ATOM     13  C   UNL     1      44.217   3.996  11.314  0.00  0.00    +0.000 C 
ATOM     14  C   UNL     1      44.996   2.917  12.069  0.00  0.00    +0.000 C 
ATOM     15  C   UNL     1      43.623   3.292  12.517  0.00  0.00    +0.000 C 
BRANCH  13  16
ATOM     16  O   UNL     1      43.885   3.536   9.983  0.00  0.00    +0.000 OA
BRANCH  16  21
ATOM     17 CL   UNL     1      48.018   2.196   6.101  0.00  0.00    +0.000 Cl
ATOM     18  C   UNL     1      46.847   2.605   7.287  0.00  0.00    +0.000 A 
ATOM     19  C   UNL     1      46.463   3.930   7.469  0.00  0.00    +0.000 A 
ATOM     20  C   UNL     1      45.479   4.219   8.410  0.00  0.00    +0.000 A 
ATOM     21  C   UNL     1      44.924   3.176   9.143  0.00  0.00    +0.000 A 
ATOM     22  N   UNL     1      45.291   1.883   9.011  0.00  0.00    +0.000 NA
ATOM     23  C   UNL     1      46.249   1.631   8.079  0.00  0.00    +0.000 A 
ENDBRANCH  16  21
ENDBRANCH  13  16
ENDBRANCH   1  13
TORSDOF 4
ENDMDL
MODEL 6
REMARK VINA RESULT:    -6.380      1.898      2.499
REMARK INTER + INTRA:          -8.690
REMARK INTER:                  -8.125
REMARK INTRA:                  -0.565
REMARK UNBOUND:                -0.818
REMARK  Name = 
REMARK  4 active torsions:
REMARK  status: ('A' for Active; 'I' for Inactive)
REMARK    1  A    between atoms: C_5  and  O_6
REMARK    2  A    between atoms: O_6  and  C_7
REMARK    3  A    between atoms: C_7  and  C_8
REMARK    4  A    between atoms: C_12  and  C_13
REMARK                            x       y       z     vdW  Elec       q    Type
REMARK                         _______ _______ _______ _____ _____    ______ ____
ROOT
ATOM      1  C   UNL     1      44.758   6.616  12.038  0.00  0.00    +0.000 A 
ATOM      2  C   UNL     1      44.347   7.809  11.442  0.00  0.00    +0.000 A 
ATOM      3  C   UNL     1      45.071   8.967  11.675  0.00  0.00    +0.000 A 
ATOM      4  N   UNL     1      46.170   9.028  12.458  0.00  0.00    +0.000 NA
ATOM      5  C   UNL     1      46.603   7.877  13.023  0.00  0.00    +0.000 A 
ATOM      6  C   UNL     1      45.926   6.672  12.821  0.00  0.00    +0.000 A 
ENDROOT
BRANCH   5   7
ATOM      7  C   UNL     1      47.796   7.984  13.888  0.00  0.00    +0.000 A 
ATOM      8  C   UNL     1      48.377   9.233  14.159  0.00  0.00    +0.000 A 
ATOM      9  C   UNL     1      49.480   9.306  14.996  0.00  0.00    +0.000 A 
ATOM     10  N   UNL     1      50.050   8.233  15.582  0.00  0.00    +0.000 NA
ATOM     11  C   UNL     1      49.496   7.036  15.307  0.00  0.00    +0.000 A 
ATOM     12  C   UNL     1      48.392   6.865  14.484  0.00  0.00    +0.000 A 
ENDBRANCH   5   7
BRANCH   1  13
ATOM     13  C   UNL     1      43.973   5.323  11.880  0.00  0.00    +0.000 C 
ATOM     14  C   UNL     1      42.913   5.020  12.941  0.00  0.00    +0.000 C 
ATOM     15  C   UNL     1      42.494   5.371  11.554  0.00  0.00    +0.000 C 
BRANCH  13  16
ATOM     16  O   UNL     1      44.731   4.129  11.576  0.00  0.00    +0.000 OA
BRANCH  16  21
ATOM     17 CL   UNL     1      46.424   2.830   6.154  0.00  0.00    +0.000 Cl
ATOM     18  C   UNL     1      45.865   3.214   7.730  0.00  0.00    +0.000 A 
ATOM     19  C   UNL     1      45.400   2.212   8.575  0.00  0.00    +0.000 A 
ATOM     20  C   UNL     1      44.995   2.555   9.862  0.00  0.00    +0.000 A 
ATOM     21  C   UNL     1      45.056   3.888  10.252  0.00  0.00    +0.000 A 
ATOM     22  N   UNL     1      45.477   4.890   9.449  0.00  0.00    +0.000 NA
ATOM     23  C   UNL     1      45.873   4.522   8.201  0.00  0.00    +0.000 A 
ENDBRANCH  16  21
ENDBRANCH  13  16
ENDBRANCH   1  13
TORSDOF 4
ENDMDL
MODEL 7
REMARK VINA RESULT:    -5.987      3.865      7.630
REMARK INTER + INTRA:          -8.205
REMARK INTER:                  -7.455
REMARK INTRA:                  -0.750
REMARK UNBOUND:                -0.818
REMARK  Name = 
REMARK  4 active torsions:
REMARK  status: ('A' for Active; 'I' for Inactive)
REMARK    1  A    between atoms: C_5  and  O_6
REMARK    2  A    between atoms: O_6  and  C_7
REMARK    3  A    between atoms: C_7  and  C_8
REMARK    4  A    between atoms: C_12  and  C_13
REMARK                            x       y       z     vdW  Elec       q    Type
REMARK                         _______ _______ _______ _____ _____    ______ ____
ROOT
ATOM      1  C   UNL     1      47.569   7.674  12.486  0.00  0.00    +0.000 A 
ATOM      2  C   UNL     1      46.718   8.774  12.603  0.00  0.00    +0.000 A 
ATOM      3  C   UNL     1      45.366   8.614  12.347  0.00  0.00    +0.000 A 
ATOM      4  N   UNL     1      44.798   7.446  11.979  0.00  0.00    +0.000 NA
ATOM      5  C   UNL     1      45.601   6.359  11.886  0.00  0.00    +0.000 A 
ATOM      6  C   UNL     1      46.971   6.448  12.142  0.00  0.00    +0.000 A 
ENDROOT
BRANCH   5   7
ATOM      7  C   UNL     1      44.949   5.103  11.463  0.00  0.00    +0.000 A 
ATOM      8  C   UNL     1      44.219   4.328  12.378  0.00  0.00    +0.000 A 
ATOM      9  C   UNL     1      43.595   3.167  11.946  0.00  0.00    +0.000 A 
ATOM     10  N   UNL     1      43.644   2.717  10.675  0.00  0.00    +0.000 NA
ATOM     11  C   UNL     1      44.358   3.458   9.805  0.00  0.00    +0.000 A 
ATOM     12  C   UNL     1      45.013   4.633  10.144  0.00  0.00    +0.000 A 
ENDBRANCH   5   7
BRANCH   1  13
ATOM     13  C   UNL     1      49.072   7.792  12.686  0.00  0.00    +0.000 C 
ATOM     14  C   UNL     1      49.938   7.859  11.426  0.00  0.00    +0.000 C 
ATOM     15  C   UNL     1      49.790   9.066  12.290  0.00  0.00    +0.000 C 
BRANCH  13  16
ATOM     16  O   UNL     1      49.674   6.909  13.661  0.00  0.00    +0.000 OA
BRANCH  16  21
ATOM     17 CL   UNL     1      48.083   7.276  19.254  0.00  0.00    +0.000 Cl
ATOM     18  C   UNL     1      48.492   7.185  17.590  0.00  0.00    +0.000 A 
ATOM     19  C   UNL     1      48.876   8.329  16.897  0.00  0.00    +0.000 A 
ATOM     20  C   UNL     1      49.242   8.210  15.559  0.00  0.00    +0.000 A 
ATOM     21  C   UNL     1      49.200   6.957  14.960  0.00  0.00    +0.000 A 
ATOM     22  N   UNL     1      48.807   5.830  15.595  0.00  0.00    +0.000 NA
ATOM     23  C   UNL     1      48.462   5.977  16.902  0.00  0.00    +0.000 A 
ENDBRANCH  16  21
ENDBRANCH  13  16
ENDBRANCH   1  13
TORSDOF 4
ENDMDL
MODEL 8
REMARK VINA RESULT:    -5.947      4.254      7.811
REMARK INTER + INTRA:          -8.155
REMARK INTER:                  -7.631
REMARK INTRA:                  -0.524
REMARK UNBOUND:                -0.818
REMARK  Name = 
REMARK  4 active torsions:
REMARK  status: ('A' for Active; 'I' for Inactive)
REMARK    1  A    between atoms: C_5  and  O_6
REMARK    2  A    between atoms: O_6  and  C_7
REMARK    3  A    between atoms: C_7  and  C_8
REMARK    4  A    between atoms: C_12  and  C_13
REMARK                            x       y       z     vdW  Elec       q    Type
REMARK                         _______ _______ _______ _____ _____    ______ ____
ROOT
ATOM      1  C   UNL     1      47.423   7.377  13.481  0.00  0.00    +0.000 A 
ATOM      2  C   UNL     1      46.723   8.576  13.333  0.00  0.00    +0.000 A 
ATOM      3  C   UNL     1      45.469   8.560  12.745  0.00  0.00    +0.000 A 
ATOM      4  N   UNL     1      44.861   7.443  12.289  0.00  0.00    +0.000 NA
ATOM      5  C   UNL     1      45.510   6.266  12.448  0.00  0.00    +0.000 A 
ATOM      6  C   UNL     1      46.772   6.209  13.043  0.00  0.00    +0.000 A 
ENDROOT
BRANCH   5   7
ATOM      7  C   UNL     1      44.824   5.068  11.921  0.00  0.00    +0.000 A 
ATOM      8  C   UNL     1      44.821   4.787  10.546  0.00  0.00    +0.000 A 
ATOM      9  C   UNL     1      44.192   3.641  10.084  0.00  0.00    +0.000 A 
ATOM     10  N   UNL     1      43.564   2.755  10.884  0.00  0.00    +0.000 NA
ATOM     11  C   UNL     1      43.559   3.037  12.201  0.00  0.00    +0.000 A 
ATOM     12  C   UNL     1      44.163   4.157  12.755  0.00  0.00    +0.000 A 
ENDBRANCH   5   7
BRANCH   1  13
ATOM     13  C   UNL     1      48.830   7.331  14.056  0.00  0.00    +0.000 C 
ATOM     14  C   UNL     1      49.978   7.701  13.114  0.00  0.00    +0.000 C 
ATOM     15  C   UNL     1      49.616   8.614  14.237  0.00  0.00    +0.000 C 
BRANCH  13  16
ATOM     16  O   UNL     1      49.180   6.165  14.837  0.00  0.00    +0.000 OA
BRANCH  16  21
ATOM     17 CL   UNL     1      47.143   5.958  20.292  0.00  0.00    +0.000 Cl
ATOM     18  C   UNL     1      47.797   5.990  18.706  0.00  0.00    +0.000 A 
ATOM     19  C   UNL     1      47.689   4.877  17.878  0.00  0.00    +0.000 A 
ATOM     20  C   UNL     1      48.192   4.955  16.582  0.00  0.00    +0.000 A 
ATOM     21  C   UNL     1      48.797   6.136  16.167  0.00  0.00    +0.000 A 
ATOM     22  N   UNL     1      48.943   7.225  16.952  0.00  0.00    +0.000 NA
ATOM     23  C   UNL     1      48.435   7.122  18.209  0.00  0.00    +0.000 A 
ENDBRANCH  16  21
ENDBRANCH  13  16
ENDBRANCH   1  13
TORSDOF 4
ENDMDL
MODEL 9
REMARK VINA RESULT:    -5.808      4.882      7.992
REMARK INTER + INTRA:          -7.985
REMARK INTER:                  -8.042
REMARK INTRA:                   0.058
REMARK UNBOUND:                -0.818
REMARK  Name = 
REMARK  4 active torsions:
REMARK  status: ('A' for Active; 'I' for Inactive)
REMARK    1  A    between atoms: C_5  and  O_6
REMARK    2  A    between atoms: O_6  and  C_7
REMARK    3  A    between atoms: C_7  and  C_8
REMARK    4  A    between atoms: C_12  and  C_13
REMARK                            x       y       z     vdW  Elec       q    Type
REMARK                         _______ _______ _______ _____ _____    ______ ____
ROOT
ATOM      1  C   UNL     1      47.794   5.210  15.559  0.00  0.00    +0.000 A 
ATOM      2  C   UNL     1      48.521   6.218  14.921  0.00  0.00    +0.000 A 
ATOM      3  C   UNL     1      48.122   6.650  13.667  0.00  0.00    +0.000 A 
ATOM      4  N   UNL     1      47.059   6.154  12.998  0.00  0.00    +0.000 NA
ATOM      5  C   UNL     1      46.324   5.196  13.609  0.00  0.00    +0.000 A 
ATOM      6  C   UNL     1      46.663   4.722  14.879  0.00  0.00    +0.000 A 
ENDROOT
BRANCH   5   7
ATOM      7  C   UNL     1      45.180   4.663  12.840  0.00  0.00    +0.000 A 
ATOM      8  C   UNL     1      45.250   3.402  12.228  0.00  0.00    +0.000 A 
ATOM      9  C   UNL     1      44.150   2.917  11.536  0.00  0.00    +0.000 A 
ATOM     10  N   UNL     1      42.989   3.590  11.405  0.00  0.00    +0.000 NA
ATOM     11  C   UNL     1      42.933   4.806  11.983  0.00  0.00    +0.000 A 
ATOM     12  C   UNL     1      43.980   5.372  12.697  0.00  0.00    +0.000 A 
ENDBRANCH   5   7
BRANCH   1  13
ATOM     13  C   UNL     1      48.215   4.642  16.905  0.00  0.00    +0.000 C 
ATOM     14  C   UNL     1      47.281   4.899  18.090  0.00  0.00    +0.000 C 
ATOM     15  C   UNL     1      47.414   3.520  17.536  0.00  0.00    +0.000 C 
BRANCH  13  16
ATOM     16  O   UNL     1      49.592   4.843  17.300  0.00  0.00    +0.000 OA
BRANCH  16  21
ATOM     17 CL   UNL     1      53.311   0.373  17.667  0.00  0.00    +0.000 Cl
ATOM     18  C   UNL     1      52.193   1.674  17.617  0.00  0.00    +0.000 A 
ATOM     19  C   UNL     1      52.504   2.892  18.214  0.00  0.00    +0.000 A 
ATOM     20  C   UNL     1      51.591   3.938  18.116  0.00  0.00    +0.000 A 
ATOM     21  C   UNL     1      50.397   3.726  17.437  0.00  0.00    +0.000 A 
ATOM     22  N   UNL     1      50.051   2.550  16.869  0.00  0.00    +0.000 NA
ATOM     23  C   UNL     1      50.966   1.549  16.976  0.00  0.00    +0.000 A 
ENDBRANCH  16  21
ENDBRANCH  13  16
ENDBRANCH   1  13
TORSDOF 4
ENDMDL
