MODEL 1
REMARK VINA RESULT:    -5.989      0.000      0.000
REMARK INTER + INTRA:          -7.848
REMARK INTER:                  -7.565
REMARK INTRA:                  -0.283
REMARK UNBOUND:                -0.283
REMARK  Name = 
REMARK  6 active torsions:
REMARK  status: ('A' for Active; 'I' for Inactive)
REMARK    1  A    between atoms: C_1  and  O_2
REMARK    2  A    between atoms: O_2  and  C_3
REMARK    3  A    between atoms: C_7  and  C_8
REMARK    4  A    between atoms: C_9  and  C_10
REMARK    5  A    between atoms: CA_13  and  C_14
REMARK    6  A    between atoms: C_14  and  OXT_16
REMARK                            x       y       z     vdW  Elec       q    Type
REMARK                         _______ _______ _______ _____ _____    ______ ____
ROOT
ATOM      1  C   UNL     1      46.210   4.933  13.834  0.00  0.00    +0.000 C 
ATOM      2  C   UNL     1      47.043   4.052  14.414  0.00  0.00    +0.000 C 
ENDROOT
BRANCH   1   7
ATOM      3  C   UNL     1      44.719   3.672  10.605  0.00  0.00    +0.000 A 
ATOM      4  C   UNL     1      44.946   4.748   9.749  0.00  0.00    +0.000 A 
ATOM      5  C   UNL     1      45.626   5.876  10.209  0.00  0.00    +0.000 A 
ATOM      6  C   UNL     1      46.066   5.941  11.531  0.00  0.00    +0.000 A 
ATOM      7  C   UNL     1      45.814   4.888  12.417  0.00  0.00    +0.000 A 
ATOM      8  C   UNL     1      45.165   3.743  11.929  0.00  0.00    +0.000 A 
BRANCH   3  10
ATOM      9  C   UNL     1      44.535   1.831   9.113  0.00  0.00    +0.000 C 
ATOM     10  O   UNL     1      44.069   2.513  10.272  0.00  0.00    +0.000 OA
ENDBRANCH   3  10
ENDBRANCH   1   7
BRANCH   2  11
ATOM     11  C   UNL     1      47.500   4.159  15.806  0.00  0.00    +0.000 A 
ATOM     12  C   UNL     1      48.145   5.309  16.273  0.00  0.00    +0.000 A 
ATOM     13  N   UNL     1      48.556   5.470  17.559  0.00  0.00    +0.000 NA
ATOM     14  CA  UNL     1      48.282   4.407  18.371  0.00  0.00    +0.000 A 
ATOM     15  C   UNL     1      47.647   3.262  17.928  0.00  0.00    +0.000 A 
ATOM     16  N   UNL     1      47.248   3.117  16.639  0.00  0.00    +0.000 NA
BRANCH  14  17
ATOM     17  C   UNL     1      48.699   4.530  19.789  0.00  0.00    +0.000 C 
ATOM     18  O   UNL     1      49.248   5.506  20.269  0.00  0.00    +0.000 OA
BRANCH  17  19
ATOM     19  OXT UNL     1      48.385   3.407  20.477  0.00  0.00    +0.000 OA
ATOM     20  HXT UNL     1      47.523   3.054  20.152  0.00  0.00    +0.000 HD
ENDBRANCH  17  19
ENDBRANCH  14  17
ENDBRANCH   2  11
TORSDOF 5
ENDMDL
MODEL 2
REMARK VINA RESULT:    -5.876      2.305      8.040
REMARK INTER + INTRA:          -7.704
REMARK INTER:                  -7.394
REMARK INTRA:                  -0.311
REMARK UNBOUND:                -0.283
REMARK  Name = 
REMARK  6 active torsions:
REMARK  status: ('A' for Active; 'I' for Inactive)
REMARK    1  A    between atoms: C_1  and  O_2
REMARK    2  A    between atoms: O_2  and  C_3
REMARK    3  A    between atoms: C_7  and  C_8
REMARK    4  A    between atoms: C_9  and  C_10
REMARK    5  A    between atoms: CA_13  and  C_14
REMARK    6  A    between atoms: C_14  and  OXT_16
REMARK                            x       y       z     vdW  Elec       q    Type
REMARK                         _______ _______ _______ _____ _____    ______ ____
ROOT
ATOM      1  C   UNL     1      46.996   4.175  15.878  0.00  0.00    +0.000 C 
ATOM      2  C   UNL     1      47.205   4.827  14.721  0.00  0.00    +0.000 C 
ENDROOT
BRANCH   1   7
ATOM      3  C   UNL     1      49.992   3.840  18.148  0.00  0.00    +0.000 A 
ATOM      4  C   UNL     1      49.587   4.575  19.262  0.00  0.00    +0.000 A 
ATOM      5  C   UNL     1      48.315   5.148  19.296  0.00  0.00    +0.000 A 
ATOM      6  C   UNL     1      47.450   5.006  18.211  0.00  0.00    +0.000 A 
ATOM      7  C   UNL     1      47.852   4.306  17.069  0.00  0.00    +0.000 A 
ATOM      8  C   UNL     1      49.118   3.699  17.064  0.00  0.00    +0.000 A 
BRANCH   3  10
ATOM      9  C   UNL     1      51.201   1.940  17.392  0.00  0.00    +0.000 C 
ATOM     10  O   UNL     1      51.207   3.228  17.997  0.00  0.00    +0.000 OA
ENDBRANCH   3  10
ENDBRANCH   1   7
BRANCH   2  11
ATOM     11  C   UNL     1      46.396   4.620  13.513  0.00  0.00    +0.000 A 
ATOM     12  C   UNL     1      46.137   5.668  12.623  0.00  0.00    +0.000 A 
ATOM     13  N   UNL     1      45.423   5.520  11.475  0.00  0.00    +0.000 NA
ATOM     14  CA  UNL     1      44.978   4.249  11.254  0.00  0.00    +0.000 A 
ATOM     15  C   UNL     1      45.223   3.200  12.121  0.00  0.00    +0.000 A 
ATOM     16  N   UNL     1      45.933   3.368  13.265  0.00  0.00    +0.000 NA
BRANCH  14  17
ATOM     17  C   UNL     1      44.201   4.025  10.011  0.00  0.00    +0.000 C 
ATOM     18  O   UNL     1      44.226   3.000   9.351  0.00  0.00    +0.000 OA
BRANCH  17  19
ATOM     19  OXT UNL     1      43.460   5.117   9.708  0.00  0.00    +0.000 OA
ATOM     20  HXT UNL     1      43.782   5.886  10.235  0.00  0.00    +0.000 HD
ENDBRANCH  17  19
ENDBRANCH  14  17
ENDBRANCH   2  11
TORSDOF 5
ENDMDL
MODEL 3
REMARK VINA RESULT:    -5.701      2.055      8.317
REMARK INTER + INTRA:          -7.483
REMARK INTER:                  -7.186
REMARK INTRA:                  -0.297
REMARK UNBOUND:                -0.283
REMARK  Name = 
REMARK  6 active torsions:
REMARK  status: ('A' for Active; 'I' for Inactive)
REMARK    1  A    between atoms: C_1  and  O_2
REMARK    2  A    between atoms: O_2  and  C_3
REMARK    3  A    between atoms: C_7  and  C_8
REMARK    4  A    between atoms: C_9  and  C_10
REMARK    5  A    between atoms: CA_13  and  C_14
REMARK    6  A    between atoms: C_14  and  OXT_16
REMARK                            x       y       z     vdW  Elec       q    Type
REMARK                         _______ _______ _______ _____ _____    ______ ____
ROOT
ATOM      1  C   UNL     1      47.108   4.121  15.789  0.00  0.00    +0.000 C 
ATOM      2  C   UNL     1      47.109   4.937  14.721  0.00  0.00    +0.000 C 
ENDROOT
BRANCH   1   7
ATOM      3  C   UNL     1      48.087   5.239  19.258  0.00  0.00    +0.000 A 
ATOM      4  C   UNL     1      49.376   4.721  19.370  0.00  0.00    +0.000 A 
ATOM      5  C   UNL     1      49.951   4.040  18.296  0.00  0.00    +0.000 A 
ATOM      6  C   UNL     1      49.234   3.857  17.114  0.00  0.00    +0.000 A 
ATOM      7  C   UNL     1      47.924   4.336  16.996  0.00  0.00    +0.000 A 
ATOM      8  C   UNL     1      47.374   5.055  18.068  0.00  0.00    +0.000 A 
BRANCH   3  10
ATOM      9  C   UNL     1      47.897   5.772  21.566  0.00  0.00    +0.000 C 
ATOM     10  O   UNL     1      47.418   5.927  20.235  0.00  0.00    +0.000 OA
ENDBRANCH   3  10
ENDBRANCH   1   7
BRANCH   2  11
ATOM     11  C   UNL     1      46.358   4.664  13.488  0.00  0.00    +0.000 A 
ATOM     12  C   UNL     1      46.192   5.646  12.506  0.00  0.00    +0.000 A 
ATOM     13  N   UNL     1      45.535   5.434  11.335  0.00  0.00    +0.000 NA
ATOM     14  CA  UNL     1      45.048   4.167  11.189  0.00  0.00    +0.000 A 
ATOM     15  C   UNL     1      45.201   3.183  12.148  0.00  0.00    +0.000 A 
ATOM     16  N   UNL     1      45.856   3.415  13.314  0.00  0.00    +0.000 NA
BRANCH  14  17
ATOM     17  C   UNL     1      44.330   3.873   9.925  0.00  0.00    +0.000 C 
ATOM     18  O   UNL     1      44.390   2.817   9.321  0.00  0.00    +0.000 OA
BRANCH  17  19
ATOM     19  OXT UNL     1      43.598   4.943   9.532  0.00  0.00    +0.000 OA
ATOM     20  HXT UNL     1      44.196   5.717   9.401  0.00  0.00    +0.000 HD
ENDBRANCH  17  19
ENDBRANCH  14  17
ENDBRANCH   2  11
TORSDOF 5
ENDMDL
MODEL 4
REMARK VINA RESULT:    -5.548      1.657      1.792
REMARK INTER + INTRA:          -7.291
REMARK INTER:                  -7.000
REMARK INTRA:                  -0.291
REMARK UNBOUND:                -0.283
REMARK  Name = 
REMARK  6 active torsions:
REMARK  status: ('A' for Active; 'I' for Inactive)
REMARK    1  A    between atoms: C_1  and  O_2
REMARK    2  A    between atoms: O_2  and  C_3
REMARK    3  A    between atoms: C_7  and  C_8
REMARK    4  A    between atoms: C_9  and  C_10
REMARK    5  A    between atoms: CA_13  and  C_14
REMARK    6  A    between atoms: C_14  and  OXT_16
REMARK                            x       y       z     vdW  Elec       q    Type
REMARK                         _______ _______ _______ _____ _____    ______ ____
ROOT
ATOM      1  C   UNL     1      46.565   4.311  13.706  0.00  0.00    +0.000 C 
ATOM      2  C   UNL     1      46.581   4.640  15.010  0.00  0.00    +0.000 C 
ENDROOT
BRANCH   1   7
ATOM      3  C   UNL     1      44.014   3.488  11.050  0.00  0.00    +0.000 A 
ATOM      4  C   UNL     1      43.112   4.543  11.187  0.00  0.00    +0.000 A 
ATOM      5  C   UNL     1      43.354   5.553  12.118  0.00  0.00    +0.000 A 
ATOM      6  C   UNL     1      44.488   5.504  12.930  0.00  0.00    +0.000 A 
ATOM      7  C   UNL     1      45.384   4.435  12.835  0.00  0.00    +0.000 A 
ATOM      8  C   UNL     1      45.151   3.447  11.865  0.00  0.00    +0.000 A 
BRANCH   3  10
ATOM      9  C   UNL     1      44.951   2.266   9.240  0.00  0.00    +0.000 C 
ATOM     10  O   UNL     1      43.891   2.444  10.173  0.00  0.00    +0.000 OA
ENDBRANCH   3  10
ENDBRANCH   1   7
BRANCH   2  11
ATOM     11  C   UNL     1      47.738   4.429  15.888  0.00  0.00    +0.000 A 
ATOM     12  C   UNL     1      48.437   5.506  16.442  0.00  0.00    +0.000 A 
ATOM     13  N   UNL     1      49.493   5.363  17.287  0.00  0.00    +0.000 NA
ATOM     14  CA  UNL     1      49.818   4.066  17.560  0.00  0.00    +0.000 A 
ATOM     15  C   UNL     1      49.141   2.987  17.022  0.00  0.00    +0.000 A 
ATOM     16  N   UNL     1      48.092   3.150  16.176  0.00  0.00    +0.000 NA
BRANCH  14  17
ATOM     17  C   UNL     1      50.957   3.847  18.485  0.00  0.00    +0.000 C 
ATOM     18  O   UNL     1      52.032   3.373  18.163  0.00  0.00    +0.000 OA
BRANCH  17  19
ATOM     19  OXT UNL     1      50.637   4.248  19.738  0.00  0.00    +0.000 OA
ATOM     20  HXT UNL     1      49.680   4.486  19.770  0.00  0.00    +0.000 HD
ENDBRANCH  17  19
ENDBRANCH  14  17
ENDBRANCH   2  11
TORSDOF 5
ENDMDL
MODEL 5
REMARK VINA RESULT:    -5.197      5.359      7.242
REMARK INTER + INTRA:          -6.846
REMARK INTER:                  -6.536
REMARK INTRA:                  -0.310
REMARK UNBOUND:                -0.283
REMARK  Name = 
REMARK  6 active torsions:
REMARK  status: ('A' for Active; 'I' for Inactive)
REMARK    1  A    between atoms: C_1  and  O_2
REMARK    2  A    between atoms: O_2  and  C_3
REMARK    3  A    between atoms: C_7  and  C_8
REMARK    4  A    between atoms: C_9  and  C_10
REMARK    5  A    between atoms: CA_13  and  C_14
REMARK    6  A    between atoms: C_14  and  OXT_16
REMARK                            x       y       z     vdW  Elec       q    Type
REMARK                         _______ _______ _______ _____ _____    ______ ____
ROOT
ATOM      1  C   UNL     1      49.296   7.458  11.659  0.00  0.00    +0.000 C 
ATOM      2  C   UNL     1      48.857   6.901  12.801  0.00  0.00    +0.000 C 
ENDROOT
BRANCH   1   7
ATOM      3  C   UNL     1      52.748   8.289  10.381  0.00  0.00    +0.000 A 
ATOM      4  C   UNL     1      53.054   9.434  11.116  0.00  0.00    +0.000 A 
ATOM      5  C   UNL     1      52.153   9.916  12.065  0.00  0.00    +0.000 A 
ATOM      6  C   UNL     1      50.934   9.270  12.271  0.00  0.00    +0.000 A 
ATOM      7  C   UNL     1      50.592   8.142  11.517  0.00  0.00    +0.000 A 
ATOM      8  C   UNL     1      51.525   7.643  10.595  0.00  0.00    +0.000 A 
BRANCH   3  10
ATOM      9  C   UNL     1      52.898   6.912   8.450  0.00  0.00    +0.000 C 
ATOM     10  O   UNL     1      53.548   7.717   9.428  0.00  0.00    +0.000 OA
ENDBRANCH   3  10
ENDBRANCH   1   7
BRANCH   2  11
ATOM     11  C   UNL     1      47.526   6.299  12.954  0.00  0.00    +0.000 A 
ATOM     12  C   UNL     1      46.374   6.962  12.519  0.00  0.00    +0.000 A 
ATOM     13  N   UNL     1      45.124   6.434  12.606  0.00  0.00    +0.000 NA
ATOM     14  CA  UNL     1      45.083   5.185  13.157  0.00  0.00    +0.000 A 
ATOM     15  C   UNL     1      46.210   4.514  13.594  0.00  0.00    +0.000 A 
ATOM     16  N   UNL     1      47.449   5.059  13.502  0.00  0.00    +0.000 NA
BRANCH  14  17
ATOM     17  C   UNL     1      43.746   4.553  13.269  0.00  0.00    +0.000 C 
ATOM     18  O   UNL     1      43.537   3.354  13.212  0.00  0.00    +0.000 OA
BRANCH  17  19
ATOM     19  OXT UNL     1      42.787   5.494  13.443  0.00  0.00    +0.000 OA
ATOM     20  HXT UNL     1      42.230   5.252  14.221  0.00  0.00    +0.000 HD
ENDBRANCH  17  19
ENDBRANCH  14  17
ENDBRANCH   2  11
TORSDOF 5
ENDMDL
MODEL 6
REMARK VINA RESULT:    -5.168      5.268      6.980
REMARK INTER + INTRA:          -6.810
REMARK INTER:                  -6.496
REMARK INTRA:                  -0.314
REMARK UNBOUND:                -0.283
REMARK  Name = 
REMARK  6 active torsions:
REMARK  status: ('A' for Active; 'I' for Inactive)
REMARK    1  A    between atoms: C_1  and  O_2
REMARK    2  A    between atoms: O_2  and  C_3
REMARK    3  A    between atoms: C_7  and  C_8
REMARK    4  A    between atoms: C_9  and  C_10
REMARK    5  A    between atoms: CA_13  and  C_14
REMARK    6  A    between atoms: C_14  and  OXT_16
REMARK                            x       y       z     vdW  Elec       q    Type
REMARK                         _______ _______ _______ _____ _____    ______ ____
ROOT
ATOM      1  C   UNL     1      44.059   8.920  11.043  0.00  0.00    +0.000 C 
ATOM      2  C   UNL     1      45.035   8.691  11.938  0.00  0.00    +0.000 C 
ENDROOT
BRANCH   1   7
ATOM      3  C   UNL     1      41.736  11.679   9.930  0.00  0.00    +0.000 A 
ATOM      4  C   UNL     1      42.573  12.793   9.987  0.00  0.00    +0.000 A 
ATOM      5  C   UNL     1      43.912  12.644  10.348  0.00  0.00    +0.000 A 
ATOM      6  C   UNL     1      44.418  11.384  10.672  0.00  0.00    +0.000 A 
ATOM      7  C   UNL     1      43.586  10.260  10.658  0.00  0.00    +0.000 A 
ATOM      8  C   UNL     1      42.251  10.418  10.253  0.00  0.00    +0.000 A 
BRANCH   3  10
ATOM      9  C   UNL     1      39.541  10.885  10.372  0.00  0.00    +0.000 C 
ATOM     10  O   UNL     1      40.411  11.694   9.588  0.00  0.00    +0.000 OA
ENDBRANCH   3  10
ENDBRANCH   1   7
BRANCH   2  11
ATOM     11  C   UNL     1      45.437   7.349  12.379  0.00  0.00    +0.000 A 
ATOM     12  C   UNL     1      44.499   6.323  12.531  0.00  0.00    +0.000 A 
ATOM     13  N   UNL     1      44.824   5.056  12.904  0.00  0.00    +0.000 NA
ATOM     14  CA  UNL     1      46.159   4.861  13.116  0.00  0.00    +0.000 A 
ATOM     15  C   UNL     1      47.101   5.863  12.972  0.00  0.00    +0.000 A 
ATOM     16  N   UNL     1      46.757   7.123  12.604  0.00  0.00    +0.000 NA
BRANCH  14  17
ATOM     17  C   UNL     1      46.575   3.495  13.516  0.00  0.00    +0.000 C 
ATOM     18  O   UNL     1      47.457   3.245  14.317  0.00  0.00    +0.000 OA
BRANCH  17  19
ATOM     19  OXT UNL     1      45.838   2.563  12.866  0.00  0.00    +0.000 OA
ATOM     20  HXT UNL     1      45.857   2.750  11.897  0.00  0.00    +0.000 HD
ENDBRANCH  17  19
ENDBRANCH  14  17
ENDBRANCH   2  11
TORSDOF 5
ENDMDL
MODEL 7
REMARK VINA RESULT:    -4.916      5.341      7.715
REMARK INTER + INTRA:          -6.492
REMARK INTER:                  -6.190
REMARK INTRA:                  -0.303
REMARK UNBOUND:                -0.283
REMARK  Name = 
REMARK  6 active torsions:
REMARK  status: ('A' for Active; 'I' for Inactive)
REMARK    1  A    between atoms: C_1  and  O_2
REMARK    2  A    between atoms: O_2  and  C_3
REMARK    3  A    between atoms: C_7  and  C_8
REMARK    4  A    between atoms: C_9  and  C_10
REMARK    5  A    between atoms: CA_13  and  C_14
REMARK    6  A    between atoms: C_14  and  OXT_16
REMARK                            x       y       z     vdW  Elec       q    Type
REMARK                         _______ _______ _______ _____ _____    ______ ____
ROOT
ATOM      1  C   UNL     1      49.302   7.332  11.678  0.00  0.00    +0.000 C 
ATOM      2  C   UNL     1      48.131   7.799  12.144  0.00  0.00    +0.000 C 
ENDROOT
BRANCH   1   7
ATOM      3  C   UNL     1      51.527  10.373  11.468  0.00  0.00    +0.000 A 
ATOM      4  C   UNL     1      52.657   9.854  10.839  0.00  0.00    +0.000 A 
ATOM      5  C   UNL     1      52.684   8.517  10.440  0.00  0.00    +0.000 A 
ATOM      6  C   UNL     1      51.588   7.688  10.685  0.00  0.00    +0.000 A 
ATOM      7  C   UNL     1      50.460   8.180  11.349  0.00  0.00    +0.000 A 
ATOM      8  C   UNL     1      50.430   9.537  11.707  0.00  0.00    +0.000 A 
BRANCH   3  10
ATOM      9  C   UNL     1      50.116  12.276  11.658  0.00  0.00    +0.000 C 
ATOM     10  O   UNL     1      51.378  11.663  11.901  0.00  0.00    +0.000 OA
ENDBRANCH   3  10
ENDBRANCH   1   7
BRANCH   2  11
ATOM     11  C   UNL     1      46.955   6.953  12.384  0.00  0.00    +0.000 A 
ATOM     12  C   UNL     1      47.009   5.864  13.261  0.00  0.00    +0.000 A 
ATOM     13  N   UNL     1      45.940   5.072  13.542  0.00  0.00    +0.000 NA
ATOM     14  CA  UNL     1      44.793   5.431  12.895  0.00  0.00    +0.000 A 
ATOM     15  C   UNL     1      44.720   6.502  12.025  0.00  0.00    +0.000 A 
ATOM     16  N   UNL     1      45.798   7.279  11.752  0.00  0.00    +0.000 NA
BRANCH  14  17
ATOM     17  C   UNL     1      43.590   4.608  13.171  0.00  0.00    +0.000 C 
ATOM     18  O   UNL     1      43.572   3.390  13.191  0.00  0.00    +0.000 OA
BRANCH  17  19
ATOM     19  OXT UNL     1      42.514   5.397  13.398  0.00  0.00    +0.000 OA
ATOM     20  HXT UNL     1      42.804   6.338  13.451  0.00  0.00    +0.000 HD
ENDBRANCH  17  19
ENDBRANCH  14  17
ENDBRANCH   2  11
TORSDOF 5
ENDMDL
MODEL 8
REMARK VINA RESULT:    -4.882      4.231      7.971
REMARK INTER + INTRA:          -6.449
REMARK INTER:                  -6.135
REMARK INTRA:                  -0.314
REMARK UNBOUND:                -0.283
REMARK  Name = 
REMARK  6 active torsions:
REMARK  status: ('A' for Active; 'I' for Inactive)
REMARK    1  A    between atoms: C_1  and  O_2
REMARK    2  A    between atoms: O_2  and  C_3
REMARK    3  A    between atoms: C_7  and  C_8
REMARK    4  A    between atoms: C_9  and  C_10
REMARK    5  A    between atoms: CA_13  and  C_14
REMARK    6  A    between atoms: C_14  and  OXT_16
REMARK                            x       y       z     vdW  Elec       q    Type
REMARK                         _______ _______ _______ _____ _____    ______ ____
ROOT
ATOM      1  C   UNL     1      48.044   7.662  11.913  0.00  0.00    +0.000 C 
ATOM      2  C   UNL     1      46.951   7.169  12.521  0.00  0.00    +0.000 C 
ENDROOT
BRANCH   1   7
ATOM      3  C   UNL     1      49.248  10.469  14.130  0.00  0.00    +0.000 A 
ATOM      4  C   UNL     1      50.138  11.133  13.287  0.00  0.00    +0.000 A 
ATOM      5  C   UNL     1      50.317  10.695  11.974  0.00  0.00    +0.000 A 
ATOM      6  C   UNL     1      49.624   9.579  11.504  0.00  0.00    +0.000 A 
ATOM      7  C   UNL     1      48.757   8.875  12.346  0.00  0.00    +0.000 A 
ATOM      8  C   UNL     1      48.554   9.352  13.650  0.00  0.00    +0.000 A 
BRANCH   3  10
ATOM      9  C   UNL     1      48.799   9.724  16.341  0.00  0.00    +0.000 C 
ATOM     10  O   UNL     1      48.983  10.803  15.431  0.00  0.00    +0.000 OA
ENDBRANCH   3  10
ENDBRANCH   1   7
BRANCH   2  11
ATOM     11  C   UNL     1      46.198   6.009  12.027  0.00  0.00    +0.000 A 
ATOM     12  C   UNL     1      45.910   4.922  12.859  0.00  0.00    +0.000 A 
ATOM     13  N   UNL     1      45.188   3.841  12.459  0.00  0.00    +0.000 NA
ATOM     14  CA  UNL     1      44.757   3.903  11.165  0.00  0.00    +0.000 A 
ATOM     15  C   UNL     1      45.033   4.968  10.328  0.00  0.00    +0.000 A 
ATOM     16  N   UNL     1      45.760   6.037  10.743  0.00  0.00    +0.000 NA
BRANCH  14  17
ATOM     17  C   UNL     1      43.956   2.756  10.676  0.00  0.00    +0.000 C 
ATOM     18  O   UNL     1      44.215   2.102   9.682  0.00  0.00    +0.000 OA
BRANCH  17  19
ATOM     19  OXT UNL     1      42.895   2.534  11.488  0.00  0.00    +0.000 OA
ATOM     20  HXT UNL     1      42.496   3.399  11.748  0.00  0.00    +0.000 HD
ENDBRANCH  17  19
ENDBRANCH  14  17
ENDBRANCH   2  11
TORSDOF 5
ENDMDL
MODEL 9
REMARK VINA RESULT:    -4.619      5.375      7.224
REMARK INTER + INTRA:          -6.117
REMARK INTER:                  -5.798
REMARK INTRA:                  -0.319
REMARK UNBOUND:                -0.283
REMARK  Name = 
REMARK  6 active torsions:
REMARK  status: ('A' for Active; 'I' for Inactive)
REMARK    1  A    between atoms: C_1  and  O_2
REMARK    2  A    between atoms: O_2  and  C_3
REMARK    3  A    between atoms: C_7  and  C_8
REMARK    4  A    between atoms: C_9  and  C_10
REMARK    5  A    between atoms: CA_13  and  C_14
REMARK    6  A    between atoms: C_14  and  OXT_16
REMARK                            x       y       z     vdW  Elec       q    Type
REMARK                         _______ _______ _______ _____ _____    ______ ____
ROOT
ATOM      1  C   UNL     1      43.405   8.984  10.985  0.00  0.00    +0.000 C 
ATOM      2  C   UNL     1      44.703   8.725  11.222  0.00  0.00    +0.000 C 
ENDROOT
BRANCH   1   7
ATOM      3  C   UNL     1      43.069  12.027   8.778  0.00  0.00    +0.000 A 
ATOM      4  C   UNL     1      41.951  12.652   9.327  0.00  0.00    +0.000 A 
ATOM      5  C   UNL     1      41.325  12.107  10.448  0.00  0.00    +0.000 A 
ATOM      6  C   UNL     1      41.801  10.925  11.015  0.00  0.00    +0.000 A 
ATOM      7  C   UNL     1      42.899  10.261  10.456  0.00  0.00    +0.000 A 
ATOM      8  C   UNL     1      43.544  10.843   9.354  0.00  0.00    +0.000 A 
BRANCH   3  10
ATOM      9  C   UNL     1      44.868  11.658   7.270  0.00  0.00    +0.000 C 
ATOM     10  O   UNL     1      43.771  12.463   7.687  0.00  0.00    +0.000 OA
ENDBRANCH   3  10
ENDBRANCH   1   7
BRANCH   2  11
ATOM     11  C   UNL     1      45.187   7.480  11.833  0.00  0.00    +0.000 A 
ATOM     12  C   UNL     1      44.359   6.359  11.950  0.00  0.00    +0.000 A 
ATOM     13  N   UNL     1      44.769   5.174  12.476  0.00  0.00    +0.000 NA
ATOM     14  CA  UNL     1      46.072   5.163  12.882  0.00  0.00    +0.000 A 
ATOM     15  C   UNL     1      46.905   6.261  12.776  0.00  0.00    +0.000 A 
ATOM     16  N   UNL     1      46.477   7.438  12.252  0.00  0.00    +0.000 NA
BRANCH  14  17
ATOM     17  C   UNL     1      46.578   3.893  13.456  0.00  0.00    +0.000 C 
ATOM     18  O   UNL     1      47.492   3.808  14.257  0.00  0.00    +0.000 OA
BRANCH  17  19
ATOM     19  OXT UNL     1      45.885   2.838  12.966  0.00  0.00    +0.000 OA
ATOM     20  HXT UNL     1      45.465   2.348  13.713  0.00  0.00    +0.000 HD
ENDBRANCH  17  19
ENDBRANCH  14  17
ENDBRANCH   2  11
TORSDOF 5
ENDMDL
