MODEL 1
REMARK VINA RESULT:    -8.225      0.000      0.000
REMARK INTER + INTRA:         -12.420
REMARK INTER:                 -11.591
REMARK INTRA:                  -0.829
REMARK UNBOUND:                -0.829
REMARK  Name = 
REMARK  7 active torsions:
REMARK  status: ('A' for Active; 'I' for Inactive)
REMARK    1  A    between atoms: C_2  and  C_20
REMARK    2  A    between atoms: N_3  and  C_4
REMARK    3  A    between atoms: C_4  and  C_5
REMARK    4  A    between atoms: C_8  and  C_9
REMARK    5  A    between atoms: C_9  and  N_10
REMARK    6  A    between atoms: N_10  and  C_11
REMARK    7  A    between atoms: C_11  and  C_12
REMARK                            x       y       z     vdW  Elec       q    Type
REMARK                         _______ _______ _______ _____ _____    ______ ____
ROOT
ATOM      1  C   UNL     1      46.839   5.842  13.103  0.00  0.00    +0.000 A 
ATOM      2  C   UNL     1      45.838   4.982  13.565  0.00  0.00    +0.000 A 
ATOM      3  C   UNL     1      44.750   4.658  12.750  0.00  0.00    +0.000 A 
ATOM      4  C   UNL     1      44.630   5.196  11.460  0.00  0.00    +0.000 A 
ATOM      5  C   UNL     1      45.655   6.028  10.987  0.00  0.00    +0.000 A 
ATOM      6  C   UNL     1      46.749   6.346  11.799  0.00  0.00    +0.000 A 
ENDROOT
BRANCH   1   7
ATOM      7  C   UNL     1      47.984   6.223  13.996  0.00  0.00    +0.000 C 
BRANCH   7  10
ATOM      8  O   UNL     1      49.930   6.315  15.968  0.00  0.00    +0.000 OA
ATOM      9  C   UNL     1      48.803   5.934  16.277  0.00  0.00    +0.000 C 
ATOM     10  N   UNL     1      47.773   5.851  15.368  0.00  0.00    +0.000 N 
ATOM     11  H   UNL     1      46.869   5.531  15.706  0.00  0.00    +0.000 HD
BRANCH   9  12
ATOM     12  C   UNL     1      48.449   5.540  17.648  0.00  0.00    +0.000 A 
ATOM     13  N   UNL     1      48.361   4.244  18.030  0.00  0.00    +0.000 NA
ATOM     14  N   UNL     1      48.025   4.324  19.338  0.00  0.00    +0.000 N 
ATOM     15  C   UNL     1      47.882   5.598  19.801  0.00  0.00    +0.000 A 
ATOM     16  N   UNL     1      47.543   5.958  21.055  0.00  0.00    +0.000 NA
ATOM     17  C   UNL     1      47.476   7.303  21.207  0.00  0.00    +0.000 A 
ATOM     18  C   UNL     1      47.719   8.247  20.216  0.00  0.00    +0.000 A 
ATOM     19  C   UNL     1      48.069   7.811  18.937  0.00  0.00    +0.000 A 
ATOM     20  C   UNL     1      48.151   6.425  18.726  0.00  0.00    +0.000 A 
ATOM     21  H   UNL     1      47.904   3.473  19.873  0.00  0.00    +0.000 HD
ENDBRANCH   9  12
ENDBRANCH   7  10
ENDBRANCH   1   7
BRANCH   4  22
ATOM     22  C   UNL     1      43.465   4.843  10.557  0.00  0.00    +0.000 C 
BRANCH  22  23
ATOM     23  N   UNL     1      43.911   4.214   9.313  0.00  0.00    +0.000 NA
ATOM     24  H   UNL     1      44.693   4.763   8.956  0.00  0.00    +0.000 HD
BRANCH  23  25
ATOM     25  C   UNL     1      44.389   2.841   9.535  0.00  0.00    +0.000 C 
BRANCH  25  26
ATOM     26  C   UNL     1      45.700   2.588   8.740  0.00  0.00    +0.000 C 
ATOM     27  C   UNL     1      45.776   3.510   7.515  0.00  0.00    +0.000 C 
ATOM     28  C   UNL     1      47.037   3.239   6.698  0.00  0.00    +0.000 C 
ATOM     29  C   UNL     1      47.143   1.758   6.355  0.00  0.00    +0.000 C 
ATOM     30  C   UNL     1      47.033   0.896   7.608  0.00  0.00    +0.000 C 
ATOM     31  N   UNL     1      45.798   1.166   8.344  0.00  0.00    +0.000 NA
ATOM     32  H   UNL     1      45.815   0.612   9.202  0.00  0.00    +0.000 HD
ENDBRANCH  25  26
ENDBRANCH  23  25
ENDBRANCH  22  23
ENDBRANCH   4  22
TORSDOF 7
ENDMDL
MODEL 2
REMARK VINA RESULT:    -7.970      1.786      2.419
REMARK INTER + INTRA:         -12.060
REMARK INTER:                 -10.922
REMARK INTRA:                  -1.138
REMARK UNBOUND:                -0.829
REMARK  Name = 
REMARK  7 active torsions:
REMARK  status: ('A' for Active; 'I' for Inactive)
REMARK    1  A    between atoms: C_2  and  C_20
REMARK    2  A    between atoms: N_3  and  C_4
REMARK    3  A    between atoms: C_4  and  C_5
REMARK    4  A    between atoms: C_8  and  C_9
REMARK    5  A    between atoms: C_9  and  N_10
REMARK    6  A    between atoms: N_10  and  C_11
REMARK    7  A    between atoms: C_11  and  C_12
REMARK                            x       y       z     vdW  Elec       q    Type
REMARK                         _______ _______ _______ _____ _____    ______ ____
ROOT
ATOM      1  C   UNL     1      46.978   6.292  12.277  0.00  0.00    +0.000 A 
ATOM      2  C   UNL     1      46.463   6.546  11.002  0.00  0.00    +0.000 A 
ATOM      3  C   UNL     1      45.338   5.858  10.543  0.00  0.00    +0.000 A 
ATOM      4  C   UNL     1      44.707   4.891  11.340  0.00  0.00    +0.000 A 
ATOM      5  C   UNL     1      45.205   4.667  12.632  0.00  0.00    +0.000 A 
ATOM      6  C   UNL     1      46.327   5.361  13.096  0.00  0.00    +0.000 A 
ENDROOT
BRANCH   1   7
ATOM      7  C   UNL     1      48.215   7.001  12.752  0.00  0.00    +0.000 C 
BRANCH   7  10
ATOM      8  O   UNL     1      48.203   8.409  15.139  0.00  0.00    +0.000 OA
ATOM      9  C   UNL     1      48.656   7.267  15.137  0.00  0.00    +0.000 C 
ATOM     10  N   UNL     1      48.708   6.490  14.001  0.00  0.00    +0.000 N 
ATOM     11  H   UNL     1      49.093   5.554  14.086  0.00  0.00    +0.000 HD
BRANCH   9  12
ATOM     12  C   UNL     1      49.178   6.620  16.350  0.00  0.00    +0.000 A 
ATOM     13  N   UNL     1      50.209   7.135  17.060  0.00  0.00    +0.000 NA
ATOM     14  N   UNL     1      50.361   6.254  18.076  0.00  0.00    +0.000 N 
ATOM     15  C   UNL     1      49.493   5.204  18.039  0.00  0.00    +0.000 A 
ATOM     16  N   UNL     1      49.437   4.185  18.920  0.00  0.00    +0.000 NA
ATOM     17  C   UNL     1      48.467   3.289  18.613  0.00  0.00    +0.000 A 
ATOM     18  C   UNL     1      47.602   3.366  17.527  0.00  0.00    +0.000 A 
ATOM     19  C   UNL     1      47.709   4.448  16.652  0.00  0.00    +0.000 A 
ATOM     20  C   UNL     1      48.700   5.406  16.925  0.00  0.00    +0.000 A 
ATOM     21  H   UNL     1      51.079   6.418  18.771  0.00  0.00    +0.000 HD
ENDBRANCH   9  12
ENDBRANCH   7  10
ENDBRANCH   1   7
BRANCH   4  22
ATOM     22  C   UNL     1      43.476   4.147  10.864  0.00  0.00    +0.000 C 
BRANCH  22  23
ATOM     23  N   UNL     1      43.709   3.473   9.585  0.00  0.00    +0.000 NA
ATOM     24  H   UNL     1      44.170   4.140   8.967  0.00  0.00    +0.000 HD
BRANCH  23  25
ATOM     25  C   UNL     1      44.595   2.309   9.733  0.00  0.00    +0.000 C 
BRANCH  25  26
ATOM     26  C   UNL     1      45.805   2.421   8.766  0.00  0.00    +0.000 C 
ATOM     27  C   UNL     1      45.519   3.445   7.659  0.00  0.00    +0.000 C 
ATOM     28  C   UNL     1      46.681   3.532   6.674  0.00  0.00    +0.000 C 
ATOM     29  C   UNL     1      47.039   2.147   6.146  0.00  0.00    +0.000 C 
ATOM     30  C   UNL     1      47.284   1.171   7.292  0.00  0.00    +0.000 C 
ATOM     31  N   UNL     1      46.136   1.097   8.195  0.00  0.00    +0.000 NA
ATOM     32  H   UNL     1      46.385   0.485   8.973  0.00  0.00    +0.000 HD
ENDBRANCH  25  26
ENDBRANCH  23  25
ENDBRANCH  22  23
ENDBRANCH   4  22
TORSDOF 7
ENDMDL
MODEL 3
REMARK VINA RESULT:    -7.420      2.610      9.395
REMARK INTER + INTRA:         -11.286
REMARK INTER:                 -10.415
REMARK INTRA:                  -0.871
REMARK UNBOUND:                -0.829
REMARK  Name = 
REMARK  7 active torsions:
REMARK  status: ('A' for Active; 'I' for Inactive)
REMARK    1  A    between atoms: C_2  and  C_20
REMARK    2  A    between atoms: N_3  and  C_4
REMARK    3  A    between atoms: C_4  and  C_5
REMARK    4  A    between atoms: C_8  and  C_9
REMARK    5  A    between atoms: C_9  and  N_10
REMARK    6  A    between atoms: N_10  and  C_11
REMARK    7  A    between atoms: C_11  and  C_12
REMARK                            x       y       z     vdW  Elec       q    Type
REMARK                         _______ _______ _______ _____ _____    ______ ____
ROOT
ATOM      1  C   UNL     1      46.222   7.192  12.203  0.00  0.00    +0.000 A 
ATOM      2  C   UNL     1      47.401   6.449  12.314  0.00  0.00    +0.000 A 
ATOM      3  C   UNL     1      48.407   6.845  13.197  0.00  0.00    +0.000 A 
ATOM      4  C   UNL     1      48.265   8.000  13.982  0.00  0.00    +0.000 A 
ATOM      5  C   UNL     1      47.066   8.720  13.895  0.00  0.00    +0.000 A 
ATOM      6  C   UNL     1      46.054   8.321  13.016  0.00  0.00    +0.000 A 
ENDROOT
BRANCH   1   7
ATOM      7  C   UNL     1      45.160   6.789  11.219  0.00  0.00    +0.000 C 
BRANCH   7  10
ATOM      8  O   UNL     1      43.146   5.125  10.295  0.00  0.00    +0.000 OA
ATOM      9  C   UNL     1      44.306   4.727  10.233  0.00  0.00    +0.000 C 
ATOM     10  N   UNL     1      45.374   5.478  10.670  0.00  0.00    +0.000 N 
ATOM     11  H   UNL     1      46.303   5.077  10.579  0.00  0.00    +0.000 HD
BRANCH   9  12
ATOM     12  C   UNL     1      44.664   3.412   9.679  0.00  0.00    +0.000 A 
ATOM     13  N   UNL     1      44.107   2.262  10.124  0.00  0.00    +0.000 NA
ATOM     14  N   UNL     1      44.696   1.312   9.362  0.00  0.00    +0.000 N 
ATOM     15  C   UNL     1      45.605   1.797   8.469  0.00  0.00    +0.000 A 
ATOM     16  N   UNL     1      46.338   1.070   7.602  0.00  0.00    +0.000 NA
ATOM     17  C   UNL     1      47.159   1.839   6.847  0.00  0.00    +0.000 A 
ATOM     18  C   UNL     1      47.271   3.223   6.918  0.00  0.00    +0.000 A 
ATOM     19  C   UNL     1      46.482   3.920   7.835  0.00  0.00    +0.000 A 
ATOM     20  C   UNL     1      45.614   3.169   8.644  0.00  0.00    +0.000 A 
ATOM     21  H   UNL     1      44.440   0.341   9.493  0.00  0.00    +0.000 HD
ENDBRANCH   9  12
ENDBRANCH   7  10
ENDBRANCH   1   7
BRANCH   4  22
ATOM     22  C   UNL     1      49.341   8.435  14.958  0.00  0.00    +0.000 C 
BRANCH  22  23
ATOM     23  N   UNL     1      49.763   7.337  15.828  0.00  0.00    +0.000 NA
ATOM     24  H   UNL     1      50.736   7.505  16.082  0.00  0.00    +0.000 HD
BRANCH  23  25
ATOM     25  C   UNL     1      48.975   7.288  17.069  0.00  0.00    +0.000 C 
BRANCH  25  26
ATOM     26  C   UNL     1      48.545   5.828  17.382  0.00  0.00    +0.000 C 
ATOM     27  C   UNL     1      49.765   4.897  17.399  0.00  0.00    +0.000 C 
ATOM     28  C   UNL     1      49.352   3.451  17.658  0.00  0.00    +0.000 C 
ATOM     29  C   UNL     1      48.270   3.020  16.675  0.00  0.00    +0.000 C 
ATOM     30  C   UNL     1      47.100   3.998  16.686  0.00  0.00    +0.000 C 
ATOM     31  N   UNL     1      47.535   5.366  16.404  0.00  0.00    +0.000 NA
ATOM     32  H   UNL     1      46.724   5.979  16.492  0.00  0.00    +0.000 HD
ENDBRANCH  25  26
ENDBRANCH  23  25
ENDBRANCH  22  23
ENDBRANCH   4  22
TORSDOF 7
ENDMDL
MODEL 4
REMARK VINA RESULT:    -7.043      2.142      2.769
REMARK INTER + INTRA:         -10.754
REMARK INTER:                  -9.611
REMARK INTRA:                  -1.143
REMARK UNBOUND:                -0.829
REMARK  Name = 
REMARK  7 active torsions:
REMARK  status: ('A' for Active; 'I' for Inactive)
REMARK    1  A    between atoms: C_2  and  C_20
REMARK    2  A    between atoms: N_3  and  C_4
REMARK    3  A    between atoms: C_4  and  C_5
REMARK    4  A    between atoms: C_8  and  C_9
REMARK    5  A    between atoms: C_9  and  N_10
REMARK    6  A    between atoms: N_10  and  C_11
REMARK    7  A    between atoms: C_11  and  C_12
REMARK                            x       y       z     vdW  Elec       q    Type
REMARK                         _______ _______ _______ _____ _____    ______ ____
ROOT
ATOM      1  C   UNL     1      47.200   6.645  13.369  0.00  0.00    +0.000 A 
ATOM      2  C   UNL     1      46.045   7.170  12.781  0.00  0.00    +0.000 A 
ATOM      3  C   UNL     1      44.892   6.389  12.663  0.00  0.00    +0.000 A 
ATOM      4  C   UNL     1      44.870   5.062  13.119  0.00  0.00    +0.000 A 
ATOM      5  C   UNL     1      46.018   4.553  13.742  0.00  0.00    +0.000 A 
ATOM      6  C   UNL     1      47.170   5.336  13.867  0.00  0.00    +0.000 A 
ENDROOT
BRANCH   1   7
ATOM      7  C   UNL     1      48.451   7.471  13.453  0.00  0.00    +0.000 C 
BRANCH   7  10
ATOM      8  O   UNL     1      48.167   9.106  15.673  0.00  0.00    +0.000 OA
ATOM      9  C   UNL     1      48.946   8.158  15.742  0.00  0.00    +0.000 C 
ATOM     10  N   UNL     1      49.158   7.293  14.692  0.00  0.00    +0.000 N 
ATOM     11  H   UNL     1      49.815   6.531  14.832  0.00  0.00    +0.000 HD
BRANCH   9  12
ATOM     12  C   UNL     1      49.719   7.854  16.955  0.00  0.00    +0.000 A 
ATOM     13  N   UNL     1      50.707   8.661  17.407  0.00  0.00    +0.000 NA
ATOM     14  N   UNL     1      51.142   8.032  18.523  0.00  0.00    +0.000 N 
ATOM     15  C   UNL     1      50.493   6.864  18.793  0.00  0.00    +0.000 A 
ATOM     16  N   UNL     1      50.736   6.039  19.832  0.00  0.00    +0.000 NA
ATOM     17  C   UNL     1      49.927   4.951  19.828  0.00  0.00    +0.000 A 
ATOM     18  C   UNL     1      48.944   4.672  18.886  0.00  0.00    +0.000 A 
ATOM     19  C   UNL     1      48.739   5.567  17.834  0.00  0.00    +0.000 A 
ATOM     20  C   UNL     1      49.553   6.711  17.792  0.00  0.00    +0.000 A 
ATOM     21  H   UNL     1      51.890   8.444  19.066  0.00  0.00    +0.000 HD
ENDBRANCH   9  12
ENDBRANCH   7  10
ENDBRANCH   1   7
BRANCH   4  22
ATOM     22  C   UNL     1      43.623   4.207  13.014  0.00  0.00    +0.000 C 
BRANCH  22  23
ATOM     23  N   UNL     1      43.930   2.853  12.548  0.00  0.00    +0.000 NA
ATOM     24  H   UNL     1      43.414   2.202  13.139  0.00  0.00    +0.000 HD
BRANCH  23  25
ATOM     25  C   UNL     1      43.497   2.641  11.159  0.00  0.00    +0.000 C 
BRANCH  25  26
ATOM     26  C   UNL     1      44.687   2.849  10.182  0.00  0.00    +0.000 C 
ATOM     27  C   UNL     1      44.542   4.181   9.431  0.00  0.00    +0.000 C 
ATOM     28  C   UNL     1      45.680   4.377   8.433  0.00  0.00    +0.000 C 
ATOM     29  C   UNL     1      45.797   3.167   7.512  0.00  0.00    +0.000 C 
ATOM     30  C   UNL     1      45.909   1.876   8.316  0.00  0.00    +0.000 C 
ATOM     31  N   UNL     1      44.786   1.714   9.239  0.00  0.00    +0.000 NA
ATOM     32  H   UNL     1      44.952   0.872   9.793  0.00  0.00    +0.000 HD
ENDBRANCH  25  26
ENDBRANCH  23  25
ENDBRANCH  22  23
ENDBRANCH   4  22
TORSDOF 7
ENDMDL
MODEL 5
REMARK VINA RESULT:    -6.923      4.323      6.260
REMARK INTER + INTRA:         -10.585
REMARK INTER:                  -9.752
REMARK INTRA:                  -0.833
REMARK UNBOUND:                -0.829
REMARK  Name = 
REMARK  7 active torsions:
REMARK  status: ('A' for Active; 'I' for Inactive)
REMARK    1  A    between atoms: C_2  and  C_20
REMARK    2  A    between atoms: N_3  and  C_4
REMARK    3  A    between atoms: C_4  and  C_5
REMARK    4  A    between atoms: C_8  and  C_9
REMARK    5  A    between atoms: C_9  and  N_10
REMARK    6  A    between atoms: N_10  and  C_11
REMARK    7  A    between atoms: C_11  and  C_12
REMARK                            x       y       z     vdW  Elec       q    Type
REMARK                         _______ _______ _______ _____ _____    ______ ____
ROOT
ATOM      1  C   UNL     1      46.054   7.117  12.645  0.00  0.00    +0.000 A 
ATOM      2  C   UNL     1      46.470   5.791  12.792  0.00  0.00    +0.000 A 
ATOM      3  C   UNL     1      45.741   4.751  12.211  0.00  0.00    +0.000 A 
ATOM      4  C   UNL     1      44.572   5.010  11.480  0.00  0.00    +0.000 A 
ATOM      5  C   UNL     1      44.179   6.344  11.304  0.00  0.00    +0.000 A 
ATOM      6  C   UNL     1      44.913   7.387  11.878  0.00  0.00    +0.000 A 
ENDROOT
BRANCH   1   7
ATOM      7  C   UNL     1      46.815   8.229  13.308  0.00  0.00    +0.000 C 
BRANCH   7  10
ATOM      8  O   UNL     1      49.551   8.148  13.744  0.00  0.00    +0.000 OA
ATOM      9  C   UNL     1      49.136   8.732  12.746  0.00  0.00    +0.000 C 
ATOM     10  N   UNL     1      47.796   8.829  12.446  0.00  0.00    +0.000 N 
ATOM     11  H   UNL     1      47.537   9.324  11.597  0.00  0.00    +0.000 HD
BRANCH   9  12
ATOM     12  C   UNL     1      50.033   9.374  11.774  0.00  0.00    +0.000 A 
ATOM     13  N   UNL     1      49.999  10.704  11.524  0.00  0.00    +0.000 NA
ATOM     14  N   UNL     1      50.967  10.874  10.595  0.00  0.00    +0.000 N 
ATOM     15  C   UNL     1      51.602   9.723  10.233  0.00  0.00    +0.000 A 
ATOM     16  N   UNL     1      52.592   9.610   9.324  0.00  0.00    +0.000 NA
ATOM     17  C   UNL     1      53.017   8.331   9.179  0.00  0.00    +0.000 A 
ATOM     18  C   UNL     1      52.523   7.227   9.864  0.00  0.00    +0.000 A 
ATOM     19  C   UNL     1      51.498   7.410  10.795  0.00  0.00    +0.000 A 
ATOM     20  C   UNL     1      51.021   8.717  10.982  0.00  0.00    +0.000 A 
ATOM     21  H   UNL     1      51.155  11.802  10.238  0.00  0.00    +0.000 HD
ENDBRANCH   9  12
ENDBRANCH   7  10
ENDBRANCH   1   7
BRANCH   4  22
ATOM     22  C   UNL     1      43.777   3.895  10.829  0.00  0.00    +0.000 C 
BRANCH  22  23
ATOM     23  N   UNL     1      44.535   2.644  10.780  0.00  0.00    +0.000 NA
ATOM     24  H   UNL     1      44.123   2.009  11.464  0.00  0.00    +0.000 HD
BRANCH  23  25
ATOM     25  C   UNL     1      44.447   2.002   9.460  0.00  0.00    +0.000 C 
BRANCH  25  26
ATOM     26  C   UNL     1      45.732   2.282   8.633  0.00  0.00    +0.000 C 
ATOM     27  C   UNL     1      45.452   3.320   7.536  0.00  0.00    +0.000 C 
ATOM     28  C   UNL     1      46.693   3.571   6.684  0.00  0.00    +0.000 C 
ATOM     29  C   UNL     1      47.251   2.255   6.152  0.00  0.00    +0.000 C 
ATOM     30  C   UNL     1      47.481   1.260   7.285  0.00  0.00    +0.000 C 
ATOM     31  N   UNL     1      46.260   1.027   8.056  0.00  0.00    +0.000 NA
ATOM     32  H   UNL     1      46.493   0.410   8.835  0.00  0.00    +0.000 HD
ENDBRANCH  25  26
ENDBRANCH  23  25
ENDBRANCH  22  23
ENDBRANCH   4  22
TORSDOF 7
ENDMDL
MODEL 6
REMARK VINA RESULT:    -6.799      2.647      9.045
REMARK INTER + INTRA:         -10.411
REMARK INTER:                  -9.326
REMARK INTRA:                  -1.084
REMARK UNBOUND:                -0.829
REMARK  Name = 
REMARK  7 active torsions:
REMARK  status: ('A' for Active; 'I' for Inactive)
REMARK    1  A    between atoms: C_2  and  C_20
REMARK    2  A    between atoms: N_3  and  C_4
REMARK    3  A    between atoms: C_4  and  C_5
REMARK    4  A    between atoms: C_8  and  C_9
REMARK    5  A    between atoms: C_9  and  N_10
REMARK    6  A    between atoms: N_10  and  C_11
REMARK    7  A    between atoms: C_11  and  C_12
REMARK                            x       y       z     vdW  Elec       q    Type
REMARK                         _______ _______ _______ _____ _____    ______ ____
ROOT
ATOM      1  C   UNL     1      48.881   7.318  13.885  0.00  0.00    +0.000 A 
ATOM      2  C   UNL     1      48.470   6.586  15.003  0.00  0.00    +0.000 A 
ATOM      3  C   UNL     1      49.319   6.434  16.102  0.00  0.00    +0.000 A 
ATOM      4  C   UNL     1      50.603   6.999  16.105  0.00  0.00    +0.000 A 
ATOM      5  C   UNL     1      50.996   7.764  14.998  0.00  0.00    +0.000 A 
ATOM      6  C   UNL     1      50.144   7.924  13.901  0.00  0.00    +0.000 A 
ENDROOT
BRANCH   1   7
ATOM      7  C   UNL     1      47.984   7.442  12.687  0.00  0.00    +0.000 C 
BRANCH   7  10
ATOM      8  O   UNL     1      45.240   7.107  12.889  0.00  0.00    +0.000 OA
ATOM      9  C   UNL     1      45.918   6.156  12.508  0.00  0.00    +0.000 C 
ATOM     10  N   UNL     1      47.287   6.223  12.380  0.00  0.00    +0.000 N 
ATOM     11  H   UNL     1      47.773   5.393  12.053  0.00  0.00    +0.000 HD
BRANCH   9  12
ATOM     12  C   UNL     1      45.330   4.858  12.147  0.00  0.00    +0.000 A 
ATOM     13  N   UNL     1      44.911   3.967  13.076  0.00  0.00    +0.000 NA
ATOM     14  N   UNL     1      44.442   2.937  12.336  0.00  0.00    +0.000 N 
ATOM     15  C   UNL     1      44.554   3.120  10.989  0.00  0.00    +0.000 A 
ATOM     16  N   UNL     1      44.176   2.250  10.032  0.00  0.00    +0.000 NA
ATOM     17  C   UNL     1      44.421   2.717   8.783  0.00  0.00    +0.000 A 
ATOM     18  C   UNL     1      44.993   3.945   8.471  0.00  0.00    +0.000 A 
ATOM     19  C   UNL     1      45.361   4.804   9.509  0.00  0.00    +0.000 A 
ATOM     20  C   UNL     1      45.129   4.366  10.823  0.00  0.00    +0.000 A 
ATOM     21  H   UNL     1      44.055   2.126  12.802  0.00  0.00    +0.000 HD
ENDBRANCH   9  12
ENDBRANCH   7  10
ENDBRANCH   1   7
BRANCH   4  22
ATOM     22  C   UNL     1      51.531   6.858  17.296  0.00  0.00    +0.000 C 
BRANCH  22  23
ATOM     23  N   UNL     1      50.808   6.453  18.503  0.00  0.00    +0.000 NA
ATOM     24  H   UNL     1      49.849   6.241  18.229  0.00  0.00    +0.000 HD
BRANCH  23  25
ATOM     25  C   UNL     1      51.384   5.242  19.106  0.00  0.00    +0.000 C 
BRANCH  25  26
ATOM     26  C   UNL     1      50.532   3.996  18.740  0.00  0.00    +0.000 C 
ATOM     27  C   UNL     1      51.080   3.318  17.476  0.00  0.00    +0.000 C 
ATOM     28  C   UNL     1      50.224   2.119  17.077  0.00  0.00    +0.000 C 
ATOM     29  C   UNL     1      48.758   2.523  16.966  0.00  0.00    +0.000 C 
ATOM     30  C   UNL     1      48.282   3.213  18.240  0.00  0.00    +0.000 C 
ATOM     31  N   UNL     1      49.112   4.372  18.569  0.00  0.00    +0.000 NA
ATOM     32  H   UNL     1      48.788   4.748  19.462  0.00  0.00    +0.000 HD
ENDBRANCH  25  26
ENDBRANCH  23  25
ENDBRANCH  22  23
ENDBRANCH   4  22
TORSDOF 7
ENDMDL
MODEL 7
REMARK VINA RESULT:    -6.767      2.374      3.059
REMARK INTER + INTRA:         -10.365
REMARK INTER:                  -9.770
REMARK INTRA:                  -0.595
REMARK UNBOUND:                -0.829
REMARK  Name = 
REMARK  7 active torsions:
REMARK  status: ('A' for Active; 'I' for Inactive)
REMARK    1  A    between atoms: C_2  and  C_20
REMARK    2  A    between atoms: N_3  and  C_4
REMARK    3  A    between atoms: C_4  and  C_5
REMARK    4  A    between atoms: C_8  and  C_9
REMARK    5  A    between atoms: C_9  and  N_10
REMARK    6  A    between atoms: N_10  and  C_11
REMARK    7  A    between atoms: C_11  and  C_12
REMARK                            x       y       z     vdW  Elec       q    Type
REMARK                         _______ _______ _______ _____ _____    ______ ____
ROOT
ATOM      1  C   UNL     1      47.184   8.066  13.564  0.00  0.00    +0.000 A 
ATOM      2  C   UNL     1      47.449   6.696  13.470  0.00  0.00    +0.000 A 
ATOM      3  C   UNL     1      46.581   5.853  12.773  0.00  0.00    +0.000 A 
ATOM      4  C   UNL     1      45.421   6.356  12.163  0.00  0.00    +0.000 A 
ATOM      5  C   UNL     1      45.181   7.735  12.228  0.00  0.00    +0.000 A 
ATOM      6  C   UNL     1      46.053   8.581  12.919  0.00  0.00    +0.000 A 
ENDROOT
BRANCH   1   7
ATOM      7  C   UNL     1      48.095   8.962  14.353  0.00  0.00    +0.000 C 
BRANCH   7  10
ATOM      8  O   UNL     1      49.527  10.338  16.286  0.00  0.00    +0.000 OA
ATOM      9  C   UNL     1      48.445   9.849  16.599  0.00  0.00    +0.000 C 
ATOM     10  N   UNL     1      47.663   9.145  15.711  0.00  0.00    +0.000 N 
ATOM     11  H   UNL     1      46.778   8.778  16.049  0.00  0.00    +0.000 HD
BRANCH   9  12
ATOM     12  C   UNL     1      47.879   9.978  17.950  0.00  0.00    +0.000 A 
ATOM     13  N   UNL     1      47.330  11.130  18.400  0.00  0.00    +0.000 NA
ATOM     14  N   UNL     1      46.935  10.821  19.657  0.00  0.00    +0.000 N 
ATOM     15  C   UNL     1      47.217   9.540  20.031  0.00  0.00    +0.000 A 
ATOM     16  N   UNL     1      46.943   8.980  21.227  0.00  0.00    +0.000 NA
ATOM     17  C   UNL     1      47.350   7.690  21.299  0.00  0.00    +0.000 A 
ATOM     18  C   UNL     1      47.982   6.978  20.284  0.00  0.00    +0.000 A 
ATOM     19  C   UNL     1      48.236   7.614  19.068  0.00  0.00    +0.000 A 
ATOM     20  C   UNL     1      47.834   8.954  18.942  0.00  0.00    +0.000 A 
ATOM     21  H   UNL     1      46.477  11.525  20.221  0.00  0.00    +0.000 HD
ENDBRANCH   9  12
ENDBRANCH   7  10
ENDBRANCH   1   7
BRANCH   4  22
ATOM     22  C   UNL     1      44.477   5.458  11.388  0.00  0.00    +0.000 C 
BRANCH  22  23
ATOM     23  N   UNL     1      45.151   4.795  10.270  0.00  0.00    +0.000 NA
ATOM     24  H   UNL     1      45.742   4.062  10.661  0.00  0.00    +0.000 HD
BRANCH  23  25
ATOM     25  C   UNL     1      44.193   4.160   9.353  0.00  0.00    +0.000 C 
BRANCH  25  26
ATOM     26  C   UNL     1      44.942   3.323   8.279  0.00  0.00    +0.000 C 
ATOM     27  C   UNL     1      45.575   2.075   8.912  0.00  0.00    +0.000 C 
ATOM     28  C   UNL     1      46.355   1.268   7.878  0.00  0.00    +0.000 C 
ATOM     29  C   UNL     1      47.356   2.157   7.150  0.00  0.00    +0.000 C 
ATOM     30  C   UNL     1      46.672   3.390   6.569  0.00  0.00    +0.000 C 
ATOM     31  N   UNL     1      45.962   4.150   7.597  0.00  0.00    +0.000 NA
ATOM     32  H   UNL     1      45.471   4.919   7.139  0.00  0.00    +0.000 HD
ENDBRANCH  25  26
ENDBRANCH  23  25
ENDBRANCH  22  23
ENDBRANCH   4  22
TORSDOF 7
ENDMDL
MODEL 8
REMARK VINA RESULT:    -6.721      1.792      2.448
REMARK INTER + INTRA:         -10.301
REMARK INTER:                  -9.741
REMARK INTRA:                  -0.560
REMARK UNBOUND:                -0.829
REMARK  Name = 
REMARK  7 active torsions:
REMARK  status: ('A' for Active; 'I' for Inactive)
REMARK    1  A    between atoms: C_2  and  C_20
REMARK    2  A    between atoms: N_3  and  C_4
REMARK    3  A    between atoms: C_4  and  C_5
REMARK    4  A    between atoms: C_8  and  C_9
REMARK    5  A    between atoms: C_9  and  N_10
REMARK    6  A    between atoms: N_10  and  C_11
REMARK    7  A    between atoms: C_11  and  C_12
REMARK                            x       y       z     vdW  Elec       q    Type
REMARK                         _______ _______ _______ _____ _____    ______ ____
ROOT
ATOM      1  C   UNL     1      48.024   6.508  13.967  0.00  0.00    +0.000 A 
ATOM      2  C   UNL     1      47.345   5.389  14.459  0.00  0.00    +0.000 A 
ATOM      3  C   UNL     1      46.396   4.733  13.671  0.00  0.00    +0.000 A 
ATOM      4  C   UNL     1      46.095   5.186  12.377  0.00  0.00    +0.000 A 
ATOM      5  C   UNL     1      46.806   6.285  11.875  0.00  0.00    +0.000 A 
ATOM      6  C   UNL     1      47.761   6.938  12.660  0.00  0.00    +0.000 A 
ENDROOT
BRANCH   1   7
ATOM      7  C   UNL     1      49.010   7.238  14.833  0.00  0.00    +0.000 C 
BRANCH   7  10
ATOM      8  O   UNL     1      50.013   6.497  17.308  0.00  0.00    +0.000 OA
ATOM      9  C   UNL     1      49.027   7.229  17.273  0.00  0.00    +0.000 C 
ATOM     10  N   UNL     1      48.454   7.647  16.093  0.00  0.00    +0.000 N 
ATOM     11  H   UNL     1      47.643   8.257  16.152  0.00  0.00    +0.000 HD
BRANCH   9  12
ATOM     12  C   UNL     1      48.371   7.732  18.489  0.00  0.00    +0.000 A 
ATOM     13  N   UNL     1      48.127   6.943  19.561  0.00  0.00    +0.000 NA
ATOM     14  N   UNL     1      47.531   7.782  20.439  0.00  0.00    +0.000 N 
ATOM     15  C   UNL     1      47.372   9.054  19.976  0.00  0.00    +0.000 A 
ATOM     16  N   UNL     1      46.802  10.079  20.641  0.00  0.00    +0.000 NA
ATOM     17  C   UNL     1      46.786  11.223  19.913  0.00  0.00    +0.000 A 
ATOM     18  C   UNL     1      47.288  11.374  18.625  0.00  0.00    +0.000 A 
ATOM     19  C   UNL     1      47.869  10.275  17.991  0.00  0.00    +0.000 A 
ATOM     20  C   UNL     1      47.910   9.065  18.703  0.00  0.00    +0.000 A 
ATOM     21  H   UNL     1      47.249   7.432  21.347  0.00  0.00    +0.000 HD
ENDBRANCH   9  12
ENDBRANCH   7  10
ENDBRANCH   1   7
BRANCH   4  22
ATOM     22  C   UNL     1      45.081   4.476  11.503  0.00  0.00    +0.000 C 
BRANCH  22  23
ATOM     23  N   UNL     1      45.177   4.900  10.105  0.00  0.00    +0.000 NA
ATOM     24  H   UNL     1      46.125   4.698   9.788  0.00  0.00    +0.000 HD
BRANCH  23  25
ATOM     25  C   UNL     1      44.246   4.157   9.242  0.00  0.00    +0.000 C 
BRANCH  25  26
ATOM     26  C   UNL     1      45.027   3.340   8.176  0.00  0.00    +0.000 C 
ATOM     27  C   UNL     1      45.639   2.080   8.804  0.00  0.00    +0.000 C 
ATOM     28  C   UNL     1      46.450   1.291   7.779  0.00  0.00    +0.000 C 
ATOM     29  C   UNL     1      47.474   2.194   7.099  0.00  0.00    +0.000 C 
ATOM     30  C   UNL     1      46.808   3.438   6.521  0.00  0.00    +0.000 C 
ATOM     31  N   UNL     1      46.067   4.179   7.542  0.00  0.00    +0.000 NA
ATOM     32  H   UNL     1      45.592   4.957   7.084  0.00  0.00    +0.000 HD
ENDBRANCH  25  26
ENDBRANCH  23  25
ENDBRANCH  22  23
ENDBRANCH   4  22
TORSDOF 7
ENDMDL
MODEL 9
REMARK VINA RESULT:    -6.346      3.265      8.642
REMARK INTER + INTRA:          -9.772
REMARK INTER:                  -8.817
REMARK INTRA:                  -0.955
REMARK UNBOUND:                -0.829
REMARK  Name = 
REMARK  7 active torsions:
REMARK  status: ('A' for Active; 'I' for Inactive)
REMARK    1  A    between atoms: C_2  and  C_20
REMARK    2  A    between atoms: N_3  and  C_4
REMARK    3  A    between atoms: C_4  and  C_5
REMARK    4  A    between atoms: C_8  and  C_9
REMARK    5  A    between atoms: C_9  and  N_10
REMARK    6  A    between atoms: N_10  and  C_11
REMARK    7  A    between atoms: C_11  and  C_12
REMARK                            x       y       z     vdW  Elec       q    Type
REMARK                         _______ _______ _______ _____ _____    ______ ____
ROOT
ATOM      1  C   UNL     1      49.275   7.303  13.992  0.00  0.00    +0.000 A 
ATOM      2  C   UNL     1      50.300   8.091  14.523  0.00  0.00    +0.000 A 
ATOM      3  C   UNL     1      50.529   8.122  15.901  0.00  0.00    +0.000 A 
ATOM      4  C   UNL     1      49.730   7.376  16.782  0.00  0.00    +0.000 A 
ATOM      5  C   UNL     1      48.728   6.559  16.240  0.00  0.00    +0.000 A 
ATOM      6  C   UNL     1      48.503   6.521  14.861  0.00  0.00    +0.000 A 
ENDROOT
BRANCH   1   7
ATOM      7  C   UNL     1      49.003   7.308  12.515  0.00  0.00    +0.000 C 
BRANCH   7  10
ATOM      8  O   UNL     1      46.792   8.977  12.434  0.00  0.00    +0.000 OA
ATOM      9  C   UNL     1      46.635   7.788  12.172  0.00  0.00    +0.000 C 
ATOM     10  N   UNL     1      47.670   6.880  12.189  0.00  0.00    +0.000 N 
ATOM     11  H   UNL     1      47.456   5.915  11.954  0.00  0.00    +0.000 HD
BRANCH   9  12
ATOM     12  C   UNL     1      45.327   7.223  11.807  0.00  0.00    +0.000 A 
ATOM     13  N   UNL     1      44.324   7.981  11.305  0.00  0.00    +0.000 NA
ATOM     14  N   UNL     1      43.326   7.090  11.106  0.00  0.00    +0.000 N 
ATOM     15  C   UNL     1      43.637   5.813  11.467  0.00  0.00    +0.000 A 
ATOM     16  N   UNL     1      42.825   4.740  11.383  0.00  0.00    +0.000 NA
ATOM     17  C   UNL     1      43.421   3.605  11.823  0.00  0.00    +0.000 A 
ATOM     18  C   UNL     1      44.718   3.505  12.315  0.00  0.00    +0.000 A 
ATOM     19  C   UNL     1      45.510   4.652  12.374  0.00  0.00    +0.000 A 
ATOM     20  C   UNL     1      44.939   5.856  11.930  0.00  0.00    +0.000 A 
ATOM     21  H   UNL     1      42.446   7.409  10.720  0.00  0.00    +0.000 HD
ENDBRANCH   9  12
ENDBRANCH   7  10
ENDBRANCH   1   7
BRANCH   4  22
ATOM     22  C   UNL     1      49.974   7.385  18.277  0.00  0.00    +0.000 C 
BRANCH  22  23
ATOM     23  N   UNL     1      50.540   6.118  18.744  0.00  0.00    +0.000 NA
ATOM     24  H   UNL     1      51.360   6.339  19.308  0.00  0.00    +0.000 HD
BRANCH  23  25
ATOM     25  C   UNL     1      49.595   5.376  19.593  0.00  0.00    +0.000 C 
BRANCH  25  26
ATOM     26  C   UNL     1      49.170   4.051  18.903  0.00  0.00    +0.000 C 
ATOM     27  C   UNL     1      50.185   3.656  17.820  0.00  0.00    +0.000 C 
ATOM     28  C   UNL     1      49.756   2.381  17.100  0.00  0.00    +0.000 C 
ATOM     29  C   UNL     1      48.329   2.515  16.580  0.00  0.00    +0.000 C 
ATOM     30  C   UNL     1      47.377   2.934  17.695  0.00  0.00    +0.000 C 
ATOM     31  N   UNL     1      47.809   4.175  18.338  0.00  0.00    +0.000 NA
ATOM     32  H   UNL     1      47.174   4.366  19.114  0.00  0.00    +0.000 HD
ENDBRANCH  25  26
ENDBRANCH  23  25
ENDBRANCH  22  23
ENDBRANCH   4  22
TORSDOF 7
ENDMDL
