MODEL 1
REMARK VINA RESULT:    -8.771      0.000      0.000
REMARK INTER + INTRA:         -13.389
REMARK INTER:                 -12.616
REMARK INTRA:                  -0.773
REMARK UNBOUND:                -0.773
REMARK  Name = 
REMARK  8 active torsions:
REMARK  status: ('A' for Active; 'I' for Inactive)
REMARK    1  A    between atoms: C_2  and  C_3
REMARK    2  A    between atoms: C_2  and  C_20
REMARK    3  A    between atoms: C_3  and  N_4
REMARK    4  A    between atoms: N_4  and  C_5
REMARK    5  A    between atoms: C_8  and  C_9
REMARK    6  A    between atoms: C_9  and  O_10
REMARK    7  A    between atoms: C_9  and  C_11
REMARK    8  A    between atoms: C_11  and  C_12
REMARK                            x       y       z     vdW  Elec       q    Type
REMARK                         _______ _______ _______ _____ _____    ______ ____
ROOT
ATOM      1  N   UNL     1      46.926   5.134  14.917  0.00  0.00    +0.000 N 
ATOM      2  H   UNL     1      47.421   6.027  14.996  0.00  0.00    +0.000 HD
ENDROOT
BRANCH   1   3
ATOM      3  C   UNL     1      46.398   4.933  13.638  0.00  0.00    +0.000 A 
ATOM      4  C   UNL     1      45.907   3.701  13.248  0.00  0.00    +0.000 A 
ATOM      5  N   UNL     1      45.334   3.445  12.051  0.00  0.00    +0.000 NA
ATOM      6  C   UNL     1      45.220   4.485  11.202  0.00  0.00    +0.000 A 
ATOM      7  N   UNL     1      45.640   5.733  11.478  0.00  0.00    +0.000 NA
ATOM      8  C   UNL     1      46.223   5.915  12.677  0.00  0.00    +0.000 A 
BRANCH   6   9
ATOM      9  C   UNL     1      44.352   4.310   9.967  0.00  0.00    +0.000 C 
BRANCH   9  10
ATOM     10  O   UNL     1      43.240   5.221  10.059  0.00  0.00    +0.000 OA
ATOM     11  H   UNL     1      43.564   6.071   9.710  0.00  0.00    +0.000 HD
ENDBRANCH   9  10
BRANCH   9  12
ATOM     12  C   UNL     1      45.132   4.595   8.667  0.00  0.00    +0.000 C 
BRANCH  12  13
ATOM     13  C   UNL     1      45.897   3.420   8.089  0.00  0.00    +0.000 A 
ATOM     14  C   UNL     1      45.613   2.124   8.550  0.00  0.00    +0.000 A 
ATOM     15  C   UNL     1      46.313   1.022   8.058  0.00  0.00    +0.000 A 
ATOM     16  C   UNL     1      47.299   1.197   7.089  0.00  0.00    +0.000 A 
ATOM     17  C   UNL     1      47.575   2.472   6.605  0.00  0.00    +0.000 A 
ATOM     18  C   UNL     1      46.874   3.575   7.094  0.00  0.00    +0.000 A 
ENDBRANCH  12  13
ENDBRANCH   9  12
ENDBRANCH   6   9
ENDBRANCH   1   3
BRANCH   1  19
ATOM     19  C   UNL     1      47.723   4.024  15.454  0.00  0.00    +0.000 C 
BRANCH  19  21
ATOM     20  O   UNL     1      46.375   3.104  17.217  0.00  0.00    +0.000 OA
ATOM     21  C   UNL     1      47.409   3.693  16.909  0.00  0.00    +0.000 C 
BRANCH  21  22
ATOM     22  C   UNL     1      48.397   4.118  17.910  0.00  0.00    +0.000 A 
ATOM     23  C   UNL     1      48.148   5.049  18.907  0.00  0.00    +0.000 A 
ATOM     24  S   UNL     1      49.565   5.550  19.722  0.00  0.00    +0.000 S 
ATOM     25  C   UNL     1      50.518   4.458  18.830  0.00  0.00    +0.000 A 
ATOM     26  N   UNL     1      51.869   4.421  18.962  0.00  0.00    +0.000 NA
ATOM     27  C   UNL     1      52.442   3.504  18.255  0.00  0.00    +0.000 A 
ATOM     28  N   UNL     1      51.786   2.592  17.465  0.00  0.00    +0.000 N 
ATOM     29  C   UNL     1      50.413   2.536  17.378  0.00  0.00    +0.000 A 
ATOM     30  O   UNL     1      49.840   1.562  16.905  0.00  0.00    +0.000 OA
ATOM     31  C   UNL     1      49.749   3.654  18.015  0.00  0.00    +0.000 A 
ATOM     32  H   UNL     1      52.282   1.817  17.049  0.00  0.00    +0.000 HD
ENDBRANCH  21  22
ENDBRANCH  19  21
ENDBRANCH   1  19
TORSDOF 8
ENDMDL
MODEL 2
REMARK VINA RESULT:    -8.598      2.089      2.580
REMARK INTER + INTRA:         -13.141
REMARK INTER:                 -12.037
REMARK INTRA:                  -1.103
REMARK UNBOUND:                -0.773
REMARK  Name = 
REMARK  8 active torsions:
REMARK  status: ('A' for Active; 'I' for Inactive)
REMARK    1  A    between atoms: C_2  and  C_3
REMARK    2  A    between atoms: C_2  and  C_20
REMARK    3  A    between atoms: C_3  and  N_4
REMARK    4  A    between atoms: N_4  and  C_5
REMARK    5  A    between atoms: C_8  and  C_9
REMARK    6  A    between atoms: C_9  and  O_10
REMARK    7  A    between atoms: C_9  and  C_11
REMARK    8  A    between atoms: C_11  and  C_12
REMARK                            x       y       z     vdW  Elec       q    Type
REMARK                         _______ _______ _______ _____ _____    ______ ____
ROOT
ATOM      1  N   UNL     1      47.293   5.773  14.810  0.00  0.00    +0.000 N 
ATOM      2  H   UNL     1      46.663   6.262  15.452  0.00  0.00    +0.000 HD
ENDROOT
BRANCH   1   3
ATOM      3  C   UNL     1      46.605   5.164  13.755  0.00  0.00    +0.000 A 
ATOM      4  C   UNL     1      46.493   3.789  13.669  0.00  0.00    +0.000 A 
ATOM      5  N   UNL     1      45.800   3.132  12.711  0.00  0.00    +0.000 NA
ATOM      6  C   UNL     1      45.159   3.893  11.802  0.00  0.00    +0.000 A 
ATOM      7  N   UNL     1      45.176   5.238  11.797  0.00  0.00    +0.000 NA
ATOM      8  C   UNL     1      45.904   5.829  12.762  0.00  0.00    +0.000 A 
BRANCH   6   9
ATOM      9  C   UNL     1      44.160   3.215  10.878  0.00  0.00    +0.000 C 
BRANCH   9  10
ATOM     10  O   UNL     1      42.833   3.476  11.373  0.00  0.00    +0.000 OA
ATOM     11  H   UNL     1      42.759   4.446  11.435  0.00  0.00    +0.000 HD
ENDBRANCH   9  10
BRANCH   9  12
ATOM     12  C   UNL     1      44.270   3.733   9.429  0.00  0.00    +0.000 C 
BRANCH  12  13
ATOM     13  C   UNL     1      45.323   3.061   8.569  0.00  0.00    +0.000 A 
ATOM     14  C   UNL     1      46.055   3.834   7.653  0.00  0.00    +0.000 A 
ATOM     15  C   UNL     1      47.016   3.247   6.830  0.00  0.00    +0.000 A 
ATOM     16  C   UNL     1      47.267   1.879   6.917  0.00  0.00    +0.000 A 
ATOM     17  C   UNL     1      46.566   1.103   7.835  0.00  0.00    +0.000 A 
ATOM     18  C   UNL     1      45.607   1.691   8.662  0.00  0.00    +0.000 A 
ENDBRANCH  12  13
ENDBRANCH   9  12
ENDBRANCH   6   9
ENDBRANCH   1   3
BRANCH   1  19
ATOM     19  C   UNL     1      48.430   6.616  14.419  0.00  0.00    +0.000 C 
BRANCH  19  21
ATOM     20  O   UNL     1      50.654   6.869  15.293  0.00  0.00    +0.000 OA
ATOM     21  C   UNL     1      49.450   6.823  15.535  0.00  0.00    +0.000 C 
BRANCH  21  22
ATOM     22  C   UNL     1      48.919   6.956  16.898  0.00  0.00    +0.000 A 
ATOM     23  C   UNL     1      48.426   8.136  17.432  0.00  0.00    +0.000 A 
ATOM     24  S   UNL     1      48.161   8.048  19.119  0.00  0.00    +0.000 S 
ATOM     25  C   UNL     1      48.602   6.404  19.147  0.00  0.00    +0.000 A 
ATOM     26  N   UNL     1      48.682   5.708  20.310  0.00  0.00    +0.000 NA
ATOM     27  C   UNL     1      48.980   4.460  20.158  0.00  0.00    +0.000 A 
ATOM     28  N   UNL     1      49.156   3.834  18.949  0.00  0.00    +0.000 N 
ATOM     29  C   UNL     1      48.991   4.480  17.745  0.00  0.00    +0.000 A 
ATOM     30  O   UNL     1      48.875   3.860  16.695  0.00  0.00    +0.000 OA
ATOM     31  C   UNL     1      48.832   5.914  17.878  0.00  0.00    +0.000 A 
ATOM     32  H   UNL     1      49.250   2.829  18.897  0.00  0.00    +0.000 HD
ENDBRANCH  21  22
ENDBRANCH  19  21
ENDBRANCH   1  19
TORSDOF 8
ENDMDL
MODEL 3
REMARK VINA RESULT:    -8.425      2.300      3.271
REMARK INTER + INTRA:         -12.892
REMARK INTER:                 -11.829
REMARK INTRA:                  -1.064
REMARK UNBOUND:                -0.773
REMARK  Name = 
REMARK  8 active torsions:
REMARK  status: ('A' for Active; 'I' for Inactive)
REMARK    1  A    between atoms: C_2  and  C_3
REMARK    2  A    between atoms: C_2  and  C_20
REMARK    3  A    between atoms: C_3  and  N_4
REMARK    4  A    between atoms: N_4  and  C_5
REMARK    5  A    between atoms: C_8  and  C_9
REMARK    6  A    between atoms: C_9  and  O_10
REMARK    7  A    between atoms: C_9  and  C_11
REMARK    8  A    between atoms: C_11  and  C_12
REMARK                            x       y       z     vdW  Elec       q    Type
REMARK                         _______ _______ _______ _____ _____    ______ ____
ROOT
ATOM      1  N   UNL     1      47.328   5.344  15.041  0.00  0.00    +0.000 N 
ATOM      2  H   UNL     1      48.264   5.668  14.782  0.00  0.00    +0.000 HD
ENDROOT
BRANCH   1   3
ATOM      3  C   UNL     1      46.612   4.859  13.942  0.00  0.00    +0.000 A 
ATOM      4  C   UNL     1      46.523   3.505  13.683  0.00  0.00    +0.000 A 
ATOM      5  N   UNL     1      45.808   2.960  12.673  0.00  0.00    +0.000 NA
ATOM      6  C   UNL     1      45.118   3.815  11.892  0.00  0.00    +0.000 A 
ATOM      7  N   UNL     1      45.110   5.149  12.060  0.00  0.00    +0.000 NA
ATOM      8  C   UNL     1      45.862   5.629  13.068  0.00  0.00    +0.000 A 
BRANCH   6   9
ATOM      9  C   UNL     1      44.099   3.237  10.924  0.00  0.00    +0.000 C 
BRANCH   9  10
ATOM     10  O   UNL     1      42.781   3.576  11.397  0.00  0.00    +0.000 OA
ATOM     11  H   UNL     1      42.383   4.130  10.700  0.00  0.00    +0.000 HD
ENDBRANCH   9  10
BRANCH   9  12
ATOM     12  C   UNL     1      44.281   3.790   9.495  0.00  0.00    +0.000 C 
BRANCH  12  13
ATOM     13  C   UNL     1      45.310   3.075   8.641  0.00  0.00    +0.000 A 
ATOM     14  C   UNL     1      46.054   3.812   7.706  0.00  0.00    +0.000 A 
ATOM     15  C   UNL     1      46.993   3.185   6.886  0.00  0.00    +0.000 A 
ATOM     16  C   UNL     1      47.210   1.813   6.997  0.00  0.00    +0.000 A 
ATOM     17  C   UNL     1      46.496   1.073   7.936  0.00  0.00    +0.000 A 
ATOM     18  C   UNL     1      45.559   1.700   8.758  0.00  0.00    +0.000 A 
ENDBRANCH  12  13
ENDBRANCH   9  12
ENDBRANCH   6   9
ENDBRANCH   1   3
BRANCH   1  19
ATOM     19  C   UNL     1      47.366   4.459  16.211  0.00  0.00    +0.000 C 
BRANCH  19  21
ATOM     20  O   UNL     1      49.685   4.070  16.704  0.00  0.00    +0.000 OA
ATOM     21  C   UNL     1      48.633   4.604  17.048  0.00  0.00    +0.000 C 
BRANCH  21  22
ATOM     22  C   UNL     1      48.526   5.405  18.275  0.00  0.00    +0.000 A 
ATOM     23  C   UNL     1      48.608   4.884  19.557  0.00  0.00    +0.000 A 
ATOM     24  S   UNL     1      48.151   6.004  20.765  0.00  0.00    +0.000 S 
ATOM     25  C   UNL     1      47.936   7.233  19.606  0.00  0.00    +0.000 A 
ATOM     26  N   UNL     1      47.458   8.457  19.948  0.00  0.00    +0.000 NA
ATOM     27  C   UNL     1      47.400   9.293  18.964  0.00  0.00    +0.000 A 
ATOM     28  N   UNL     1      47.820   9.033  17.683  0.00  0.00    +0.000 N 
ATOM     29  C   UNL     1      48.397   7.838  17.318  0.00  0.00    +0.000 A 
ATOM     30  O   UNL     1      49.014   7.718  16.266  0.00  0.00    +0.000 OA
ATOM     31  C   UNL     1      48.316   6.820  18.346  0.00  0.00    +0.000 A 
ATOM     32  H   UNL     1      47.876   9.773  16.998  0.00  0.00    +0.000 HD
ENDBRANCH  21  22
ENDBRANCH  19  21
ENDBRANCH   1  19
TORSDOF 8
ENDMDL
MODEL 4
REMARK VINA RESULT:    -8.194      4.545      6.644
REMARK INTER + INTRA:         -12.560
REMARK INTER:                 -11.482
REMARK INTRA:                  -1.077
REMARK UNBOUND:                -0.773
REMARK  Name = 
REMARK  8 active torsions:
REMARK  status: ('A' for Active; 'I' for Inactive)
REMARK    1  A    between atoms: C_2  and  C_3
REMARK    2  A    between atoms: C_2  and  C_20
REMARK    3  A    between atoms: C_3  and  N_4
REMARK    4  A    between atoms: N_4  and  C_5
REMARK    5  A    between atoms: C_8  and  C_9
REMARK    6  A    between atoms: C_9  and  O_10
REMARK    7  A    between atoms: C_9  and  C_11
REMARK    8  A    between atoms: C_11  and  C_12
REMARK                            x       y       z     vdW  Elec       q    Type
REMARK                         _______ _______ _______ _____ _____    ______ ____
ROOT
ATOM      1  N   UNL     1      47.229   6.643  13.855  0.00  0.00    +0.000 N 
ATOM      2  H   UNL     1      46.658   7.390  14.261  0.00  0.00    +0.000 HD
ENDROOT
BRANCH   1   3
ATOM      3  C   UNL     1      46.456   5.705  13.164  0.00  0.00    +0.000 A 
ATOM      4  C   UNL     1      46.059   5.922  11.858  0.00  0.00    +0.000 A 
ATOM      5  N   UNL     1      45.358   5.040  11.109  0.00  0.00    +0.000 NA
ATOM      6  C   UNL     1      45.059   3.861  11.689  0.00  0.00    +0.000 A 
ATOM      7  N   UNL     1      45.410   3.528  12.944  0.00  0.00    +0.000 NA
ATOM      8  C   UNL     1      46.085   4.459  13.643  0.00  0.00    +0.000 A 
BRANCH   6   9
ATOM      9  C   UNL     1      44.515   2.748  10.809  0.00  0.00    +0.000 C 
BRANCH   9  10
ATOM     10  O   UNL     1      43.225   2.357  11.317  0.00  0.00    +0.000 OA
ATOM     11  H   UNL     1      42.739   3.187  11.476  0.00  0.00    +0.000 HD
ENDBRANCH   9  10
BRANCH   9  12
ATOM     12  C   UNL     1      44.366   3.194   9.340  0.00  0.00    +0.000 C 
BRANCH  12  13
ATOM     13  C   UNL     1      45.460   2.730   8.397  0.00  0.00    +0.000 A 
ATOM     14  C   UNL     1      45.854   1.382   8.418  0.00  0.00    +0.000 A 
ATOM     15  C   UNL     1      46.872   0.923   7.582  0.00  0.00    +0.000 A 
ATOM     16  C   UNL     1      47.504   1.802   6.705  0.00  0.00    +0.000 A 
ATOM     17  C   UNL     1      47.108   3.136   6.656  0.00  0.00    +0.000 A 
ATOM     18  C   UNL     1      46.087   3.595   7.490  0.00  0.00    +0.000 A 
ENDBRANCH  12  13
ENDBRANCH   9  12
ENDBRANCH   6   9
ENDBRANCH   1   3
BRANCH   1  19
ATOM     19  C   UNL     1      48.379   7.181  13.118  0.00  0.00    +0.000 C 
BRANCH  19  21
ATOM     20  O   UNL     1      49.031   9.009  14.535  0.00  0.00    +0.000 OA
ATOM     21  C   UNL     1      48.666   8.649  13.418  0.00  0.00    +0.000 C 
BRANCH  21  22
ATOM     22  C   UNL     1      48.478   9.597  12.312  0.00  0.00    +0.000 A 
ATOM     23  C   UNL     1      49.480   9.983  11.435  0.00  0.00    +0.000 A 
ATOM     24  S   UNL     1      49.034  11.309  10.452  0.00  0.00    +0.000 S 
ATOM     25  C   UNL     1      47.463  11.324  11.108  0.00  0.00    +0.000 A 
ATOM     26  N   UNL     1      46.561  12.280  10.770  0.00  0.00    +0.000 NA
ATOM     27  C   UNL     1      45.399  12.124  11.314  0.00  0.00    +0.000 A 
ATOM     28  N   UNL     1      45.044  11.075  12.125  0.00  0.00    +0.000 N 
ATOM     29  C   UNL     1      45.899  10.036  12.416  0.00  0.00    +0.000 A 
ATOM     30  O   UNL     1      45.493   8.986  12.899  0.00  0.00    +0.000 OA
ATOM     31  C   UNL     1      47.258  10.267  11.970  0.00  0.00    +0.000 A 
ATOM     32  H   UNL     1      44.082  10.940  12.404  0.00  0.00    +0.000 HD
ENDBRANCH  21  22
ENDBRANCH  19  21
ENDBRANCH   1  19
TORSDOF 8
ENDMDL
MODEL 5
REMARK VINA RESULT:    -7.909      2.938      8.768
REMARK INTER + INTRA:         -12.149
REMARK INTER:                 -11.293
REMARK INTRA:                  -0.857
REMARK UNBOUND:                -0.773
REMARK  Name = 
REMARK  8 active torsions:
REMARK  status: ('A' for Active; 'I' for Inactive)
REMARK    1  A    between atoms: C_2  and  C_3
REMARK    2  A    between atoms: C_2  and  C_20
REMARK    3  A    between atoms: C_3  and  N_4
REMARK    4  A    between atoms: N_4  and  C_5
REMARK    5  A    between atoms: C_8  and  C_9
REMARK    6  A    between atoms: C_9  and  O_10
REMARK    7  A    between atoms: C_9  and  C_11
REMARK    8  A    between atoms: C_11  and  C_12
REMARK                            x       y       z     vdW  Elec       q    Type
REMARK                         _______ _______ _______ _____ _____    ______ ____
ROOT
ATOM      1  N   UNL     1      47.872   7.110  13.169  0.00  0.00    +0.000 N 
ATOM      2  H   UNL     1      47.478   8.031  13.382  0.00  0.00    +0.000 HD
ENDROOT
BRANCH   1   3
ATOM      3  C   UNL     1      47.823   6.246  14.267  0.00  0.00    +0.000 A 
ATOM      4  C   UNL     1      47.219   5.006  14.179  0.00  0.00    +0.000 A 
ATOM      5  N   UNL     1      47.180   4.097  15.180  0.00  0.00    +0.000 NA
ATOM      6  C   UNL     1      47.801   4.434  16.326  0.00  0.00    +0.000 A 
ATOM      7  N   UNL     1      48.440   5.602  16.522  0.00  0.00    +0.000 NA
ATOM      8  C   UNL     1      48.421   6.472  15.496  0.00  0.00    +0.000 A 
BRANCH   6   9
ATOM      9  C   UNL     1      48.013   3.352  17.372  0.00  0.00    +0.000 C 
BRANCH   9  10
ATOM     10  O   UNL     1      46.732   2.782  17.702  0.00  0.00    +0.000 OA
ATOM     11  H   UNL     1      46.068   3.432  17.407  0.00  0.00    +0.000 HD
ENDBRANCH   9  10
BRANCH   9  12
ATOM     12  C   UNL     1      48.948   2.234  16.866  0.00  0.00    +0.000 C 
BRANCH  12  13
ATOM     13  C   UNL     1      50.396   2.340  17.305  0.00  0.00    +0.000 A 
ATOM     14  C   UNL     1      51.192   1.184  17.323  0.00  0.00    +0.000 A 
ATOM     15  C   UNL     1      52.522   1.239  17.742  0.00  0.00    +0.000 A 
ATOM     16  C   UNL     1      53.079   2.453  18.138  0.00  0.00    +0.000 A 
ATOM     17  C   UNL     1      52.309   3.612  18.103  0.00  0.00    +0.000 A 
ATOM     18  C   UNL     1      50.980   3.558  17.680  0.00  0.00    +0.000 A 
ENDBRANCH  12  13
ENDBRANCH   9  12
ENDBRANCH   6   9
ENDBRANCH   1   3
BRANCH   1  19
ATOM     19  C   UNL     1      47.334   6.570  11.914  0.00  0.00    +0.000 C 
BRANCH  19  21
ATOM     20  O   UNL     1      45.620   8.176  11.407  0.00  0.00    +0.000 OA
ATOM     21  C   UNL     1      45.898   6.999  11.629  0.00  0.00    +0.000 C 
BRANCH  21  22
ATOM     22  C   UNL     1      44.879   5.941  11.638  0.00  0.00    +0.000 A 
ATOM     23  C   UNL     1      43.870   5.838  12.583  0.00  0.00    +0.000 A 
ATOM     24  S   UNL     1      43.030   4.350  12.505  0.00  0.00    +0.000 S 
ATOM     25  C   UNL     1      43.930   3.863  11.145  0.00  0.00    +0.000 A 
ATOM     26  N   UNL     1      43.784   2.628  10.600  0.00  0.00    +0.000 NA
ATOM     27  C   UNL     1      44.500   2.430   9.543  0.00  0.00    +0.000 A 
ATOM     28  N   UNL     1      45.312   3.368   8.955  0.00  0.00    +0.000 N 
ATOM     29  C   UNL     1      45.416   4.659   9.420  0.00  0.00    +0.000 A 
ATOM     30  O   UNL     1      45.912   5.549   8.739  0.00  0.00    +0.000 OA
ATOM     31  C   UNL     1      44.768   4.865  10.699  0.00  0.00    +0.000 A 
ATOM     32  H   UNL     1      45.736   3.192   8.055  0.00  0.00    +0.000 HD
ENDBRANCH  21  22
ENDBRANCH  19  21
ENDBRANCH   1  19
TORSDOF 8
ENDMDL
MODEL 6
REMARK VINA RESULT:    -7.897      2.899      3.857
REMARK INTER + INTRA:         -12.132
REMARK INTER:                 -11.316
REMARK INTRA:                  -0.816
REMARK UNBOUND:                -0.773
REMARK  Name = 
REMARK  8 active torsions:
REMARK  status: ('A' for Active; 'I' for Inactive)
REMARK    1  A    between atoms: C_2  and  C_3
REMARK    2  A    between atoms: C_2  and  C_20
REMARK    3  A    between atoms: C_3  and  N_4
REMARK    4  A    between atoms: N_4  and  C_5
REMARK    5  A    between atoms: C_8  and  C_9
REMARK    6  A    between atoms: C_9  and  O_10
REMARK    7  A    between atoms: C_9  and  C_11
REMARK    8  A    between atoms: C_11  and  C_12
REMARK                            x       y       z     vdW  Elec       q    Type
REMARK                         _______ _______ _______ _____ _____    ______ ____
ROOT
ATOM      1  N   UNL     1      47.693   5.911  14.544  0.00  0.00    +0.000 N 
ATOM      2  H   UNL     1      47.338   6.111  15.483  0.00  0.00    +0.000 HD
ENDROOT
BRANCH   1   3
ATOM      3  C   UNL     1      46.768   5.204  13.769  0.00  0.00    +0.000 A 
ATOM      4  C   UNL     1      45.902   5.855  12.910  0.00  0.00    +0.000 A 
ATOM      5  N   UNL     1      45.020   5.237  12.092  0.00  0.00    +0.000 NA
ATOM      6  C   UNL     1      45.020   3.890  12.113  0.00  0.00    +0.000 A 
ATOM      7  N   UNL     1      45.830   3.148  12.889  0.00  0.00    +0.000 NA
ATOM      8  C   UNL     1      46.667   3.824  13.698  0.00  0.00    +0.000 A 
BRANCH   6   9
ATOM      9  C   UNL     1      44.245   3.157  11.030  0.00  0.00    +0.000 C 
BRANCH   9  10
ATOM     10  O   UNL     1      42.852   3.150  11.394  0.00  0.00    +0.000 OA
ATOM     11  H   UNL     1      42.549   4.072  11.307  0.00  0.00    +0.000 HD
ENDBRANCH   9  10
BRANCH   9  12
ATOM     12  C   UNL     1      44.403   3.830   9.651  0.00  0.00    +0.000 C 
BRANCH  12  13
ATOM     13  C   UNL     1      45.355   3.143   8.690  0.00  0.00    +0.000 A 
ATOM     14  C   UNL     1      46.004   3.907   7.706  0.00  0.00    +0.000 A 
ATOM     15  C   UNL     1      46.869   3.307   6.791  0.00  0.00    +0.000 A 
ATOM     16  C   UNL     1      47.106   1.935   6.852  0.00  0.00    +0.000 A 
ATOM     17  C   UNL     1      46.488   1.168   7.836  0.00  0.00    +0.000 A 
ATOM     18  C   UNL     1      45.626   1.769   8.754  0.00  0.00    +0.000 A 
ENDBRANCH  12  13
ENDBRANCH   9  12
ENDBRANCH   6   9
ENDBRANCH   1   3
BRANCH   1  19
ATOM     19  C   UNL     1      48.260   7.109  13.913  0.00  0.00    +0.000 C 
BRANCH  19  21
ATOM     20  O   UNL     1      50.284   8.400  14.034  0.00  0.00    +0.000 OA
ATOM     21  C   UNL     1      49.517   7.628  14.606  0.00  0.00    +0.000 C 
BRANCH  21  22
ATOM     22  C   UNL     1      49.758   7.155  15.975  0.00  0.00    +0.000 A 
ATOM     23  C   UNL     1      50.753   6.256  16.327  0.00  0.00    +0.000 A 
ATOM     24  S   UNL     1      50.594   5.675  17.927  0.00  0.00    +0.000 S 
ATOM     25  C   UNL     1      49.258   6.691  18.211  0.00  0.00    +0.000 A 
ATOM     26  N   UNL     1      48.564   6.644  19.376  0.00  0.00    +0.000 NA
ATOM     27  C   UNL     1      47.610   7.512  19.457  0.00  0.00    +0.000 A 
ATOM     28  N   UNL     1      47.319   8.453  18.500  0.00  0.00    +0.000 N 
ATOM     29  C   UNL     1      48.058   8.596  17.348  0.00  0.00    +0.000 A 
ATOM     30  O   UNL     1      47.969   9.599  16.649  0.00  0.00    +0.000 OA
ATOM     31  C   UNL     1      49.019   7.532  17.144  0.00  0.00    +0.000 A 
ATOM     32  H   UNL     1      46.651   9.188  18.686  0.00  0.00    +0.000 HD
ENDBRANCH  21  22
ENDBRANCH  19  21
ENDBRANCH   1  19
TORSDOF 8
ENDMDL
MODEL 7
REMARK VINA RESULT:    -7.563      4.369      5.385
REMARK INTER + INTRA:         -11.652
REMARK INTER:                 -10.699
REMARK INTRA:                  -0.952
REMARK UNBOUND:                -0.773
REMARK  Name = 
REMARK  8 active torsions:
REMARK  status: ('A' for Active; 'I' for Inactive)
REMARK    1  A    between atoms: C_2  and  C_3
REMARK    2  A    between atoms: C_2  and  C_20
REMARK    3  A    between atoms: C_3  and  N_4
REMARK    4  A    between atoms: N_4  and  C_5
REMARK    5  A    between atoms: C_8  and  C_9
REMARK    6  A    between atoms: C_9  and  O_10
REMARK    7  A    between atoms: C_9  and  C_11
REMARK    8  A    between atoms: C_11  and  C_12
REMARK                            x       y       z     vdW  Elec       q    Type
REMARK                         _______ _______ _______ _____ _____    ______ ____
ROOT
ATOM      1  N   UNL     1      46.601   7.308  13.605  0.00  0.00    +0.000 N 
ATOM      2  H   UNL     1      46.662   7.185  14.619  0.00  0.00    +0.000 HD
ENDROOT
BRANCH   1   3
ATOM      3  C   UNL     1      45.985   6.220  12.976  0.00  0.00    +0.000 A 
ATOM      4  C   UNL     1      45.593   6.283  11.653  0.00  0.00    +0.000 A 
ATOM      5  N   UNL     1      45.042   5.258  10.964  0.00  0.00    +0.000 NA
ATOM      6  C   UNL     1      44.898   4.094  11.628  0.00  0.00    +0.000 A 
ATOM      7  N   UNL     1      45.263   3.906  12.909  0.00  0.00    +0.000 NA
ATOM      8  C   UNL     1      45.782   4.973  13.544  0.00  0.00    +0.000 A 
BRANCH   6   9
ATOM      9  C   UNL     1      44.538   2.853  10.827  0.00  0.00    +0.000 C 
BRANCH   9  10
ATOM     10  O   UNL     1      43.313   2.310  11.357  0.00  0.00    +0.000 OA
ATOM     11  H   UNL     1      43.092   1.550  10.789  0.00  0.00    +0.000 HD
ENDBRANCH   9  10
BRANCH   9  12
ATOM     12  C   UNL     1      44.345   3.168   9.329  0.00  0.00    +0.000 C 
BRANCH  12  13
ATOM     13  C   UNL     1      45.467   2.717   8.413  0.00  0.00    +0.000 A 
ATOM     14  C   UNL     1      45.853   1.367   8.417  0.00  0.00    +0.000 A 
ATOM     15  C   UNL     1      46.896   0.920   7.605  0.00  0.00    +0.000 A 
ATOM     16  C   UNL     1      47.561   1.814   6.768  0.00  0.00    +0.000 A 
ATOM     17  C   UNL     1      47.174   3.151   6.736  0.00  0.00    +0.000 A 
ATOM     18  C   UNL     1      46.128   3.598   7.546  0.00  0.00    +0.000 A 
ENDBRANCH  12  13
ENDBRANCH   9  12
ENDBRANCH   6   9
ENDBRANCH   1   3
BRANCH   1  19
ATOM     19  C   UNL     1      46.066   8.628  13.251  0.00  0.00    +0.000 C 
BRANCH  19  21
ATOM     20  O   UNL     1      46.602  10.441  11.767  0.00  0.00    +0.000 OA
ATOM     21  C   UNL     1      47.007   9.457  12.382  0.00  0.00    +0.000 C 
BRANCH  21  22
ATOM     22  C   UNL     1      48.407   9.016  12.319  0.00  0.00    +0.000 A 
ATOM     23  C   UNL     1      48.919   8.180  11.338  0.00  0.00    +0.000 A 
ATOM     24  S   UNL     1      50.490   7.611  11.698  0.00  0.00    +0.000 S 
ATOM     25  C   UNL     1      50.554   8.550  13.116  0.00  0.00    +0.000 A 
ATOM     26  N   UNL     1      51.606   8.476  13.972  0.00  0.00    +0.000 NA
ATOM     27  C   UNL     1      51.528   9.288  14.974  0.00  0.00    +0.000 A 
ATOM     28  N   UNL     1      50.519  10.199  15.174  0.00  0.00    +0.000 N 
ATOM     29  C   UNL     1      49.485  10.371  14.282  0.00  0.00    +0.000 A 
ATOM     30  O   UNL     1      48.760  11.358  14.323  0.00  0.00    +0.000 OA
ATOM     31  C   UNL     1      49.446   9.362  13.243  0.00  0.00    +0.000 A 
ATOM     32  H   UNL     1      50.590  10.896  15.901  0.00  0.00    +0.000 HD
ENDBRANCH  21  22
ENDBRANCH  19  21
ENDBRANCH   1  19
TORSDOF 8
ENDMDL
MODEL 8
REMARK VINA RESULT:    -7.416      4.145      5.089
REMARK INTER + INTRA:         -11.442
REMARK INTER:                 -10.159
REMARK INTRA:                  -1.283
REMARK UNBOUND:                -0.773
REMARK  Name = 
REMARK  8 active torsions:
REMARK  status: ('A' for Active; 'I' for Inactive)
REMARK    1  A    between atoms: C_2  and  C_3
REMARK    2  A    between atoms: C_2  and  C_20
REMARK    3  A    between atoms: C_3  and  N_4
REMARK    4  A    between atoms: N_4  and  C_5
REMARK    5  A    between atoms: C_8  and  C_9
REMARK    6  A    between atoms: C_9  and  O_10
REMARK    7  A    between atoms: C_9  and  C_11
REMARK    8  A    between atoms: C_11  and  C_12
REMARK                            x       y       z     vdW  Elec       q    Type
REMARK                         _______ _______ _______ _____ _____    ______ ____
ROOT
ATOM      1  N   UNL     1      48.029   6.456  13.749  0.00  0.00    +0.000 N 
ATOM      2  H   UNL     1      48.509   5.903  14.465  0.00  0.00    +0.000 HD
ENDROOT
BRANCH   1   3
ATOM      3  C   UNL     1      46.999   5.740  13.131  0.00  0.00    +0.000 A 
ATOM      4  C   UNL     1      46.425   6.178  11.952  0.00  0.00    +0.000 A 
ATOM      5  N   UNL     1      45.465   5.514  11.270  0.00  0.00    +0.000 NA
ATOM      6  C   UNL     1      45.073   4.330  11.779  0.00  0.00    +0.000 A 
ATOM      7  N   UNL     1      45.573   3.791  12.905  0.00  0.00    +0.000 NA
ATOM      8  C   UNL     1      46.508   4.514  13.550  0.00  0.00    +0.000 A 
BRANCH   6   9
ATOM      9  C   UNL     1      44.202   3.432  10.915  0.00  0.00    +0.000 C 
BRANCH   9  10
ATOM     10  O   UNL     1      42.841   3.543  11.373  0.00  0.00    +0.000 OA
ATOM     11  H   UNL     1      42.612   2.670  11.740  0.00  0.00    +0.000 HD
ENDBRANCH   9  10
BRANCH   9  12
ATOM     12  C   UNL     1      44.267   3.825   9.425  0.00  0.00    +0.000 C 
BRANCH  12  13
ATOM     13  C   UNL     1      45.290   3.076   8.592  0.00  0.00    +0.000 A 
ATOM     14  C   UNL     1      46.052   3.782   7.647  0.00  0.00    +0.000 A 
ATOM     15  C   UNL     1      46.987   3.123   6.848  0.00  0.00    +0.000 A 
ATOM     16  C   UNL     1      47.182   1.750   6.989  0.00  0.00    +0.000 A 
ATOM     17  C   UNL     1      46.450   1.041   7.938  0.00  0.00    +0.000 A 
ATOM     18  C   UNL     1      45.518   1.700   8.740  0.00  0.00    +0.000 A 
ENDBRANCH  12  13
ENDBRANCH   9  12
ENDBRANCH   6   9
ENDBRANCH   1   3
BRANCH   1  19
ATOM     19  C   UNL     1      47.662   7.787  14.249  0.00  0.00    +0.000 C 
BRANCH  19  21
ATOM     20  O   UNL     1      48.000   9.868  13.097  0.00  0.00    +0.000 OA
ATOM     21  C   UNL     1      48.515   8.913  13.673  0.00  0.00    +0.000 C 
BRANCH  21  22
ATOM     22  C   UNL     1      49.969   8.790  13.839  0.00  0.00    +0.000 A 
ATOM     23  C   UNL     1      50.639   8.996  15.035  0.00  0.00    +0.000 A 
ATOM     24  S   UNL     1      52.337   9.072  14.846  0.00  0.00    +0.000 S 
ATOM     25  C   UNL     1      52.212   8.729  13.183  0.00  0.00    +0.000 A 
ATOM     26  N   UNL     1      53.301   8.727  12.373  0.00  0.00    +0.000 NA
ATOM     27  C   UNL     1      53.048   8.399  11.149  0.00  0.00    +0.000 A 
ATOM     28  N   UNL     1      51.815   8.025  10.674  0.00  0.00    +0.000 N 
ATOM     29  C   UNL     1      50.705   7.922  11.481  0.00  0.00    +0.000 A 
ATOM     30  O   UNL     1      49.698   7.329  11.115  0.00  0.00    +0.000 OA
ATOM     31  C   UNL     1      50.912   8.450  12.815  0.00  0.00    +0.000 A 
ATOM     32  H   UNL     1      51.714   7.648   9.742  0.00  0.00    +0.000 HD
ENDBRANCH  21  22
ENDBRANCH  19  21
ENDBRANCH   1  19
TORSDOF 8
ENDMDL
MODEL 9
REMARK VINA RESULT:    -7.171      2.983      3.816
REMARK INTER + INTRA:         -11.088
REMARK INTER:                  -9.809
REMARK INTRA:                  -1.279
REMARK UNBOUND:                -0.773
REMARK  Name = 
REMARK  8 active torsions:
REMARK  status: ('A' for Active; 'I' for Inactive)
REMARK    1  A    between atoms: C_2  and  C_3
REMARK    2  A    between atoms: C_2  and  C_20
REMARK    3  A    between atoms: C_3  and  N_4
REMARK    4  A    between atoms: N_4  and  C_5
REMARK    5  A    between atoms: C_8  and  C_9
REMARK    6  A    between atoms: C_9  and  O_10
REMARK    7  A    between atoms: C_9  and  C_11
REMARK    8  A    between atoms: C_11  and  C_12
REMARK                            x       y       z     vdW  Elec       q    Type
REMARK                         _______ _______ _______ _____ _____    ______ ____
ROOT
ATOM      1  N   UNL     1      48.382   8.182  13.907  0.00  0.00    +0.000 N 
ATOM      2  H   UNL     1      48.401   9.115  13.484  0.00  0.00    +0.000 HD
ENDROOT
BRANCH   1   3
ATOM      3  C   UNL     1      47.306   7.416  13.448  0.00  0.00    +0.000 A 
ATOM      4  C   UNL     1      47.321   6.036  13.527  0.00  0.00    +0.000 A 
ATOM      5  N   UNL     1      46.299   5.232  13.154  0.00  0.00    +0.000 NA
ATOM      6  C   UNL     1      45.187   5.843  12.701  0.00  0.00    +0.000 A 
ATOM      7  N   UNL     1      45.047   7.177  12.600  0.00  0.00    +0.000 NA
ATOM      8  C   UNL     1      46.109   7.918  12.964  0.00  0.00    +0.000 A 
BRANCH   6   9
ATOM      9  C   UNL     1      43.931   5.004  12.527  0.00  0.00    +0.000 C 
BRANCH   9  10
ATOM     10  O   UNL     1      42.912   5.524  13.402  0.00  0.00    +0.000 OA
ATOM     11  H   UNL     1      42.477   6.242  12.906  0.00  0.00    +0.000 HD
ENDBRANCH   9  10
BRANCH   9  12
ATOM     12  C   UNL     1      43.413   5.036  11.073  0.00  0.00    +0.000 C 
BRANCH  12  13
ATOM     13  C   UNL     1      44.202   4.208  10.077  0.00  0.00    +0.000 A 
ATOM     14  C   UNL     1      44.108   2.807  10.125  0.00  0.00    +0.000 A 
ATOM     15  C   UNL     1      44.836   2.013   9.239  0.00  0.00    +0.000 A 
ATOM     16  C   UNL     1      45.660   2.606   8.284  0.00  0.00    +0.000 A 
ATOM     17  C   UNL     1      45.745   3.994   8.210  0.00  0.00    +0.000 A 
ATOM     18  C   UNL     1      45.014   4.789   9.093  0.00  0.00    +0.000 A 
ENDBRANCH  12  13
ENDBRANCH   9  12
ENDBRANCH   6   9
ENDBRANCH   1   3
BRANCH   1  19
ATOM     19  C   UNL     1      49.696   7.531  13.841  0.00  0.00    +0.000 C 
BRANCH  19  21
ATOM     20  O   UNL     1      51.222   9.033  14.932  0.00  0.00    +0.000 OA
ATOM     21  C   UNL     1      50.643   7.949  14.962  0.00  0.00    +0.000 C 
BRANCH  21  22
ATOM     22  C   UNL     1      50.826   6.993  16.062  0.00  0.00    +0.000 A 
ATOM     23  C   UNL     1      52.010   6.322  16.325  0.00  0.00    +0.000 A 
ATOM     24  S   UNL     1      51.827   5.068  17.472  0.00  0.00    +0.000 S 
ATOM     25  C   UNL     1      50.190   5.466  17.713  0.00  0.00    +0.000 A 
ATOM     26  N   UNL     1      49.389   4.724  18.520  0.00  0.00    +0.000 NA
ATOM     27  C   UNL     1      48.187   5.185  18.637  0.00  0.00    +0.000 A 
ATOM     28  N   UNL     1      47.729   6.344  18.061  0.00  0.00    +0.000 N 
ATOM     29  C   UNL     1      48.534   7.173  17.315  0.00  0.00    +0.000 A 
ATOM     30  O   UNL     1      48.200   8.321  17.047  0.00  0.00    +0.000 OA
ATOM     31  C   UNL     1      49.831   6.601  17.017  0.00  0.00    +0.000 A 
ATOM     32  H   UNL     1      46.822   6.718  18.306  0.00  0.00    +0.000 HD
ENDBRANCH  21  22
ENDBRANCH  19  21
ENDBRANCH   1  19
TORSDOF 8
ENDMDL
