MODEL 1
REMARK VINA RESULT:    -7.660      0.000      0.000
REMARK INTER + INTRA:         -12.421
REMARK INTER:                 -11.467
REMARK INTRA:                  -0.954
REMARK UNBOUND:                -0.954
REMARK  Name = 
REMARK  9 active torsions:
REMARK  status: ('A' for Active; 'I' for Inactive)
REMARK    1  A    between atoms: C_2  and  C_13
REMARK    2  A    between atoms: N_3  and  CA_4
REMARK    3  A    between atoms: CA_4  and  C_5
REMARK    4  A    between atoms: CA_4  and  C_7
REMARK    5  A    between atoms: C_5  and  O_6
REMARK    6  A    between atoms: C_16  and  C_17
REMARK    7  A    between atoms: C_17  and  O_18
REMARK    8  A    between atoms: O_18  and  C_19
REMARK    9  A    between atoms: C_19  and  C_20
REMARK                            x       y       z     vdW  Elec       q    Type
REMARK                         _______ _______ _______ _____ _____    ______ ____
ROOT
ATOM      1  C   UNL     1      46.539   4.358  13.788  0.00  0.00    +0.000 A 
ATOM      2  C   UNL     1      46.148   5.618  13.316  0.00  0.00    +0.000 A 
ATOM      3  C   UNL     1      45.264   5.719  12.237  0.00  0.00    +0.000 A 
ATOM      4  C   UNL     1      44.749   4.569  11.623  0.00  0.00    +0.000 A 
ATOM      5  C   UNL     1      45.170   3.311  12.077  0.00  0.00    +0.000 A 
ATOM      6  C   UNL     1      46.055   3.207  13.152  0.00  0.00    +0.000 A 
ENDROOT
BRANCH   1   8
ATOM      7  O   UNL     1      47.794   3.078  15.317  0.00  0.00    +0.000 OA
ATOM      8  C   UNL     1      47.388   4.191  14.998  0.00  0.00    +0.000 C 
ATOM      9  N   UNL     1      47.683   5.324  15.727  0.00  0.00    +0.000 N 
ATOM     10  H   UNL     1      47.436   6.240  15.378  0.00  0.00    +0.000 HD
BRANCH   9  11
ATOM     11  CA  UNL     1      48.474   5.240  16.961  0.00  0.00    +0.000 C 
BRANCH  11  12
ATOM     12  C   UNL     1      49.848   5.835  16.725  0.00  0.00    +0.000 A 
ATOM     13  C   UNL     1      50.117   6.874  15.825  0.00  0.00    +0.000 A 
ATOM     14  C   UNL     1      51.428   7.313  15.636  0.00  0.00    +0.000 A 
ATOM     15  C   UNL     1      52.437   6.714  16.365  0.00  0.00    +0.000 A 
ATOM     16  N   UNL     1      52.224   5.739  17.274  0.00  0.00    +0.000 NA
ATOM     17  C   UNL     1      50.941   5.339  17.438  0.00  0.00    +0.000 A 
ENDBRANCH  11  12
BRANCH  11  18
ATOM     18  C   UNL     1      47.652   5.833  18.136  0.00  0.00    +0.000 C 
BRANCH  18  19
ATOM     19  O   UNL     1      46.512   5.027  18.467  0.00  0.00    +0.000 OA
ATOM     20  H   UNL     1      45.724   5.544  18.226  0.00  0.00    +0.000 HD
ENDBRANCH  18  19
ENDBRANCH  11  18
ENDBRANCH   9  11
ENDBRANCH   1   8
BRANCH   4  21
ATOM     21  C   UNL     1      43.695   4.682  10.551  0.00  0.00    +0.000 C 
BRANCH  21  22
ATOM     22  O   UNL     1      43.948   3.734   9.519  0.00  0.00    +0.000 OA
BRANCH  22  23
ATOM     23  C   UNL     1      44.833   4.287   8.540  0.00  0.00    +0.000 C 
BRANCH  23  24
ATOM     24  C   UNL     1      45.727   3.237   7.926  0.00  0.00    +0.000 A 
ATOM     25  C   UNL     1      46.602   3.551   6.888  0.00  0.00    +0.000 A 
ATOM     26  C   UNL     1      47.436   2.557   6.384  0.00  0.00    +0.000 A 
ATOM     27  C   UNL     1      47.387   1.283   6.937  0.00  0.00    +0.000 A 
ATOM     28  C   UNL     1      46.504   1.055   7.976  0.00  0.00    +0.000 A 
ATOM     29  N   UNL     1      45.680   1.998   8.485  0.00  0.00    +0.000 NA
ENDBRANCH  23  24
ENDBRANCH  22  23
ENDBRANCH  21  22
ENDBRANCH   4  21
TORSDOF 9
ENDMDL
MODEL 2
REMARK VINA RESULT:    -7.592      1.814      2.299
REMARK INTER + INTRA:         -12.319
REMARK INTER:                 -12.353
REMARK INTRA:                   0.033
REMARK UNBOUND:                -0.954
REMARK  Name = 
REMARK  9 active torsions:
REMARK  status: ('A' for Active; 'I' for Inactive)
REMARK    1  A    between atoms: C_2  and  C_13
REMARK    2  A    between atoms: N_3  and  CA_4
REMARK    3  A    between atoms: CA_4  and  C_5
REMARK    4  A    between atoms: CA_4  and  C_7
REMARK    5  A    between atoms: C_5  and  O_6
REMARK    6  A    between atoms: C_16  and  C_17
REMARK    7  A    between atoms: C_17  and  O_18
REMARK    8  A    between atoms: O_18  and  C_19
REMARK    9  A    between atoms: C_19  and  C_20
REMARK                            x       y       z     vdW  Elec       q    Type
REMARK                         _______ _______ _______ _____ _____    ______ ____
ROOT
ATOM      1  C   UNL     1      46.729   5.308  13.477  0.00  0.00    +0.000 A 
ATOM      2  C   UNL     1      46.624   6.181  12.387  0.00  0.00    +0.000 A 
ATOM      3  C   UNL     1      45.653   5.963  11.405  0.00  0.00    +0.000 A 
ATOM      4  C   UNL     1      44.767   4.881  11.502  0.00  0.00    +0.000 A 
ATOM      5  C   UNL     1      44.898   3.991  12.577  0.00  0.00    +0.000 A 
ATOM      6  C   UNL     1      45.869   4.205  13.558  0.00  0.00    +0.000 A 
ENDROOT
BRANCH   1   8
ATOM      7  O   UNL     1      48.712   6.171  14.415  0.00  0.00    +0.000 OA
ATOM      8  C   UNL     1      47.668   5.553  14.605  0.00  0.00    +0.000 C 
ATOM      9  N   UNL     1      47.316   5.058  15.843  0.00  0.00    +0.000 N 
ATOM     10  H   UNL     1      46.400   4.659  15.996  0.00  0.00    +0.000 HD
BRANCH   9  11
ATOM     11  CA  UNL     1      48.209   5.215  16.997  0.00  0.00    +0.000 C 
BRANCH  11  12
ATOM     12  C   UNL     1      49.145   4.024  17.080  0.00  0.00    +0.000 A 
ATOM     13  C   UNL     1      50.385   4.037  17.730  0.00  0.00    +0.000 A 
ATOM     14  C   UNL     1      51.201   2.905  17.698  0.00  0.00    +0.000 A 
ATOM     15  C   UNL     1      50.750   1.782  17.033  0.00  0.00    +0.000 A 
ATOM     16  N   UNL     1      49.546   1.708  16.427  0.00  0.00    +0.000 NA
ATOM     17  C   UNL     1      48.775   2.819  16.480  0.00  0.00    +0.000 A 
ENDBRANCH  11  12
BRANCH  11  18
ATOM     18  C   UNL     1      48.871   6.617  16.944  0.00  0.00    +0.000 C 
BRANCH  18  19
ATOM     19  O   UNL     1      47.931   7.675  17.176  0.00  0.00    +0.000 OA
ATOM     20  H   UNL     1      47.258   7.610  16.477  0.00  0.00    +0.000 HD
ENDBRANCH  18  19
ENDBRANCH  11  18
ENDBRANCH   9  11
ENDBRANCH   1   8
BRANCH   4  21
ATOM     21  C   UNL     1      43.637   4.728  10.516  0.00  0.00    +0.000 C 
BRANCH  21  22
ATOM     22  O   UNL     1      44.145   4.291   9.259  0.00  0.00    +0.000 OA
BRANCH  22  23
ATOM     23  C   UNL     1      44.452   2.894   9.303  0.00  0.00    +0.000 C 
BRANCH  23  24
ATOM     24  C   UNL     1      45.566   2.528   8.352  0.00  0.00    +0.000 A 
ATOM     25  C   UNL     1      46.152   3.484   7.526  0.00  0.00    +0.000 A 
ATOM     26  C   UNL     1      47.205   3.105   6.697  0.00  0.00    +0.000 A 
ATOM     27  C   UNL     1      47.653   1.791   6.724  0.00  0.00    +0.000 A 
ATOM     28  C   UNL     1      47.030   0.906   7.584  0.00  0.00    +0.000 A 
ATOM     29  N   UNL     1      46.005   1.241   8.399  0.00  0.00    +0.000 NA
ENDBRANCH  23  24
ENDBRANCH  22  23
ENDBRANCH  21  22
ENDBRANCH   4  21
TORSDOF 9
ENDMDL
MODEL 3
REMARK VINA RESULT:    -7.551      2.025      2.546
REMARK INTER + INTRA:         -12.258
REMARK INTER:                 -11.253
REMARK INTRA:                  -1.005
REMARK UNBOUND:                -0.954
REMARK  Name = 
REMARK  9 active torsions:
REMARK  status: ('A' for Active; 'I' for Inactive)
REMARK    1  A    between atoms: C_2  and  C_13
REMARK    2  A    between atoms: N_3  and  CA_4
REMARK    3  A    between atoms: CA_4  and  C_5
REMARK    4  A    between atoms: CA_4  and  C_7
REMARK    5  A    between atoms: C_5  and  O_6
REMARK    6  A    between atoms: C_16  and  C_17
REMARK    7  A    between atoms: C_17  and  O_18
REMARK    8  A    between atoms: O_18  and  C_19
REMARK    9  A    between atoms: C_19  and  C_20
REMARK                            x       y       z     vdW  Elec       q    Type
REMARK                         _______ _______ _______ _____ _____    ______ ____
ROOT
ATOM      1  C   UNL     1      47.051   5.776  13.091  0.00  0.00    +0.000 A 
ATOM      2  C   UNL     1      46.838   6.425  11.868  0.00  0.00    +0.000 A 
ATOM      3  C   UNL     1      45.754   6.064  11.062  0.00  0.00    +0.000 A 
ATOM      4  C   UNL     1      44.863   5.061  11.467  0.00  0.00    +0.000 A 
ATOM      5  C   UNL     1      45.100   4.391  12.675  0.00  0.00    +0.000 A 
ATOM      6  C   UNL     1      46.183   4.748  13.481  0.00  0.00    +0.000 A 
ENDROOT
BRANCH   1   8
ATOM      7  O   UNL     1      49.159   6.690  13.613  0.00  0.00    +0.000 OA
ATOM      8  C   UNL     1      48.121   6.193  14.037  0.00  0.00    +0.000 C 
ATOM      9  N   UNL     1      47.890   5.993  15.383  0.00  0.00    +0.000 N 
ATOM     10  H   UNL     1      46.983   5.692  15.711  0.00  0.00    +0.000 HD
BRANCH   9  11
ATOM     11  CA  UNL     1      48.913   6.332  16.379  0.00  0.00    +0.000 C 
BRANCH  11  12
ATOM     12  C   UNL     1      48.472   7.550  17.166  0.00  0.00    +0.000 A 
ATOM     13  C   UNL     1      48.409   8.849  16.644  0.00  0.00    +0.000 A 
ATOM     14  C   UNL     1      48.046   9.915  17.468  0.00  0.00    +0.000 A 
ATOM     15  C   UNL     1      47.739   9.655  18.790  0.00  0.00    +0.000 A 
ATOM     16  N   UNL     1      47.746   8.418  19.327  0.00  0.00    +0.000 NA
ATOM     17  C   UNL     1      48.096   7.404  18.502  0.00  0.00    +0.000 A 
ENDBRANCH  11  12
BRANCH  11  18
ATOM     18  C   UNL     1      49.265   5.063  17.201  0.00  0.00    +0.000 C 
BRANCH  18  19
ATOM     19  O   UNL     1      48.863   3.855  16.541  0.00  0.00    +0.000 OA
ATOM     20  H   UNL     1      47.940   3.982  16.264  0.00  0.00    +0.000 HD
ENDBRANCH  18  19
ENDBRANCH  11  18
ENDBRANCH   9  11
ENDBRANCH   1   8
BRANCH   4  21
ATOM     21  C   UNL     1      43.623   4.770  10.661  0.00  0.00    +0.000 C 
BRANCH  21  22
ATOM     22  O   UNL     1      43.984   4.268   9.378  0.00  0.00    +0.000 OA
BRANCH  22  23
ATOM     23  C   UNL     1      44.379   2.896   9.472  0.00  0.00    +0.000 C 
BRANCH  23  24
ATOM     24  C   UNL     1      45.460   2.548   8.477  0.00  0.00    +0.000 A 
ATOM     25  C   UNL     1      46.020   3.519   7.651  0.00  0.00    +0.000 A 
ATOM     26  C   UNL     1      47.044   3.157   6.780  0.00  0.00    +0.000 A 
ATOM     27  C   UNL     1      47.491   1.842   6.765  0.00  0.00    +0.000 A 
ATOM     28  C   UNL     1      46.895   0.940   7.627  0.00  0.00    +0.000 A 
ATOM     29  N   UNL     1      45.899   1.260   8.483  0.00  0.00    +0.000 NA
ENDBRANCH  23  24
ENDBRANCH  22  23
ENDBRANCH  21  22
ENDBRANCH   4  21
TORSDOF 9
ENDMDL
MODEL 4
REMARK VINA RESULT:    -7.177      3.171      3.819
REMARK INTER + INTRA:         -11.697
REMARK INTER:                 -10.634
REMARK INTRA:                  -1.063
REMARK UNBOUND:                -0.954
REMARK  Name = 
REMARK  9 active torsions:
REMARK  status: ('A' for Active; 'I' for Inactive)
REMARK    1  A    between atoms: C_2  and  C_13
REMARK    2  A    between atoms: N_3  and  CA_4
REMARK    3  A    between atoms: CA_4  and  C_5
REMARK    4  A    between atoms: CA_4  and  C_7
REMARK    5  A    between atoms: C_5  and  O_6
REMARK    6  A    between atoms: C_16  and  C_17
REMARK    7  A    between atoms: C_17  and  O_18
REMARK    8  A    between atoms: O_18  and  C_19
REMARK    9  A    between atoms: C_19  and  C_20
REMARK                            x       y       z     vdW  Elec       q    Type
REMARK                         _______ _______ _______ _____ _____    ______ ____
ROOT
ATOM      1  C   UNL     1      47.045   6.040  12.908  0.00  0.00    +0.000 A 
ATOM      2  C   UNL     1      46.503   4.952  13.603  0.00  0.00    +0.000 A 
ATOM      3  C   UNL     1      45.408   4.260  13.076  0.00  0.00    +0.000 A 
ATOM      4  C   UNL     1      44.847   4.635  11.847  0.00  0.00    +0.000 A 
ATOM      5  C   UNL     1      45.373   5.746  11.173  0.00  0.00    +0.000 A 
ATOM      6  C   UNL     1      46.465   6.440  11.698  0.00  0.00    +0.000 A 
ENDROOT
BRANCH   1   8
ATOM      7  O   UNL     1      48.919   6.303  14.315  0.00  0.00    +0.000 OA
ATOM      8  C   UNL     1      48.275   6.742  13.366  0.00  0.00    +0.000 C 
ATOM      9  N   UNL     1      48.643   7.886  12.687  0.00  0.00    +0.000 N 
ATOM     10  H   UNL     1      48.164   8.158  11.840  0.00  0.00    +0.000 HD
BRANCH   9  11
ATOM     11  CA  UNL     1      49.814   8.664  13.105  0.00  0.00    +0.000 C 
BRANCH  11  12
ATOM     12  C   UNL     1      50.986   8.346  12.196  0.00  0.00    +0.000 A 
ATOM     13  C   UNL     1      50.872   7.724  10.947  0.00  0.00    +0.000 A 
ATOM     14  C   UNL     1      52.018   7.420  10.211  0.00  0.00    +0.000 A 
ATOM     15  C   UNL     1      53.250   7.762  10.734  0.00  0.00    +0.000 A 
ATOM     16  N   UNL     1      53.409   8.399  11.913  0.00  0.00    +0.000 NA
ATOM     17  C   UNL     1      52.278   8.685  12.601  0.00  0.00    +0.000 A 
ENDBRANCH  11  12
BRANCH  11  18
ATOM     18  C   UNL     1      49.417  10.159  13.229  0.00  0.00    +0.000 C 
BRANCH  18  19
ATOM     19  O   UNL     1      48.471  10.387  14.283  0.00  0.00    +0.000 OA
ATOM     20  H   UNL     1      47.587  10.345  13.879  0.00  0.00    +0.000 HD
ENDBRANCH  18  19
ENDBRANCH  11  18
ENDBRANCH   9  11
ENDBRANCH   1   8
BRANCH   4  21
ATOM     21  C   UNL     1      43.756   3.805  11.220  0.00  0.00    +0.000 C 
BRANCH  21  22
ATOM     22  O   UNL     1      44.004   3.651   9.826  0.00  0.00    +0.000 OA
BRANCH  22  23
ATOM     23  C   UNL     1      44.477   2.329   9.546  0.00  0.00    +0.000 C 
BRANCH  23  24
ATOM     24  C   UNL     1      45.529   2.321   8.464  0.00  0.00    +0.000 A 
ATOM     25  C   UNL     1      45.813   3.467   7.725  0.00  0.00    +0.000 A 
ATOM     26  C   UNL     1      46.822   3.420   6.767  0.00  0.00    +0.000 A 
ATOM     27  C   UNL     1      47.529   2.239   6.581  0.00  0.00    +0.000 A 
ATOM     28  C   UNL     1      47.198   1.149   7.365  0.00  0.00    +0.000 A 
ATOM     29  N   UNL     1      46.224   1.163   8.302  0.00  0.00    +0.000 NA
ENDBRANCH  23  24
ENDBRANCH  22  23
ENDBRANCH  21  22
ENDBRANCH   4  21
TORSDOF 9
ENDMDL
MODEL 5
REMARK VINA RESULT:    -7.068      2.164      8.618
REMARK INTER + INTRA:         -11.534
REMARK INTER:                 -10.372
REMARK INTRA:                  -1.162
REMARK UNBOUND:                -0.954
REMARK  Name = 
REMARK  9 active torsions:
REMARK  status: ('A' for Active; 'I' for Inactive)
REMARK    1  A    between atoms: C_2  and  C_13
REMARK    2  A    between atoms: N_3  and  CA_4
REMARK    3  A    between atoms: CA_4  and  C_5
REMARK    4  A    between atoms: CA_4  and  C_7
REMARK    5  A    between atoms: C_5  and  O_6
REMARK    6  A    between atoms: C_16  and  C_17
REMARK    7  A    between atoms: C_17  and  O_18
REMARK    8  A    between atoms: O_18  and  C_19
REMARK    9  A    between atoms: C_19  and  C_20
REMARK                            x       y       z     vdW  Elec       q    Type
REMARK                         _______ _______ _______ _____ _____    ______ ____
ROOT
ATOM      1  C   UNL     1      46.076   6.583  12.650  0.00  0.00    +0.000 A 
ATOM      2  C   UNL     1      46.119   7.963  12.882  0.00  0.00    +0.000 A 
ATOM      3  C   UNL     1      47.102   8.503  13.718  0.00  0.00    +0.000 A 
ATOM      4  C   UNL     1      48.060   7.678  14.322  0.00  0.00    +0.000 A 
ATOM      5  C   UNL     1      47.991   6.294  14.114  0.00  0.00    +0.000 A 
ATOM      6  C   UNL     1      47.010   5.751  13.282  0.00  0.00    +0.000 A 
ENDROOT
BRANCH   1   8
ATOM      7  O   UNL     1      44.260   6.655  11.149  0.00  0.00    +0.000 OA
ATOM      8  C   UNL     1      45.124   5.968  11.685  0.00  0.00    +0.000 C 
ATOM      9  N   UNL     1      45.258   4.618  11.435  0.00  0.00    +0.000 N 
ATOM     10  H   UNL     1      46.048   4.103  11.798  0.00  0.00    +0.000 HD
BRANCH   9  11
ATOM     11  CA  UNL     1      44.329   3.925  10.535  0.00  0.00    +0.000 C 
BRANCH  11  12
ATOM     12  C   UNL     1      45.083   3.412   9.324  0.00  0.00    +0.000 A 
ATOM     13  C   UNL     1      45.399   2.065   9.101  0.00  0.00    +0.000 A 
ATOM     14  C   UNL     1      46.150   1.701   7.982  0.00  0.00    +0.000 A 
ATOM     15  C   UNL     1      46.552   2.689   7.105  0.00  0.00    +0.000 A 
ATOM     16  N   UNL     1      46.238   3.993   7.255  0.00  0.00    +0.000 NA
ATOM     17  C   UNL     1      45.504   4.314   8.346  0.00  0.00    +0.000 A 
ENDBRANCH  11  12
BRANCH  11  18
ATOM     18  C   UNL     1      43.519   2.877  11.345  0.00  0.00    +0.000 C 
BRANCH  18  19
ATOM     19  O   UNL     1      44.105   2.604  12.625  0.00  0.00    +0.000 OA
ATOM     20  H   UNL     1      43.531   1.952  13.062  0.00  0.00    +0.000 HD
ENDBRANCH  18  19
ENDBRANCH  11  18
ENDBRANCH   9  11
ENDBRANCH   1   8
BRANCH   4  21
ATOM     21  C   UNL     1      49.196   8.277  15.112  0.00  0.00    +0.000 C 
BRANCH  21  22
ATOM     22  O   UNL     1      50.168   7.277  15.401  0.00  0.00    +0.000 OA
BRANCH  22  23
ATOM     23  C   UNL     1      50.288   7.093  16.816  0.00  0.00    +0.000 C 
BRANCH  23  24
ATOM     24  C   UNL     1      49.482   5.914  17.305  0.00  0.00    +0.000 A 
ATOM     25  C   UNL     1      48.271   6.094  17.970  0.00  0.00    +0.000 A 
ATOM     26  C   UNL     1      47.544   4.973  18.364  0.00  0.00    +0.000 A 
ATOM     27  C   UNL     1      48.035   3.707  18.072  0.00  0.00    +0.000 A 
ATOM     28  C   UNL     1      49.237   3.613  17.394  0.00  0.00    +0.000 A 
ATOM     29  N   UNL     1      49.966   4.680  17.000  0.00  0.00    +0.000 NA
ENDBRANCH  23  24
ENDBRANCH  22  23
ENDBRANCH  21  22
ENDBRANCH   4  21
TORSDOF 9
ENDMDL
MODEL 6
REMARK VINA RESULT:    -6.831      2.670      3.178
REMARK INTER + INTRA:         -11.180
REMARK INTER:                 -10.227
REMARK INTRA:                  -0.953
REMARK UNBOUND:                -0.954
REMARK  Name = 
REMARK  9 active torsions:
REMARK  status: ('A' for Active; 'I' for Inactive)
REMARK    1  A    between atoms: C_2  and  C_13
REMARK    2  A    between atoms: N_3  and  CA_4
REMARK    3  A    between atoms: CA_4  and  C_5
REMARK    4  A    between atoms: CA_4  and  C_7
REMARK    5  A    between atoms: C_5  and  O_6
REMARK    6  A    between atoms: C_16  and  C_17
REMARK    7  A    between atoms: C_17  and  O_18
REMARK    8  A    between atoms: O_18  and  C_19
REMARK    9  A    between atoms: C_19  and  C_20
REMARK                            x       y       z     vdW  Elec       q    Type
REMARK                         _______ _______ _______ _____ _____    ______ ____
ROOT
ATOM      1  C   UNL     1      47.025   6.092  12.974  0.00  0.00    +0.000 A 
ATOM      2  C   UNL     1      46.580   6.708  11.798  0.00  0.00    +0.000 A 
ATOM      3  C   UNL     1      45.520   6.152  11.074  0.00  0.00    +0.000 A 
ATOM      4  C   UNL     1      44.884   4.985  11.518  0.00  0.00    +0.000 A 
ATOM      5  C   UNL     1      45.356   4.354  12.677  0.00  0.00    +0.000 A 
ATOM      6  C   UNL     1      46.416   4.905  13.400  0.00  0.00    +0.000 A 
ENDROOT
BRANCH   1   8
ATOM      7  O   UNL     1      48.684   6.002  14.647  0.00  0.00    +0.000 OA
ATOM      8  C   UNL     1      48.073   6.697  13.841  0.00  0.00    +0.000 C 
ATOM      9  N   UNL     1      48.313   8.048  13.696  0.00  0.00    +0.000 N 
ATOM     10  H   UNL     1      47.882   8.570  12.947  0.00  0.00    +0.000 HD
BRANCH   9  11
ATOM     11  CA  UNL     1      49.295   8.731  14.546  0.00  0.00    +0.000 C 
BRANCH  11  12
ATOM     12  C   UNL     1      50.423   9.269  13.687  0.00  0.00    +0.000 A 
ATOM     13  C   UNL     1      50.530  10.600  13.263  0.00  0.00    +0.000 A 
ATOM     14  C   UNL     1      51.577  10.983  12.424  0.00  0.00    +0.000 A 
ATOM     15  C   UNL     1      52.502  10.030  12.042  0.00  0.00    +0.000 A 
ATOM     16  N   UNL     1      52.464   8.746  12.457  0.00  0.00    +0.000 NA
ATOM     17  C   UNL     1      51.441   8.407  13.275  0.00  0.00    +0.000 A 
ENDBRANCH  11  12
BRANCH  11  18
ATOM     18  C   UNL     1      48.561   9.757  15.451  0.00  0.00    +0.000 C 
BRANCH  18  19
ATOM     19  O   UNL     1      47.401   9.198  16.082  0.00  0.00    +0.000 OA
ATOM     20  H   UNL     1      46.683   9.845  15.972  0.00  0.00    +0.000 HD
ENDBRANCH  18  19
ENDBRANCH  11  18
ENDBRANCH   9  11
ENDBRANCH   1   8
BRANCH   4  21
ATOM     21  C   UNL     1      43.658   4.466  10.810  0.00  0.00    +0.000 C 
BRANCH  21  22
ATOM     22  O   UNL     1      43.996   4.059   9.488  0.00  0.00    +0.000 OA
BRANCH  22  23
ATOM     23  C   UNL     1      44.388   2.683   9.474  0.00  0.00    +0.000 C 
BRANCH  23  24
ATOM     24  C   UNL     1      45.484   2.415   8.470  0.00  0.00    +0.000 A 
ATOM     25  C   UNL     1      45.973   3.429   7.649  0.00  0.00    +0.000 A 
ATOM     26  C   UNL     1      47.014   3.142   6.770  0.00  0.00    +0.000 A 
ATOM     27  C   UNL     1      47.547   1.860   6.742  0.00  0.00    +0.000 A 
ATOM     28  C   UNL     1      47.018   0.913   7.600  0.00  0.00    +0.000 A 
ATOM     29  N   UNL     1      46.008   1.160   8.464  0.00  0.00    +0.000 NA
ENDBRANCH  23  24
ENDBRANCH  22  23
ENDBRANCH  21  22
ENDBRANCH   4  21
TORSDOF 9
ENDMDL
MODEL 7
REMARK VINA RESULT:    -6.815      2.605      8.936
REMARK INTER + INTRA:         -11.156
REMARK INTER:                 -10.331
REMARK INTRA:                  -0.825
REMARK UNBOUND:                -0.954
REMARK  Name = 
REMARK  9 active torsions:
REMARK  status: ('A' for Active; 'I' for Inactive)
REMARK    1  A    between atoms: C_2  and  C_13
REMARK    2  A    between atoms: N_3  and  CA_4
REMARK    3  A    between atoms: CA_4  and  C_5
REMARK    4  A    between atoms: CA_4  and  C_7
REMARK    5  A    between atoms: C_5  and  O_6
REMARK    6  A    between atoms: C_16  and  C_17
REMARK    7  A    between atoms: C_17  and  O_18
REMARK    8  A    between atoms: O_18  and  C_19
REMARK    9  A    between atoms: C_19  and  C_20
REMARK                            x       y       z     vdW  Elec       q    Type
REMARK                         _______ _______ _______ _____ _____    ______ ____
ROOT
ATOM      1  C   UNL     1      47.072   5.603  13.659  0.00  0.00    +0.000 A 
ATOM      2  C   UNL     1      46.761   4.533  14.507  0.00  0.00    +0.000 A 
ATOM      3  C   UNL     1      47.361   4.442  15.768  0.00  0.00    +0.000 A 
ATOM      4  C   UNL     1      48.266   5.420  16.203  0.00  0.00    +0.000 A 
ATOM      5  C   UNL     1      48.599   6.469  15.336  0.00  0.00    +0.000 A 
ATOM      6  C   UNL     1      48.004   6.561  14.076  0.00  0.00    +0.000 A 
ENDROOT
BRANCH   1   8
ATOM      7  O   UNL     1      46.845   6.593  11.532  0.00  0.00    +0.000 OA
ATOM      8  C   UNL     1      46.383   5.809  12.355  0.00  0.00    +0.000 C 
ATOM      9  N   UNL     1      45.226   5.093  12.129  0.00  0.00    +0.000 N 
ATOM     10  H   UNL     1      44.934   4.369  12.772  0.00  0.00    +0.000 HD
BRANCH   9  11
ATOM     11  CA  UNL     1      44.461   5.274  10.891  0.00  0.00    +0.000 C 
BRANCH  11  12
ATOM     12  C   UNL     1      44.934   4.277   9.850  0.00  0.00    +0.000 A 
ATOM     13  C   UNL     1      44.753   2.891   9.943  0.00  0.00    +0.000 A 
ATOM     14  C   UNL     1      45.280   2.051   8.960  0.00  0.00    +0.000 A 
ATOM     15  C   UNL     1      45.959   2.619   7.899  0.00  0.00    +0.000 A 
ATOM     16  N   UNL     1      46.123   3.950   7.745  0.00  0.00    +0.000 NA
ATOM     17  C   UNL     1      45.596   4.738   8.711  0.00  0.00    +0.000 A 
ENDBRANCH  11  12
BRANCH  11  18
ATOM     18  C   UNL     1      42.944   5.265  11.221  0.00  0.00    +0.000 C 
BRANCH  18  19
ATOM     19  O   UNL     1      42.679   5.637  12.581  0.00  0.00    +0.000 OA
ATOM     20  H   UNL     1      43.400   6.230  12.854  0.00  0.00    +0.000 HD
ENDBRANCH  18  19
ENDBRANCH  11  18
ENDBRANCH   9  11
ENDBRANCH   1   8
BRANCH   4  21
ATOM     21  C   UNL     1      48.805   5.390  17.611  0.00  0.00    +0.000 C 
BRANCH  21  22
ATOM     22  O   UNL     1      49.552   4.196  17.820  0.00  0.00    +0.000 OA
BRANCH  22  23
ATOM     23  C   UNL     1      50.956   4.479  17.818  0.00  0.00    +0.000 C 
BRANCH  23  24
ATOM     24  C   UNL     1      51.788   3.220  17.868  0.00  0.00    +0.000 A 
ATOM     25  C   UNL     1      51.278   2.000  17.430  0.00  0.00    +0.000 A 
ATOM     26  C   UNL     1      52.099   0.877  17.457  0.00  0.00    +0.000 A 
ATOM     27  C   UNL     1      53.408   1.001  17.904  0.00  0.00    +0.000 A 
ATOM     28  C   UNL     1      53.845   2.250  18.307  0.00  0.00    +0.000 A 
ATOM     29  N   UNL     1      53.072   3.359  18.295  0.00  0.00    +0.000 NA
ENDBRANCH  23  24
ENDBRANCH  22  23
ENDBRANCH  21  22
ENDBRANCH   4  21
TORSDOF 9
ENDMDL
MODEL 8
REMARK VINA RESULT:    -6.456      1.846      2.226
REMARK INTER + INTRA:         -10.619
REMARK INTER:                 -10.424
REMARK INTRA:                  -0.195
REMARK UNBOUND:                -0.954
REMARK  Name = 
REMARK  9 active torsions:
REMARK  status: ('A' for Active; 'I' for Inactive)
REMARK    1  A    between atoms: C_2  and  C_13
REMARK    2  A    between atoms: N_3  and  CA_4
REMARK    3  A    between atoms: CA_4  and  C_5
REMARK    4  A    between atoms: CA_4  and  C_7
REMARK    5  A    between atoms: C_5  and  O_6
REMARK    6  A    between atoms: C_16  and  C_17
REMARK    7  A    between atoms: C_17  and  O_18
REMARK    8  A    between atoms: O_18  and  C_19
REMARK    9  A    between atoms: C_19  and  C_20
REMARK                            x       y       z     vdW  Elec       q    Type
REMARK                         _______ _______ _______ _____ _____    ______ ____
ROOT
ATOM      1  C   UNL     1      47.405   6.195  13.468  0.00  0.00    +0.000 A 
ATOM      2  C   UNL     1      47.072   6.719  12.213  0.00  0.00    +0.000 A 
ATOM      3  C   UNL     1      46.161   6.047  11.392  0.00  0.00    +0.000 A 
ATOM      4  C   UNL     1      45.562   4.851  11.815  0.00  0.00    +0.000 A 
ATOM      5  C   UNL     1      45.926   4.314  13.057  0.00  0.00    +0.000 A 
ATOM      6  C   UNL     1      46.837   4.982  13.878  0.00  0.00    +0.000 A 
ENDROOT
BRANCH   1   8
ATOM      7  O   UNL     1      49.155   7.677  14.011  0.00  0.00    +0.000 OA
ATOM      8  C   UNL     1      48.281   6.922  14.426  0.00  0.00    +0.000 C 
ATOM      9  N   UNL     1      48.067   6.705  15.771  0.00  0.00    +0.000 N 
ATOM     10  H   UNL     1      47.268   6.173  16.086  0.00  0.00    +0.000 HD
BRANCH   9  11
ATOM     11  CA  UNL     1      48.919   7.346  16.780  0.00  0.00    +0.000 C 
BRANCH  11  12
ATOM     12  C   UNL     1      50.236   6.601  16.881  0.00  0.00    +0.000 A 
ATOM     13  C   UNL     1      50.364   5.275  17.316  0.00  0.00    +0.000 A 
ATOM     14  C   UNL     1      51.629   4.697  17.430  0.00  0.00    +0.000 A 
ATOM     15  C   UNL     1      52.735   5.453  17.089  0.00  0.00    +0.000 A 
ATOM     16  N   UNL     1      52.660   6.718  16.626  0.00  0.00    +0.000 NA
ATOM     17  C   UNL     1      51.419   7.249  16.521  0.00  0.00    +0.000 A 
ENDBRANCH  11  12
BRANCH  11  18
ATOM     18  C   UNL     1      49.003   8.867  16.487  0.00  0.00    +0.000 C 
BRANCH  18  19
ATOM     19  O   UNL     1      47.709   9.464  16.320  0.00  0.00    +0.000 OA
ATOM     20  H   UNL     1      47.591  10.087  17.057  0.00  0.00    +0.000 HD
ENDBRANCH  18  19
ENDBRANCH  11  18
ENDBRANCH   9  11
ENDBRANCH   1   8
BRANCH   4  21
ATOM     21  C   UNL     1      44.482   4.203  10.987  0.00  0.00    +0.000 C 
BRANCH  21  22
ATOM     22  O   UNL     1      44.852   2.865  10.668  0.00  0.00    +0.000 OA
BRANCH  22  23
ATOM     23  C   UNL     1      44.374   2.512   9.366  0.00  0.00    +0.000 C 
BRANCH  23  24
ATOM     24  C   UNL     1      45.496   2.396   8.362  0.00  0.00    +0.000 A 
ATOM     25  C   UNL     1      45.903   3.491   7.604  0.00  0.00    +0.000 A 
ATOM     26  C   UNL     1      46.970   3.344   6.723  0.00  0.00    +0.000 A 
ATOM     27  C   UNL     1      47.612   2.116   6.631  0.00  0.00    +0.000 A 
ATOM     28  C   UNL     1      47.159   1.081   7.429  0.00  0.00    +0.000 A 
ATOM     29  N   UNL     1      46.125   1.191   8.292  0.00  0.00    +0.000 NA
ENDBRANCH  23  24
ENDBRANCH  22  23
ENDBRANCH  21  22
ENDBRANCH   4  21
TORSDOF 9
ENDMDL
MODEL 9
REMARK VINA RESULT:    -6.371      2.835      9.883
REMARK INTER + INTRA:         -10.491
REMARK INTER:                  -9.702
REMARK INTRA:                  -0.789
REMARK UNBOUND:                -0.954
REMARK  Name = 
REMARK  9 active torsions:
REMARK  status: ('A' for Active; 'I' for Inactive)
REMARK    1  A    between atoms: C_2  and  C_13
REMARK    2  A    between atoms: N_3  and  CA_4
REMARK    3  A    between atoms: CA_4  and  C_5
REMARK    4  A    between atoms: CA_4  and  C_7
REMARK    5  A    between atoms: C_5  and  O_6
REMARK    6  A    between atoms: C_16  and  C_17
REMARK    7  A    between atoms: C_17  and  O_18
REMARK    8  A    between atoms: O_18  and  C_19
REMARK    9  A    between atoms: C_19  and  C_20
REMARK                            x       y       z     vdW  Elec       q    Type
REMARK                         _______ _______ _______ _____ _____    ______ ____
ROOT
ATOM      1  C   UNL     1      47.005   5.660  13.800  0.00  0.00    +0.000 A 
ATOM      2  C   UNL     1      46.762   4.601  14.683  0.00  0.00    +0.000 A 
ATOM      3  C   UNL     1      47.474   4.512  15.884  0.00  0.00    +0.000 A 
ATOM      4  C   UNL     1      48.426   5.483  16.225  0.00  0.00    +0.000 A 
ATOM      5  C   UNL     1      48.689   6.521  15.322  0.00  0.00    +0.000 A 
ATOM      6  C   UNL     1      47.983   6.611  14.121  0.00  0.00    +0.000 A 
ENDROOT
BRANCH   1   8
ATOM      7  O   UNL     1      46.471   6.786  11.799  0.00  0.00    +0.000 OA
ATOM      8  C   UNL     1      46.203   5.864  12.563  0.00  0.00    +0.000 C 
ATOM      9  N   UNL     1      45.164   4.987  12.330  0.00  0.00    +0.000 N 
ATOM     10  H   UNL     1      45.040   4.169  12.911  0.00  0.00    +0.000 HD
BRANCH   9  11
ATOM     11  CA  UNL     1      44.294   5.147  11.159  0.00  0.00    +0.000 C 
BRANCH  11  12
ATOM     12  C   UNL     1      44.787   4.258  10.034  0.00  0.00    +0.000 A 
ATOM     13  C   UNL     1      45.501   4.715   8.919  0.00  0.00    +0.000 A 
ATOM     14  C   UNL     1      45.859   3.823   7.906  0.00  0.00    +0.000 A 
ATOM     15  C   UNL     1      45.509   2.494   8.041  0.00  0.00    +0.000 A 
ATOM     16  N   UNL     1      44.857   1.999   9.114  0.00  0.00    +0.000 NA
ATOM     17  C   UNL     1      44.529   2.887  10.082  0.00  0.00    +0.000 A 
ENDBRANCH  11  12
BRANCH  11  18
ATOM     18  C   UNL     1      42.815   4.964  11.592  0.00  0.00    +0.000 C 
BRANCH  18  19
ATOM     19  O   UNL     1      42.128   6.216  11.734  0.00  0.00    +0.000 OA
ATOM     20  H   UNL     1      42.202   6.674  10.880  0.00  0.00    +0.000 HD
ENDBRANCH  18  19
ENDBRANCH  11  18
ENDBRANCH   9  11
ENDBRANCH   1   8
BRANCH   4  21
ATOM     21  C   UNL     1      49.091   5.458  17.578  0.00  0.00    +0.000 C 
BRANCH  21  22
ATOM     22  O   UNL     1      48.275   6.127  18.534  0.00  0.00    +0.000 OA
BRANCH  22  23
ATOM     23  C   UNL     1      49.051   7.070  19.280  0.00  0.00    +0.000 C 
BRANCH  23  24
ATOM     24  C   UNL     1      48.184   8.094  19.975  0.00  0.00    +0.000 A 
ATOM     25  C   UNL     1      47.537   9.097  19.257  0.00  0.00    +0.000 A 
ATOM     26  C   UNL     1      46.715   9.991  19.938  0.00  0.00    +0.000 A 
ATOM     27  C   UNL     1      46.550   9.853  21.310  0.00  0.00    +0.000 A 
ATOM     28  C   UNL     1      47.213   8.821  21.948  0.00  0.00    +0.000 A 
ATOM     29  N   UNL     1      48.018   7.938  21.316  0.00  0.00    +0.000 NA
ENDBRANCH  23  24
ENDBRANCH  22  23
ENDBRANCH  21  22
ENDBRANCH   4  21
TORSDOF 9
ENDMDL
