MODEL 1
REMARK VINA RESULT:    -7.533      0.000      0.000
REMARK INTER + INTRA:          -9.818
REMARK INTER:                  -9.295
REMARK INTRA:                  -0.523
REMARK UNBOUND:                -0.523
REMARK  Name = 
REMARK  4 active torsions:
REMARK  status: ('A' for Active; 'I' for Inactive)
REMARK    1  A    between atoms: C_3  and  O_4
REMARK    2  A    between atoms: O_4  and  C_5
REMARK    3  A    between atoms: C_5  and  C_6
REMARK    4  A    between atoms: C_13  and  C_14
REMARK                            x       y       z     vdW  Elec       q    Type
REMARK                         _______ _______ _______ _____ _____    ______ ____
ROOT
ATOM      1  C   UNL     1      44.035   4.386  12.877  0.00  0.00    +0.000 A 
ATOM      2  C   UNL     1      43.772   3.708  11.689  0.00  0.00    +0.000 A 
ATOM      3  C   UNL     1      44.540   3.963  10.558  0.00  0.00    +0.000 A 
ATOM      4  C   UNL     1      45.510   4.970  10.600  0.00  0.00    +0.000 A 
ATOM      5  C   UNL     1      45.750   5.717  11.768  0.00  0.00    +0.000 A 
ATOM      6  C   UNL     1      45.027   5.374  12.919  0.00  0.00    +0.000 A 
ENDROOT
BRANCH   5   7
ATOM      7  C   UNL     1      46.620   6.971  11.653  0.00  0.00    +0.000 C 
ATOM      8  C   UNL     1      47.891   6.970  12.528  0.00  0.00    +0.000 C 
ATOM      9  C   UNL     1      47.624   7.443  13.952  0.00  0.00    +0.000 C 
ATOM     10  N   UNL     1      47.006   8.769  13.970  0.00  0.00    +0.000 NA
ATOM     11  C   UNL     1      45.738   8.762  13.246  0.00  0.00    +0.000 C 
ATOM     12  C   UNL     1      45.914   8.331  11.791  0.00  0.00    +0.000 C 
ATOM     13  H   UNL     1      47.638   9.439  13.536  0.00  0.00    +0.000 HD
ENDBRANCH   5   7
BRANCH   3  14
ATOM     14  O   UNL     1      44.226   3.229   9.449  0.00  0.00    +0.000 OA
BRANCH  14  15
ATOM     15  C   UNL     1      44.723   3.745   8.213  0.00  0.00    +0.000 C 
BRANCH  15  16
ATOM     16  C   UNL     1      45.832   2.881   7.667  0.00  0.00    +0.000 A 
ATOM     17  C   UNL     1      46.740   3.342   6.710  0.00  0.00    +0.000 A 
ATOM     18  C   UNL     1      47.731   2.483   6.268  0.00  0.00    +0.000 A 
ATOM     19  N   UNL     1      47.893   1.218   6.718  0.00  0.00    +0.000 NA
ATOM     20  C   UNL     1      47.018   0.796   7.653  0.00  0.00    +0.000 A 
ATOM     21  C   UNL     1      45.989   1.578   8.154  0.00  0.00    +0.000 A 
ENDBRANCH  15  16
ENDBRANCH  14  15
ENDBRANCH   3  14
TORSDOF 4
ENDMDL
MODEL 2
REMARK VINA RESULT:    -7.086      1.093      2.036
REMARK INTER + INTRA:          -9.267
REMARK INTER:                  -8.918
REMARK INTRA:                  -0.348
REMARK UNBOUND:                -0.523
REMARK  Name = 
REMARK  4 active torsions:
REMARK  status: ('A' for Active; 'I' for Inactive)
REMARK    1  A    between atoms: C_3  and  O_4
REMARK    2  A    between atoms: O_4  and  C_5
REMARK    3  A    between atoms: C_5  and  C_6
REMARK    4  A    between atoms: C_13  and  C_14
REMARK                            x       y       z     vdW  Elec       q    Type
REMARK                         _______ _______ _______ _____ _____    ______ ____
ROOT
ATOM      1  C   UNL     1      43.883   4.855  12.160  0.00  0.00    +0.000 A 
ATOM      2  C   UNL     1      44.178   4.790  10.800  0.00  0.00    +0.000 A 
ATOM      3  C   UNL     1      45.391   5.280  10.329  0.00  0.00    +0.000 A 
ATOM      4  C   UNL     1      46.263   5.921  11.214  0.00  0.00    +0.000 A 
ATOM      5  C   UNL     1      45.960   6.060  12.581  0.00  0.00    +0.000 A 
ATOM      6  C   UNL     1      44.774   5.473  13.046  0.00  0.00    +0.000 A 
ENDROOT
BRANCH   5   7
ATOM      7  C   UNL     1      46.825   7.006  13.417  0.00  0.00    +0.000 C 
ATOM      8  C   UNL     1      46.623   8.508  13.129  0.00  0.00    +0.000 C 
ATOM      9  C   UNL     1      47.455   8.998  11.950  0.00  0.00    +0.000 C 
ATOM     10  N   UNL     1      48.878   8.713  12.142  0.00  0.00    +0.000 NA
ATOM     11  C   UNL     1      49.105   7.280  12.298  0.00  0.00    +0.000 C 
ATOM     12  C   UNL     1      48.332   6.704  13.484  0.00  0.00    +0.000 C 
ATOM     13  H   UNL     1      49.206   9.199  12.974  0.00  0.00    +0.000 HD
ENDBRANCH   5   7
BRANCH   3  14
ATOM     14  O   UNL     1      45.602   5.147   8.985  0.00  0.00    +0.000 OA
BRANCH  14  15
ATOM     15  C   UNL     1      44.929   4.049   8.366  0.00  0.00    +0.000 C 
BRANCH  15  16
ATOM     16  C   UNL     1      45.912   3.051   7.807  0.00  0.00    +0.000 A 
ATOM     17  C   UNL     1      45.966   1.725   8.246  0.00  0.00    +0.000 A 
ATOM     18  C   UNL     1      46.896   0.874   7.675  0.00  0.00    +0.000 A 
ATOM     19  N   UNL     1      47.754   1.239   6.696  0.00  0.00    +0.000 NA
ATOM     20  C   UNL     1      47.677   2.517   6.273  0.00  0.00    +0.000 A 
ATOM     21  C   UNL     1      46.785   3.445   6.788  0.00  0.00    +0.000 A 
ENDBRANCH  15  16
ENDBRANCH  14  15
ENDBRANCH   3  14
TORSDOF 4
ENDMDL
MODEL 3
REMARK VINA RESULT:    -6.495      4.094      7.380
REMARK INTER + INTRA:          -8.537
REMARK INTER:                  -8.247
REMARK INTRA:                  -0.290
REMARK UNBOUND:                -0.523
REMARK  Name = 
REMARK  4 active torsions:
REMARK  status: ('A' for Active; 'I' for Inactive)
REMARK    1  A    between atoms: C_3  and  O_4
REMARK    2  A    between atoms: O_4  and  C_5
REMARK    3  A    between atoms: C_5  and  C_6
REMARK    4  A    between atoms: C_13  and  C_14
REMARK                            x       y       z     vdW  Elec       q    Type
REMARK                         _______ _______ _______ _____ _____    ______ ____
ROOT
ATOM      1  C   UNL     1      47.204   6.724  13.218  0.00  0.00    +0.000 A 
ATOM      2  C   UNL     1      47.382   5.765  14.212  0.00  0.00    +0.000 A 
ATOM      3  C   UNL     1      46.785   4.515  14.085  0.00  0.00    +0.000 A 
ATOM      4  C   UNL     1      45.934   4.267  13.004  0.00  0.00    +0.000 A 
ATOM      5  C   UNL     1      45.684   5.241  12.020  0.00  0.00    +0.000 A 
ATOM      6  C   UNL     1      46.373   6.459  12.122  0.00  0.00    +0.000 A 
ENDROOT
BRANCH   5   7
ATOM      7  C   UNL     1      44.540   4.992  11.035  0.00  0.00    +0.000 C 
ATOM      8  C   UNL     1      43.301   4.293  11.632  0.00  0.00    +0.000 C 
ATOM      9  C   UNL     1      43.438   2.775  11.657  0.00  0.00    +0.000 C 
ATOM     10  N   UNL     1      43.720   2.240  10.324  0.00  0.00    +0.000 NA
ATOM     11  C   UNL     1      44.956   2.802   9.790  0.00  0.00    +0.000 C 
ATOM     12  C   UNL     1      44.899   4.326   9.696  0.00  0.00    +0.000 C 
ATOM     13  H   UNL     1      42.948   2.470   9.701  0.00  0.00    +0.000 HD
ENDBRANCH   5   7
BRANCH   3  14
ATOM     14  O   UNL     1      47.039   3.631  15.096  0.00  0.00    +0.000 OA
BRANCH  14  15
ATOM     15  C   UNL     1      47.338   4.221  16.363  0.00  0.00    +0.000 C 
BRANCH  15  16
ATOM     16  C   UNL     1      48.703   3.804  16.851  0.00  0.00    +0.000 A 
ATOM     17  C   UNL     1      49.597   4.705  17.437  0.00  0.00    +0.000 A 
ATOM     18  C   UNL     1      50.828   4.236  17.862  0.00  0.00    +0.000 A 
ATOM     19  N   UNL     1      51.222   2.947  17.762  0.00  0.00    +0.000 NA
ATOM     20  C   UNL     1      50.341   2.089  17.210  0.00  0.00    +0.000 A 
ATOM     21  C   UNL     1      49.088   2.463  16.748  0.00  0.00    +0.000 A 
ENDBRANCH  15  16
ENDBRANCH  14  15
ENDBRANCH   3  14
TORSDOF 4
ENDMDL
MODEL 4
REMARK VINA RESULT:    -6.473      3.574      7.342
REMARK INTER + INTRA:          -8.510
REMARK INTER:                  -8.233
REMARK INTRA:                  -0.276
REMARK UNBOUND:                -0.523
REMARK  Name = 
REMARK  4 active torsions:
REMARK  status: ('A' for Active; 'I' for Inactive)
REMARK    1  A    between atoms: C_3  and  O_4
REMARK    2  A    between atoms: O_4  and  C_5
REMARK    3  A    between atoms: C_5  and  C_6
REMARK    4  A    between atoms: C_13  and  C_14
REMARK                            x       y       z     vdW  Elec       q    Type
REMARK                         _______ _______ _______ _____ _____    ______ ____
ROOT
ATOM      1  C   UNL     1      46.040   7.958  12.394  0.00  0.00    +0.000 A 
ATOM      2  C   UNL     1      46.824   7.179  13.241  0.00  0.00    +0.000 A 
ATOM      3  C   UNL     1      46.801   5.793  13.129  0.00  0.00    +0.000 A 
ATOM      4  C   UNL     1      45.917   5.192  12.228  0.00  0.00    +0.000 A 
ATOM      5  C   UNL     1      45.065   5.953  11.407  0.00  0.00    +0.000 A 
ATOM      6  C   UNL     1      45.177   7.350  11.473  0.00  0.00    +0.000 A 
ENDROOT
BRANCH   5   7
ATOM      7  C   UNL     1      43.945   5.225  10.661  0.00  0.00    +0.000 C 
ATOM      8  C   UNL     1      42.920   4.503  11.559  0.00  0.00    +0.000 C 
ATOM      9  C   UNL     1      43.377   3.108  11.969  0.00  0.00    +0.000 C 
ATOM     10  N   UNL     1      43.689   2.281  10.802  0.00  0.00    +0.000 NA
ATOM     11  C   UNL     1      44.746   2.892  10.001  0.00  0.00    +0.000 C 
ATOM     12  C   UNL     1      44.360   4.288   9.514  0.00  0.00    +0.000 C 
ATOM     13  H   UNL     1      42.852   2.176  10.233  0.00  0.00    +0.000 HD
ENDBRANCH   5   7
BRANCH   3  14
ATOM     14  O   UNL     1      47.624   5.115  13.984  0.00  0.00    +0.000 OA
BRANCH  14  15
ATOM     15  C   UNL     1      46.963   4.272  14.929  0.00  0.00    +0.000 C 
BRANCH  15  16
ATOM     16  C   UNL     1      47.687   4.263  16.253  0.00  0.00    +0.000 A 
ATOM     17  C   UNL     1      47.674   3.158  17.108  0.00  0.00    +0.000 A 
ATOM     18  C   UNL     1      48.370   3.234  18.301  0.00  0.00    +0.000 A 
ATOM     19  N   UNL     1      49.084   4.312  18.693  0.00  0.00    +0.000 NA
ATOM     20  C   UNL     1      49.099   5.363  17.849  0.00  0.00    +0.000 A 
ATOM     21  C   UNL     1      48.429   5.386  16.636  0.00  0.00    +0.000 A 
ENDBRANCH  15  16
ENDBRANCH  14  15
ENDBRANCH   3  14
TORSDOF 4
ENDMDL
MODEL 5
REMARK VINA RESULT:    -6.052      4.584      7.445
REMARK INTER + INTRA:          -7.990
REMARK INTER:                  -7.396
REMARK INTRA:                  -0.594
REMARK UNBOUND:                -0.523
REMARK  Name = 
REMARK  4 active torsions:
REMARK  status: ('A' for Active; 'I' for Inactive)
REMARK    1  A    between atoms: C_3  and  O_4
REMARK    2  A    between atoms: O_4  and  C_5
REMARK    3  A    between atoms: C_5  and  C_6
REMARK    4  A    between atoms: C_13  and  C_14
REMARK                            x       y       z     vdW  Elec       q    Type
REMARK                         _______ _______ _______ _____ _____    ______ ____
ROOT
ATOM      1  C   UNL     1      47.748   6.377  13.877  0.00  0.00    +0.000 A 
ATOM      2  C   UNL     1      47.798   5.533  14.984  0.00  0.00    +0.000 A 
ATOM      3  C   UNL     1      47.125   4.317  14.961  0.00  0.00    +0.000 A 
ATOM      4  C   UNL     1      46.324   3.995  13.860  0.00  0.00    +0.000 A 
ATOM      5  C   UNL     1      46.202   4.860  12.757  0.00  0.00    +0.000 A 
ATOM      6  C   UNL     1      46.967   6.036  12.766  0.00  0.00    +0.000 A 
ENDROOT
BRANCH   5   7
ATOM      7  C   UNL     1      45.104   4.569  11.732  0.00  0.00    +0.000 C 
ATOM      8  C   UNL     1      44.727   5.753  10.819  0.00  0.00    +0.000 C 
ATOM      9  C   UNL     1      43.703   6.686  11.458  0.00  0.00    +0.000 C 
ATOM     10  N   UNL     1      42.497   5.963  11.861  0.00  0.00    +0.000 NA
ATOM     11  C   UNL     1      42.818   4.910  12.821  0.00  0.00    +0.000 C 
ATOM     12  C   UNL     1      43.817   3.904  12.252  0.00  0.00    +0.000 C 
ATOM     13  H   UNL     1      42.065   5.548  11.039  0.00  0.00    +0.000 HD
ENDBRANCH   5   7
BRANCH   3  14
ATOM     14  O   UNL     1      47.256   3.545  16.081  0.00  0.00    +0.000 OA
BRANCH  14  15
ATOM     15  C   UNL     1      47.962   4.154  17.164  0.00  0.00    +0.000 C 
BRANCH  15  16
ATOM     16  C   UNL     1      49.329   3.539  17.338  0.00  0.00    +0.000 A 
ATOM     17  C   UNL     1      49.600   2.208  17.010  0.00  0.00    +0.000 A 
ATOM     18  C   UNL     1      50.884   1.727  17.197  0.00  0.00    +0.000 A 
ATOM     19  N   UNL     1      51.910   2.472  17.665  0.00  0.00    +0.000 NA
ATOM     20  C   UNL     1      51.635   3.758  17.960  0.00  0.00    +0.000 A 
ATOM     21  C   UNL     1      50.381   4.330  17.814  0.00  0.00    +0.000 A 
ENDBRANCH  15  16
ENDBRANCH  14  15
ENDBRANCH   3  14
TORSDOF 4
ENDMDL
MODEL 6
REMARK VINA RESULT:    -5.878      2.987      7.128
REMARK INTER + INTRA:          -7.775
REMARK INTER:                  -7.192
REMARK INTRA:                  -0.583
REMARK UNBOUND:                -0.523
REMARK  Name = 
REMARK  4 active torsions:
REMARK  status: ('A' for Active; 'I' for Inactive)
REMARK    1  A    between atoms: C_3  and  O_4
REMARK    2  A    between atoms: O_4  and  C_5
REMARK    3  A    between atoms: C_5  and  C_6
REMARK    4  A    between atoms: C_13  and  C_14
REMARK                            x       y       z     vdW  Elec       q    Type
REMARK                         _______ _______ _______ _____ _____    ______ ____
ROOT
ATOM      1  C   UNL     1      46.957   5.082  13.691  0.00  0.00    +0.000 A 
ATOM      2  C   UNL     1      47.779   6.135  13.297  0.00  0.00    +0.000 A 
ATOM      3  C   UNL     1      47.405   6.945  12.230  0.00  0.00    +0.000 A 
ATOM      4  C   UNL     1      46.252   6.635  11.503  0.00  0.00    +0.000 A 
ATOM      5  C   UNL     1      45.439   5.536  11.838  0.00  0.00    +0.000 A 
ATOM      6  C   UNL     1      45.788   4.794  12.976  0.00  0.00    +0.000 A 
ENDROOT
BRANCH   5   7
ATOM      7  C   UNL     1      44.364   5.104  10.838  0.00  0.00    +0.000 C 
ATOM      8  C   UNL     1      43.161   4.358  11.450  0.00  0.00    +0.000 C 
ATOM      9  C   UNL     1      43.419   2.865  11.620  0.00  0.00    +0.000 C 
ATOM     10  N   UNL     1      43.803   2.240  10.355  0.00  0.00    +0.000 NA
ATOM     11  C   UNL     1      45.013   2.855   9.817  0.00  0.00    +0.000 C 
ATOM     12  C   UNL     1      44.836   4.354   9.581  0.00  0.00    +0.000 C 
ATOM     13  H   UNL     1      43.045   2.347   9.684  0.00  0.00    +0.000 HD
ENDBRANCH   5   7
BRANCH   3  14
ATOM     14  O   UNL     1      48.261   7.969  11.935  0.00  0.00    +0.000 OA
BRANCH  14  15
ATOM     15  C   UNL     1      48.061   9.169  12.685  0.00  0.00    +0.000 C 
BRANCH  15  16
ATOM     16  C   UNL     1      47.354  10.217  11.860  0.00  0.00    +0.000 A 
ATOM     17  C   UNL     1      45.968  10.389  11.896  0.00  0.00    +0.000 A 
ATOM     18  C   UNL     1      45.402  11.379  11.111  0.00  0.00    +0.000 A 
ATOM     19  N   UNL     1      46.111  12.211  10.316  0.00  0.00    +0.000 NA
ATOM     20  C   UNL     1      47.448  12.042  10.307  0.00  0.00    +0.000 A 
ATOM     21  C   UNL     1      48.107  11.076  11.052  0.00  0.00    +0.000 A 
ENDBRANCH  15  16
ENDBRANCH  14  15
ENDBRANCH   3  14
TORSDOF 4
ENDMDL
MODEL 7
REMARK VINA RESULT:    -5.796      4.353      8.389
REMARK INTER + INTRA:          -7.674
REMARK INTER:                  -7.313
REMARK INTRA:                  -0.361
REMARK UNBOUND:                -0.523
REMARK  Name = 
REMARK  4 active torsions:
REMARK  status: ('A' for Active; 'I' for Inactive)
REMARK    1  A    between atoms: C_3  and  O_4
REMARK    2  A    between atoms: O_4  and  C_5
REMARK    3  A    between atoms: C_5  and  C_6
REMARK    4  A    between atoms: C_13  and  C_14
REMARK                            x       y       z     vdW  Elec       q    Type
REMARK                         _______ _______ _______ _____ _____    ______ ____
ROOT
ATOM      1  C   UNL     1      47.559   6.901  12.836  0.00  0.00    +0.000 A 
ATOM      2  C   UNL     1      48.112   6.542  14.063  0.00  0.00    +0.000 A 
ATOM      3  C   UNL     1      47.685   5.384  14.704  0.00  0.00    +0.000 A 
ATOM      4  C   UNL     1      46.636   4.641  14.153  0.00  0.00    +0.000 A 
ATOM      5  C   UNL     1      46.015   5.018  12.949  0.00  0.00    +0.000 A 
ATOM      6  C   UNL     1      46.528   6.136  12.276  0.00  0.00    +0.000 A 
ENDROOT
BRANCH   5   7
ATOM      7  C   UNL     1      44.709   4.320  12.563  0.00  0.00    +0.000 C 
ATOM      8  C   UNL     1      44.736   3.577  11.212  0.00  0.00    +0.000 C 
ATOM      9  C   UNL     1      44.443   4.495  10.030  0.00  0.00    +0.000 C 
ATOM     10  N   UNL     1      43.165   5.188  10.194  0.00  0.00    +0.000 NA
ATOM     11  C   UNL     1      43.162   5.994  11.410  0.00  0.00    +0.000 C 
ATOM     12  C   UNL     1      43.415   5.149  12.657  0.00  0.00    +0.000 C 
ATOM     13  H   UNL     1      42.415   4.501  10.243  0.00  0.00    +0.000 HD
ENDBRANCH   5   7
BRANCH   3  14
ATOM     14  O   UNL     1      48.305   5.099  15.888  0.00  0.00    +0.000 OA
BRANCH  14  15
ATOM     15  C   UNL     1      47.488   4.450  16.865  0.00  0.00    +0.000 C 
BRANCH  15  16
ATOM     16  C   UNL     1      47.829   4.917  18.259  0.00  0.00    +0.000 A 
ATOM     17  C   UNL     1      46.984   5.748  18.999  0.00  0.00    +0.000 A 
ATOM     18  C   UNL     1      47.372   6.124  20.273  0.00  0.00    +0.000 A 
ATOM     19  N   UNL     1      48.520   5.722  20.863  0.00  0.00    +0.000 NA
ATOM     20  C   UNL     1      49.315   4.907  20.141  0.00  0.00    +0.000 A 
ATOM     21  C   UNL     1      49.016   4.481  18.856  0.00  0.00    +0.000 A 
ENDBRANCH  15  16
ENDBRANCH  14  15
ENDBRANCH   3  14
TORSDOF 4
ENDMDL
MODEL 8
REMARK VINA RESULT:    -5.780      3.518      6.557
REMARK INTER + INTRA:          -7.654
REMARK INTER:                  -7.261
REMARK INTRA:                  -0.393
REMARK UNBOUND:                -0.523
REMARK  Name = 
REMARK  4 active torsions:
REMARK  status: ('A' for Active; 'I' for Inactive)
REMARK    1  A    between atoms: C_3  and  O_4
REMARK    2  A    between atoms: O_4  and  C_5
REMARK    3  A    between atoms: C_5  and  C_6
REMARK    4  A    between atoms: C_13  and  C_14
REMARK                            x       y       z     vdW  Elec       q    Type
REMARK                         _______ _______ _______ _____ _____    ______ ____
ROOT
ATOM      1  C   UNL     1      46.880   5.182  13.699  0.00  0.00    +0.000 A 
ATOM      2  C   UNL     1      47.749   6.146  13.192  0.00  0.00    +0.000 A 
ATOM      3  C   UNL     1      47.406   6.857  12.047  0.00  0.00    +0.000 A 
ATOM      4  C   UNL     1      46.233   6.527  11.360  0.00  0.00    +0.000 A 
ATOM      5  C   UNL     1      45.371   5.511  11.812  0.00  0.00    +0.000 A 
ATOM      6  C   UNL     1      45.693   4.877  13.021  0.00  0.00    +0.000 A 
ENDROOT
BRANCH   5   7
ATOM      7  C   UNL     1      44.269   5.029  10.867  0.00  0.00    +0.000 C 
ATOM      8  C   UNL     1      43.102   4.283  11.546  0.00  0.00    +0.000 C 
ATOM      9  C   UNL     1      43.393   2.801  11.755  0.00  0.00    +0.000 C 
ATOM     10  N   UNL     1      43.743   2.141  10.496  0.00  0.00    +0.000 NA
ATOM     11  C   UNL     1      44.921   2.758   9.895  0.00  0.00    +0.000 C 
ATOM     12  C   UNL     1      44.709   4.245   9.618  0.00  0.00    +0.000 C 
ATOM     13  H   UNL     1      42.959   2.213   9.851  0.00  0.00    +0.000 HD
ENDBRANCH   5   7
BRANCH   3  14
ATOM     14  O   UNL     1      48.307   7.801  11.642  0.00  0.00    +0.000 OA
BRANCH  14  15
ATOM     15  C   UNL     1      49.590   7.729  12.268  0.00  0.00    +0.000 C 
BRANCH  15  16
ATOM     16  C   UNL     1      50.672   8.249  11.354  0.00  0.00    +0.000 A 
ATOM     17  C   UNL     1      50.982   9.608  11.256  0.00  0.00    +0.000 A 
ATOM     18  C   UNL     1      51.994   9.998  10.397  0.00  0.00    +0.000 A 
ATOM     19  N   UNL     1      52.724   9.140   9.649  0.00  0.00    +0.000 NA
ATOM     20  C   UNL     1      52.423   7.831   9.769  0.00  0.00    +0.000 A 
ATOM     21  C   UNL     1      51.424   7.344  10.597  0.00  0.00    +0.000 A 
ENDBRANCH  15  16
ENDBRANCH  14  15
ENDBRANCH   3  14
TORSDOF 4
ENDMDL
MODEL 9
REMARK VINA RESULT:    -5.445      4.382      6.575
REMARK INTER + INTRA:          -7.241
REMARK INTER:                  -6.624
REMARK INTRA:                  -0.617
REMARK UNBOUND:                -0.523
REMARK  Name = 
REMARK  4 active torsions:
REMARK  status: ('A' for Active; 'I' for Inactive)
REMARK    1  A    between atoms: C_3  and  O_4
REMARK    2  A    between atoms: O_4  and  C_5
REMARK    3  A    between atoms: C_5  and  C_6
REMARK    4  A    between atoms: C_13  and  C_14
REMARK                            x       y       z     vdW  Elec       q    Type
REMARK                         _______ _______ _______ _____ _____    ______ ____
ROOT
ATOM      1  C   UNL     1      48.864   7.496  15.799  0.00  0.00    +0.000 A 
ATOM      2  C   UNL     1      48.414   6.985  14.583  0.00  0.00    +0.000 A 
ATOM      3  C   UNL     1      47.867   5.708  14.527  0.00  0.00    +0.000 A 
ATOM      4  C   UNL     1      47.862   4.911  15.677  0.00  0.00    +0.000 A 
ATOM      5  C   UNL     1      48.371   5.378  16.902  0.00  0.00    +0.000 A 
ATOM      6  C   UNL     1      48.829   6.703  16.953  0.00  0.00    +0.000 A 
ENDROOT
BRANCH   5   7
ATOM      7  C   UNL     1      48.582   4.363  18.027  0.00  0.00    +0.000 C 
ATOM      8  C   UNL     1      49.854   4.576  18.874  0.00  0.00    +0.000 C 
ATOM      9  C   UNL     1      51.091   3.943  18.246  0.00  0.00    +0.000 C 
ATOM     10  N   UNL     1      50.893   2.516  17.993  0.00  0.00    +0.000 NA
ATOM     11  C   UNL     1      49.763   2.299  17.095  0.00  0.00    +0.000 C 
ATOM     12  C   UNL     1      48.465   2.873  17.660  0.00  0.00    +0.000 C 
ATOM     13  H   UNL     1      50.718   2.040  18.876  0.00  0.00    +0.000 HD
ENDBRANCH   5   7
BRANCH   3  14
ATOM     14  O   UNL     1      47.428   5.304  13.297  0.00  0.00    +0.000 OA
BRANCH  14  15
ATOM     15  C   UNL     1      46.369   6.085  12.740  0.00  0.00    +0.000 C 
BRANCH  15  16
ATOM     16  C   UNL     1      45.234   5.208  12.270  0.00  0.00    +0.000 A 
ATOM     17  C   UNL     1      45.136   3.858  12.616  0.00  0.00    +0.000 A 
ATOM     18  C   UNL     1      44.058   3.129  12.145  0.00  0.00    +0.000 A 
ATOM     19  N   UNL     1      43.072   3.645  11.378  0.00  0.00    +0.000 NA
ATOM     20  C   UNL     1      43.174   4.953  11.068  0.00  0.00    +0.000 A 
ATOM     21  C   UNL     1      44.218   5.765  11.485  0.00  0.00    +0.000 A 
ENDBRANCH  15  16
ENDBRANCH  14  15
ENDBRANCH   3  14
TORSDOF 4
ENDMDL
