MODEL 1
REMARK VINA RESULT:    -7.340      0.000      0.000
REMARK INTER + INTRA:         -10.201
REMARK INTER:                  -9.701
REMARK INTRA:                  -0.500
REMARK UNBOUND:                -0.500
REMARK  Name = 
REMARK  8 active torsions:
REMARK  status: ('A' for Active; 'I' for Inactive)
REMARK    1  A    between atoms: C_1  and  C_2
REMARK    2  A    between atoms: C_5  and  C_6
REMARK    3  A    between atoms: C_6  and  C_7
REMARK    4  A    between atoms: C_6  and  C_8
REMARK    5  A    between atoms: C_8  and  O_9
REMARK    6  A    between atoms: O_9  and  C_10
REMARK    7  A    between atoms: C_14  and  C_15
REMARK    8  A    between atoms: C_15  and  N_16
REMARK                            x       y       z     vdW  Elec       q    Type
REMARK                         _______ _______ _______ _____ _____    ______ ____
ROOT
ATOM      1  O   UNL     1      45.469   3.825  12.712  0.00  0.00    +0.000 OA
ENDROOT
BRANCH   1   2
ATOM      2  C   UNL     1      46.330   4.461  13.583  0.00  0.00    +0.000 A 
ATOM      3  N   UNL     1      46.871   5.600  13.131  0.00  0.00    +0.000 NA
ATOM      4  C   UNL     1      47.742   6.198  13.967  0.00  0.00    +0.000 A 
ATOM      5  C   UNL     1      48.071   5.702  15.211  0.00  0.00    +0.000 A 
ATOM      6  C   UNL     1      47.458   4.527  15.586  0.00  0.00    +0.000 A 
ATOM      7  N   UNL     1      46.576   3.903  14.779  0.00  0.00    +0.000 NA
BRANCH   6   8
ATOM      8  C   UNL     1      47.731   3.871  16.921  0.00  0.00    +0.000 C 
BRANCH   8   9
ATOM      9  N   UNL     1      46.574   3.163  17.475  0.00  0.00    +0.000 NA
ATOM     10  H   UNL     1      46.673   3.136  18.491  0.00  0.00    +0.000 HD
ATOM     11  H   UNL     1      46.623   2.189  17.175  0.00  0.00    +0.000 HD
ENDBRANCH   8   9
ENDBRANCH   6   8
ENDBRANCH   1   2
BRANCH   1  12
ATOM     12  C   UNL     1      44.864   4.744  11.791  0.00  0.00    +0.000 C 
BRANCH  12  13
ATOM     13  C   UNL     1      44.033   3.974  10.745  0.00  0.00    +0.000 C 
ATOM     14  C   UNL     1      43.297   2.796  11.398  0.00  0.00    +0.000 C 
BRANCH  13  19
ATOM     15  C   UNL     1      47.363   2.177   6.269  0.00  0.00    +0.000 C 
ATOM     16  C   UNL     1      46.503   2.625   7.414  0.00  0.00    +0.000 A 
ATOM     17  C   UNL     1      45.933   1.704   8.297  0.00  0.00    +0.000 A 
ATOM     18  C   UNL     1      45.132   2.133   9.361  0.00  0.00    +0.000 A 
ATOM     19  C   UNL     1      44.883   3.503   9.572  0.00  0.00    +0.000 A 
ATOM     20  C   UNL     1      45.462   4.417   8.677  0.00  0.00    +0.000 A 
ATOM     21  C   UNL     1      46.262   3.988   7.613  0.00  0.00    +0.000 A 
ENDBRANCH  13  19
ENDBRANCH  12  13
ENDBRANCH   1  12
TORSDOF 6
ENDMDL
MODEL 2
REMARK VINA RESULT:    -7.275      1.127      1.770
REMARK INTER + INTRA:         -10.114
REMARK INTER:                  -9.577
REMARK INTRA:                  -0.537
REMARK UNBOUND:                -0.500
REMARK  Name = 
REMARK  8 active torsions:
REMARK  status: ('A' for Active; 'I' for Inactive)
REMARK    1  A    between atoms: C_1  and  C_2
REMARK    2  A    between atoms: C_5  and  C_6
REMARK    3  A    between atoms: C_6  and  C_7
REMARK    4  A    between atoms: C_6  and  C_8
REMARK    5  A    between atoms: C_8  and  O_9
REMARK    6  A    between atoms: O_9  and  C_10
REMARK    7  A    between atoms: C_14  and  C_15
REMARK    8  A    between atoms: C_15  and  N_16
REMARK                            x       y       z     vdW  Elec       q    Type
REMARK                         _______ _______ _______ _____ _____    ______ ____
ROOT
ATOM      1  O   UNL     1      43.978   5.207  12.197  0.00  0.00    +0.000 OA
ENDROOT
BRANCH   1   2
ATOM      2  C   UNL     1      45.251   5.516  12.628  0.00  0.00    +0.000 A 
ATOM      3  N   UNL     1      45.918   6.400  11.874  0.00  0.00    +0.000 NA
ATOM      4  C   UNL     1      47.175   6.669  12.275  0.00  0.00    +0.000 A 
ATOM      5  C   UNL     1      47.764   6.098  13.384  0.00  0.00    +0.000 A 
ATOM      6  C   UNL     1      46.995   5.204  14.096  0.00  0.00    +0.000 A 
ATOM      7  N   UNL     1      45.729   4.914  13.730  0.00  0.00    +0.000 NA
BRANCH   6   8
ATOM      8  C   UNL     1      47.516   4.503  15.330  0.00  0.00    +0.000 C 
BRANCH   8   9
ATOM      9  N   UNL     1      47.666   3.055  15.164  0.00  0.00    +0.000 NA
ATOM     10  H   UNL     1      48.075   2.880  14.244  0.00  0.00    +0.000 HD
ATOM     11  H   UNL     1      46.735   2.640  15.126  0.00  0.00    +0.000 HD
ENDBRANCH   8   9
ENDBRANCH   6   8
ENDBRANCH   1   2
BRANCH   1  12
ATOM     12  C   UNL     1      43.879   5.222  10.766  0.00  0.00    +0.000 C 
BRANCH  12  13
ATOM     13  C   UNL     1      43.648   3.793  10.236  0.00  0.00    +0.000 C 
ATOM     14  C   UNL     1      43.515   2.799  11.399  0.00  0.00    +0.000 C 
BRANCH  13  19
ATOM     15  C   UNL     1      47.801   2.097   6.463  0.00  0.00    +0.000 C 
ATOM     16  C   UNL     1      46.744   2.543   7.431  0.00  0.00    +0.000 A 
ATOM     17  C   UNL     1      46.400   3.892   7.558  0.00  0.00    +0.000 A 
ATOM     18  C   UNL     1      45.414   4.297   8.464  0.00  0.00    +0.000 A 
ATOM     19  C   UNL     1      44.740   3.357   9.268  0.00  0.00    +0.000 A 
ATOM     20  C   UNL     1      45.096   2.006   9.130  0.00  0.00    +0.000 A 
ATOM     21  C   UNL     1      46.083   1.601   8.225  0.00  0.00    +0.000 A 
ENDBRANCH  13  19
ENDBRANCH  12  13
ENDBRANCH   1  12
TORSDOF 6
ENDMDL
MODEL 3
REMARK VINA RESULT:    -6.953      2.059      3.331
REMARK INTER + INTRA:          -9.689
REMARK INTER:                  -9.178
REMARK INTRA:                  -0.511
REMARK UNBOUND:                -0.500
REMARK  Name = 
REMARK  8 active torsions:
REMARK  status: ('A' for Active; 'I' for Inactive)
REMARK    1  A    between atoms: C_1  and  C_2
REMARK    2  A    between atoms: C_5  and  C_6
REMARK    3  A    between atoms: C_6  and  C_7
REMARK    4  A    between atoms: C_6  and  C_8
REMARK    5  A    between atoms: C_8  and  O_9
REMARK    6  A    between atoms: O_9  and  C_10
REMARK    7  A    between atoms: C_14  and  C_15
REMARK    8  A    between atoms: C_15  and  N_16
REMARK                            x       y       z     vdW  Elec       q    Type
REMARK                         _______ _______ _______ _____ _____    ______ ____
ROOT
ATOM      1  O   UNL     1      45.565   4.973  11.700  0.00  0.00    +0.000 OA
ENDROOT
BRANCH   1   2
ATOM      2  C   UNL     1      46.117   6.125  12.222  0.00  0.00    +0.000 A 
ATOM      3  N   UNL     1      47.101   5.942  13.112  0.00  0.00    +0.000 NA
ATOM      4  C   UNL     1      47.610   7.067  13.650  0.00  0.00    +0.000 A 
ATOM      5  C   UNL     1      47.177   8.335  13.325  0.00  0.00    +0.000 A 
ATOM      6  C   UNL     1      46.162   8.418  12.396  0.00  0.00    +0.000 A 
ATOM      7  N   UNL     1      45.631   7.315  11.831  0.00  0.00    +0.000 NA
BRANCH   6   8
ATOM      8  C   UNL     1      45.590   9.745  11.951  0.00  0.00    +0.000 C 
BRANCH   8   9
ATOM      9  N   UNL     1      44.294  10.060  12.559  0.00  0.00    +0.000 NA
ATOM     10  H   UNL     1      43.560   9.658  11.973  0.00  0.00    +0.000 HD
ATOM     11  H   UNL     1      44.156  11.070  12.508  0.00  0.00    +0.000 HD
ENDBRANCH   8   9
ENDBRANCH   6   8
ENDBRANCH   1   2
BRANCH   1  12
ATOM     12  C   UNL     1      44.409   5.250  10.896  0.00  0.00    +0.000 C 
BRANCH  12  13
ATOM     13  C   UNL     1      43.909   3.956  10.224  0.00  0.00    +0.000 C 
ATOM     14  C   UNL     1      43.588   2.888  11.278  0.00  0.00    +0.000 C 
BRANCH  13  19
ATOM     15  C   UNL     1      47.769   1.936   6.302  0.00  0.00    +0.000 C 
ATOM     16  C   UNL     1      46.773   2.442   7.305  0.00  0.00    +0.000 A 
ATOM     17  C   UNL     1      46.117   1.570   8.179  0.00  0.00    +0.000 A 
ATOM     18  C   UNL     1      45.191   2.051   9.109  0.00  0.00    +0.000 A 
ATOM     19  C   UNL     1      44.898   3.426   9.194  0.00  0.00    +0.000 A 
ATOM     20  C   UNL     1      45.564   4.291   8.310  0.00  0.00    +0.000 A 
ATOM     21  C   UNL     1      46.490   3.809   7.379  0.00  0.00    +0.000 A 
ENDBRANCH  13  19
ENDBRANCH  12  13
ENDBRANCH   1  12
TORSDOF 6
ENDMDL
MODEL 4
REMARK VINA RESULT:    -6.911      2.112      2.566
REMARK INTER + INTRA:          -9.633
REMARK INTER:                  -9.101
REMARK INTRA:                  -0.532
REMARK UNBOUND:                -0.500
REMARK  Name = 
REMARK  8 active torsions:
REMARK  status: ('A' for Active; 'I' for Inactive)
REMARK    1  A    between atoms: C_1  and  C_2
REMARK    2  A    between atoms: C_5  and  C_6
REMARK    3  A    between atoms: C_6  and  C_7
REMARK    4  A    between atoms: C_6  and  C_8
REMARK    5  A    between atoms: C_8  and  O_9
REMARK    6  A    between atoms: O_9  and  C_10
REMARK    7  A    between atoms: C_14  and  C_15
REMARK    8  A    between atoms: C_15  and  N_16
REMARK                            x       y       z     vdW  Elec       q    Type
REMARK                         _______ _______ _______ _____ _____    ______ ____
ROOT
ATOM      1  O   UNL     1      45.300   4.994  11.891  0.00  0.00    +0.000 OA
ENDROOT
BRANCH   1   2
ATOM      2  C   UNL     1      45.781   6.166  12.436  0.00  0.00    +0.000 A 
ATOM      3  N   UNL     1      44.986   7.236  12.301  0.00  0.00    +0.000 NA
ATOM      4  C   UNL     1      45.477   8.387  12.798  0.00  0.00    +0.000 A 
ATOM      5  C   UNL     1      46.706   8.492  13.415  0.00  0.00    +0.000 A 
ATOM      6  C   UNL     1      47.447   7.335  13.508  0.00  0.00    +0.000 A 
ATOM      7  N   UNL     1      46.987   6.161  13.028  0.00  0.00    +0.000 NA
BRANCH   6   8
ATOM      8  C   UNL     1      48.813   7.308  14.157  0.00  0.00    +0.000 C 
BRANCH   8   9
ATOM      9  N   UNL     1      49.900   6.994  13.225  0.00  0.00    +0.000 NA
ATOM     10  H   UNL     1      50.275   6.076  13.470  0.00  0.00    +0.000 HD
ATOM     11  H   UNL     1      50.664   7.650  13.395  0.00  0.00    +0.000 HD
ENDBRANCH   8   9
ENDBRANCH   6   8
ENDBRANCH   1   2
BRANCH   1  12
ATOM     12  C   UNL     1      44.274   5.238  10.917  0.00  0.00    +0.000 C 
BRANCH  12  13
ATOM     13  C   UNL     1      43.843   3.912  10.260  0.00  0.00    +0.000 C 
ATOM     14  C   UNL     1      43.581   2.839  11.325  0.00  0.00    +0.000 C 
BRANCH  13  19
ATOM     15  C   UNL     1      47.802   2.056   6.356  0.00  0.00    +0.000 C 
ATOM     16  C   UNL     1      46.781   2.519   7.354  0.00  0.00    +0.000 A 
ATOM     17  C   UNL     1      46.117   1.614   8.186  0.00  0.00    +0.000 A 
ATOM     18  C   UNL     1      45.168   2.056   9.112  0.00  0.00    +0.000 A 
ATOM     19  C   UNL     1      44.858   3.425   9.233  0.00  0.00    +0.000 A 
ATOM     20  C   UNL     1      45.533   4.323   8.391  0.00  0.00    +0.000 A 
ATOM     21  C   UNL     1      46.482   3.881   7.464  0.00  0.00    +0.000 A 
ENDBRANCH  13  19
ENDBRANCH  12  13
ENDBRANCH   1  12
TORSDOF 6
ENDMDL
MODEL 5
REMARK VINA RESULT:    -6.843      3.219      6.371
REMARK INTER + INTRA:          -9.543
REMARK INTER:                  -8.913
REMARK INTRA:                  -0.629
REMARK UNBOUND:                -0.500
REMARK  Name = 
REMARK  8 active torsions:
REMARK  status: ('A' for Active; 'I' for Inactive)
REMARK    1  A    between atoms: C_1  and  C_2
REMARK    2  A    between atoms: C_5  and  C_6
REMARK    3  A    between atoms: C_6  and  C_7
REMARK    4  A    between atoms: C_6  and  C_8
REMARK    5  A    between atoms: C_8  and  O_9
REMARK    6  A    between atoms: O_9  and  C_10
REMARK    7  A    between atoms: C_14  and  C_15
REMARK    8  A    between atoms: C_15  and  N_16
REMARK                            x       y       z     vdW  Elec       q    Type
REMARK                         _______ _______ _______ _____ _____    ______ ____
ROOT
ATOM      1  O   UNL     1      44.131   3.029   9.858  0.00  0.00    +0.000 OA
ENDROOT
BRANCH   1   2
ATOM      2  C   UNL     1      45.126   3.070   8.903  0.00  0.00    +0.000 A 
ATOM      3  N   UNL     1      45.357   4.272   8.360  0.00  0.00    +0.000 NA
ATOM      4  C   UNL     1      46.301   4.301   7.400  0.00  0.00    +0.000 A 
ATOM      5  C   UNL     1      47.006   3.190   6.985  0.00  0.00    +0.000 A 
ATOM      6  C   UNL     1      46.698   2.000   7.608  0.00  0.00    +0.000 A 
ATOM      7  N   UNL     1      45.763   1.932   8.578  0.00  0.00    +0.000 NA
BRANCH   6   8
ATOM      8  C   UNL     1      47.390   0.705   7.249  0.00  0.00    +0.000 C 
BRANCH   8   9
ATOM      9  N   UNL     1      46.685  -0.490   7.721  0.00  0.00    +0.000 NA
ATOM     10  H   UNL     1      47.047  -1.297   7.211  0.00  0.00    +0.000 HD
ATOM     11  H   UNL     1      45.706  -0.413   7.441  0.00  0.00    +0.000 HD
ENDBRANCH   8   9
ENDBRANCH   6   8
ENDBRANCH   1   2
BRANCH   1  12
ATOM     12  C   UNL     1      43.668   4.342  10.204  0.00  0.00    +0.000 C 
BRANCH  12  13
ATOM     13  C   UNL     1      43.778   4.558  11.727  0.00  0.00    +0.000 C 
ATOM     14  C   UNL     1      42.599   5.393  12.242  0.00  0.00    +0.000 C 
BRANCH  13  19
ATOM     15  C   UNL     1      48.928   6.929  13.215  0.00  0.00    +0.000 C 
ATOM     16  C   UNL     1      47.605   6.334  12.828  0.00  0.00    +0.000 A 
ATOM     17  C   UNL     1      46.929   6.753  11.679  0.00  0.00    +0.000 A 
ATOM     18  C   UNL     1      45.697   6.192  11.328  0.00  0.00    +0.000 A 
ATOM     19  C   UNL     1      45.107   5.189  12.121  0.00  0.00    +0.000 A 
ATOM     20  C   UNL     1      45.797   4.777  13.272  0.00  0.00    +0.000 A 
ATOM     21  C   UNL     1      47.029   5.339  13.624  0.00  0.00    +0.000 A 
ENDBRANCH  13  19
ENDBRANCH  12  13
ENDBRANCH   1  12
TORSDOF 6
ENDMDL
MODEL 6
REMARK VINA RESULT:    -6.299      2.816      7.594
REMARK INTER + INTRA:          -8.824
REMARK INTER:                  -8.400
REMARK INTRA:                  -0.424
REMARK UNBOUND:                -0.500
REMARK  Name = 
REMARK  8 active torsions:
REMARK  status: ('A' for Active; 'I' for Inactive)
REMARK    1  A    between atoms: C_1  and  C_2
REMARK    2  A    between atoms: C_5  and  C_6
REMARK    3  A    between atoms: C_6  and  C_7
REMARK    4  A    between atoms: C_6  and  C_8
REMARK    5  A    between atoms: C_8  and  O_9
REMARK    6  A    between atoms: O_9  and  C_10
REMARK    7  A    between atoms: C_14  and  C_15
REMARK    8  A    between atoms: C_15  and  N_16
REMARK                            x       y       z     vdW  Elec       q    Type
REMARK                         _______ _______ _______ _____ _____    ______ ____
ROOT
ATOM      1  O   UNL     1      47.000   3.409  14.459  0.00  0.00    +0.000 OA
ENDROOT
BRANCH   1   2
ATOM      2  C   UNL     1      46.394   4.011  13.375  0.00  0.00    +0.000 A 
ATOM      3  N   UNL     1      46.842   5.236  13.069  0.00  0.00    +0.000 NA
ATOM      4  C   UNL     1      46.221   5.837  12.036  0.00  0.00    +0.000 A 
ATOM      5  C   UNL     1      45.196   5.257  11.317  0.00  0.00    +0.000 A 
ATOM      6  C   UNL     1      44.810   3.994  11.707  0.00  0.00    +0.000 A 
ATOM      7  N   UNL     1      45.412   3.357  12.732  0.00  0.00    +0.000 NA
BRANCH   6   8
ATOM      8  C   UNL     1      43.698   3.244  11.009  0.00  0.00    +0.000 C 
BRANCH   8   9
ATOM      9  N   UNL     1      43.229   2.067  11.746  0.00  0.00    +0.000 NA
ATOM     10  H   UNL     1      42.815   2.385  12.623  0.00  0.00    +0.000 HD
ATOM     11  H   UNL     1      44.044   1.516  12.017  0.00  0.00    +0.000 HD
ENDBRANCH   8   9
ENDBRANCH   6   8
ENDBRANCH   1   2
BRANCH   1  12
ATOM     12  C   UNL     1      47.484   4.373  15.405  0.00  0.00    +0.000 C 
BRANCH  12  13
ATOM     13  C   UNL     1      47.625   3.724  16.796  0.00  0.00    +0.000 C 
ATOM     14  C   UNL     1      47.050   4.642  17.883  0.00  0.00    +0.000 C 
BRANCH  13  19
ATOM     15  C   UNL     1      53.192   2.276  17.928  0.00  0.00    +0.000 C 
ATOM     16  C   UNL     1      51.767   2.656  17.648  0.00  0.00    +0.000 A 
ATOM     17  C   UNL     1      51.313   3.964  17.844  0.00  0.00    +0.000 A 
ATOM     18  C   UNL     1      49.983   4.307  17.581  0.00  0.00    +0.000 A 
ATOM     19  C   UNL     1      49.068   3.347  17.109  0.00  0.00    +0.000 A 
ATOM     20  C   UNL     1      49.537   2.037  16.916  0.00  0.00    +0.000 A 
ATOM     21  C   UNL     1      50.867   1.694  17.180  0.00  0.00    +0.000 A 
ENDBRANCH  13  19
ENDBRANCH  12  13
ENDBRANCH   1  12
TORSDOF 6
ENDMDL
MODEL 7
REMARK VINA RESULT:    -6.201      1.540      2.540
REMARK INTER + INTRA:          -8.695
REMARK INTER:                  -8.206
REMARK INTRA:                  -0.489
REMARK UNBOUND:                -0.500
REMARK  Name = 
REMARK  8 active torsions:
REMARK  status: ('A' for Active; 'I' for Inactive)
REMARK    1  A    between atoms: C_1  and  C_2
REMARK    2  A    between atoms: C_5  and  C_6
REMARK    3  A    between atoms: C_6  and  C_7
REMARK    4  A    between atoms: C_6  and  C_8
REMARK    5  A    between atoms: C_8  and  O_9
REMARK    6  A    between atoms: O_9  and  C_10
REMARK    7  A    between atoms: C_14  and  C_15
REMARK    8  A    between atoms: C_15  and  N_16
REMARK                            x       y       z     vdW  Elec       q    Type
REMARK                         _______ _______ _______ _____ _____    ______ ____
ROOT
ATOM      1  O   UNL     1      46.475   4.290  13.248  0.00  0.00    +0.000 OA
ENDROOT
BRANCH   1   2
ATOM      2  C   UNL     1      47.095   4.609  14.438  0.00  0.00    +0.000 A 
ATOM      3  N   UNL     1      46.761   3.845  15.487  0.00  0.00    +0.000 NA
ATOM      4  C   UNL     1      47.337   4.185  16.656  0.00  0.00    +0.000 A 
ATOM      5  C   UNL     1      48.220   5.236  16.797  0.00  0.00    +0.000 A 
ATOM      6  C   UNL     1      48.502   5.958  15.659  0.00  0.00    +0.000 A 
ATOM      7  N   UNL     1      47.951   5.645  14.469  0.00  0.00    +0.000 NA
BRANCH   6   8
ATOM      8  C   UNL     1      49.450   7.137  15.672  0.00  0.00    +0.000 C 
BRANCH   8   9
ATOM      9  N   UNL     1      50.549   7.018  14.710  0.00  0.00    +0.000 NA
ATOM     10  H   UNL     1      51.129   6.224  14.985  0.00  0.00    +0.000 HD
ATOM     11  H   UNL     1      51.150   7.837  14.812  0.00  0.00    +0.000 HD
ENDBRANCH   8   9
ENDBRANCH   6   8
ENDBRANCH   1   2
BRANCH   1  12
ATOM     12  C   UNL     1      45.045   4.320  13.364  0.00  0.00    +0.000 C 
BRANCH  12  13
ATOM     13  C   UNL     1      44.441   5.189  12.242  0.00  0.00    +0.000 C 
ATOM     14  C   UNL     1      42.918   5.289  12.396  0.00  0.00    +0.000 C 
BRANCH  13  19
ATOM     15  C   UNL     1      45.955   3.206   6.938  0.00  0.00    +0.000 C 
ATOM     16  C   UNL     1      45.556   3.706   8.295  0.00  0.00    +0.000 A 
ATOM     17  C   UNL     1      44.774   2.929   9.154  0.00  0.00    +0.000 A 
ATOM     18  C   UNL     1      44.406   3.405  10.417  0.00  0.00    +0.000 A 
ATOM     19  C   UNL     1      44.818   4.678  10.857  0.00  0.00    +0.000 A 
ATOM     20  C   UNL     1      45.604   5.448   9.985  0.00  0.00    +0.000 A 
ATOM     21  C   UNL     1      45.969   4.972   8.722  0.00  0.00    +0.000 A 
ENDBRANCH  13  19
ENDBRANCH  12  13
ENDBRANCH   1  12
TORSDOF 6
ENDMDL
MODEL 8
REMARK VINA RESULT:    -6.043      3.220      6.830
REMARK INTER + INTRA:          -8.486
REMARK INTER:                  -7.993
REMARK INTRA:                  -0.493
REMARK UNBOUND:                -0.500
REMARK  Name = 
REMARK  8 active torsions:
REMARK  status: ('A' for Active; 'I' for Inactive)
REMARK    1  A    between atoms: C_1  and  C_2
REMARK    2  A    between atoms: C_5  and  C_6
REMARK    3  A    between atoms: C_6  and  C_7
REMARK    4  A    between atoms: C_6  and  C_8
REMARK    5  A    between atoms: C_8  and  O_9
REMARK    6  A    between atoms: O_9  and  C_10
REMARK    7  A    between atoms: C_14  and  C_15
REMARK    8  A    between atoms: C_15  and  N_16
REMARK                            x       y       z     vdW  Elec       q    Type
REMARK                         _______ _______ _______ _____ _____    ______ ____
ROOT
ATOM      1  O   UNL     1      43.786   5.067  10.366  0.00  0.00    +0.000 OA
ENDROOT
BRANCH   1   2
ATOM      2  C   UNL     1      44.406   4.103   9.597  0.00  0.00    +0.000 A 
ATOM      3  N   UNL     1      44.076   2.836   9.882  0.00  0.00    +0.000 NA
ATOM      4  C   UNL     1      44.713   1.896   9.157  0.00  0.00    +0.000 A 
ATOM      5  C   UNL     1      45.641   2.183   8.178  0.00  0.00    +0.000 A 
ATOM      6  C   UNL     1      45.909   3.516   7.958  0.00  0.00    +0.000 A 
ATOM      7  N   UNL     1      45.287   4.487   8.658  0.00  0.00    +0.000 NA
BRANCH   6   8
ATOM      8  C   UNL     1      46.907   3.972   6.917  0.00  0.00    +0.000 C 
BRANCH   8   9
ATOM      9  N   UNL     1      47.132   2.993   5.850  0.00  0.00    +0.000 NA
ATOM     10  H   UNL     1      47.571   3.474   5.063  0.00  0.00    +0.000 HD
ATOM     11  H   UNL     1      46.223   2.685   5.503  0.00  0.00    +0.000 HD
ENDBRANCH   8   9
ENDBRANCH   6   8
ENDBRANCH   1   2
BRANCH   1  12
ATOM     12  C   UNL     1      44.075   4.905  11.762  0.00  0.00    +0.000 C 
BRANCH  12  13
ATOM     13  C   UNL     1      45.593   5.011  12.005  0.00  0.00    +0.000 C 
ATOM     14  C   UNL     1      46.001   4.202  13.243  0.00  0.00    +0.000 C 
BRANCH  13  19
ATOM     15  C   UNL     1      47.362  10.586  12.384  0.00  0.00    +0.000 C 
ATOM     16  C   UNL     1      46.900   9.161  12.298  0.00  0.00    +0.000 A 
ATOM     17  C   UNL     1      45.587   8.804  12.613  0.00  0.00    +0.000 A 
ATOM     18  C   UNL     1      45.167   7.472  12.530  0.00  0.00    +0.000 A 
ATOM     19  C   UNL     1      46.055   6.458  12.122  0.00  0.00    +0.000 A 
ATOM     20  C   UNL     1      47.372   6.831  11.808  0.00  0.00    +0.000 A 
ATOM     21  C   UNL     1      47.792   8.163  11.893  0.00  0.00    +0.000 A 
ENDBRANCH  13  19
ENDBRANCH  12  13
ENDBRANCH   1  12
TORSDOF 6
ENDMDL
MODEL 9
REMARK VINA RESULT:    -5.724      3.436      6.800
REMARK INTER + INTRA:          -8.065
REMARK INTER:                  -7.519
REMARK INTRA:                  -0.546
REMARK UNBOUND:                -0.500
REMARK  Name = 
REMARK  8 active torsions:
REMARK  status: ('A' for Active; 'I' for Inactive)
REMARK    1  A    between atoms: C_1  and  C_2
REMARK    2  A    between atoms: C_5  and  C_6
REMARK    3  A    between atoms: C_6  and  C_7
REMARK    4  A    between atoms: C_6  and  C_8
REMARK    5  A    between atoms: C_8  and  O_9
REMARK    6  A    between atoms: O_9  and  C_10
REMARK    7  A    between atoms: C_14  and  C_15
REMARK    8  A    between atoms: C_15  and  N_16
REMARK                            x       y       z     vdW  Elec       q    Type
REMARK                         _______ _______ _______ _____ _____    ______ ____
ROOT
ATOM      1  O   UNL     1      45.430   6.603  11.093  0.00  0.00    +0.000 OA
ENDROOT
BRANCH   1   2
ATOM      2  C   UNL     1      45.175   5.334  10.616  0.00  0.00    +0.000 A 
ATOM      3  N   UNL     1      44.634   4.482  11.498  0.00  0.00    +0.000 NA
ATOM      4  C   UNL     1      44.424   3.233  11.041  0.00  0.00    +0.000 A 
ATOM      5  C   UNL     1      44.726   2.826   9.758  0.00  0.00    +0.000 A 
ATOM      6  C   UNL     1      45.275   3.777   8.926  0.00  0.00    +0.000 A 
ATOM      7  N   UNL     1      45.495   5.040   9.345  0.00  0.00    +0.000 NA
BRANCH   6   8
ATOM      8  C   UNL     1      45.657   3.466   7.496  0.00  0.00    +0.000 C 
BRANCH   8   9
ATOM      9  N   UNL     1      46.813   4.229   7.017  0.00  0.00    +0.000 NA
ATOM     10  H   UNL     1      47.653   3.672   7.180  0.00  0.00    +0.000 HD
ATOM     11  H   UNL     1      46.918   5.053   7.609  0.00  0.00    +0.000 HD
ENDBRANCH   8   9
ENDBRANCH   6   8
ENDBRANCH   1   2
BRANCH   1  12
ATOM     12  C   UNL     1      45.821   6.587  12.474  0.00  0.00    +0.000 C 
BRANCH  12  13
ATOM     13  C   UNL     1      46.309   7.986  12.902  0.00  0.00    +0.000 C 
ATOM     14  C   UNL     1      45.290   9.061  12.501  0.00  0.00    +0.000 C 
BRANCH  13  19
ATOM     15  C   UNL     1      51.640   9.243  10.814  0.00  0.00    +0.000 C 
ATOM     16  C   UNL     1      50.276   8.909  11.343  0.00  0.00    +0.000 A 
ATOM     17  C   UNL     1      49.937   7.601  11.700  0.00  0.00    +0.000 A 
ATOM     18  C   UNL     1      48.663   7.300  12.191  0.00  0.00    +0.000 A 
ATOM     19  C   UNL     1      47.689   8.306  12.342  0.00  0.00    +0.000 A 
ATOM     20  C   UNL     1      48.043   9.616  11.979  0.00  0.00    +0.000 A 
ATOM     21  C   UNL     1      49.317   9.916  11.487  0.00  0.00    +0.000 A 
ENDBRANCH  13  19
ENDBRANCH  12  13
ENDBRANCH   1  12
TORSDOF 6
ENDMDL
