MODEL 1
REMARK VINA RESULT:    -8.869      0.000      0.000
REMARK INTER + INTRA:         -13.499
REMARK INTER:                 -12.498
REMARK INTRA:                  -1.001
REMARK UNBOUND:                -1.001
REMARK  Name = 
REMARK  8 active torsions:
REMARK  status: ('A' for Active; 'I' for Inactive)
REMARK    1  A    between atoms: C_1  and  C_2
REMARK    2  A    between atoms: C_2  and  N_3
REMARK    3  A    between atoms: C_2  and  C_25
REMARK    4  A    between atoms: N_3  and  C_4
REMARK    5  A    between atoms: C_4  and  C_5
REMARK    6  A    between atoms: C_9  and  C_10
REMARK    7  A    between atoms: C_10  and  N_11
REMARK    8  A    between atoms: C_12  and  C_14
REMARK                            x       y       z     vdW  Elec       q    Type
REMARK                         _______ _______ _______ _____ _____    ______ ____
ROOT
ATOM      1  C   UNL     1      44.925   5.335  11.124  0.00  0.00    +0.000 A 
ATOM      2  C   UNL     1      45.901   6.252  10.747  0.00  0.00    +0.000 A 
ATOM      3  C   UNL     1      46.925   6.548  11.642  0.00  0.00    +0.000 A 
ATOM      4  C   UNL     1      46.950   5.919  12.883  0.00  0.00    +0.000 A 
ATOM      5  C   UNL     1      45.959   4.994  13.189  0.00  0.00    +0.000 A 
ATOM      6  N   UNL     1      44.953   4.704  12.327  0.00  0.00    +0.000 NA
ENDROOT
BRANCH   1   7
ATOM      7  C   UNL     1      43.791   4.981  10.175  0.00  0.00    +0.000 C 
BRANCH   7   8
ATOM      8  N   UNL     1      44.269   4.288   8.977  0.00  0.00    +0.000 NA
ATOM      9  H   UNL     1      44.825   4.929   8.414  0.00  0.00    +0.000 HD
BRANCH   8  11
ATOM     10  C   UNL     1      44.150   1.847   9.507  0.00  0.00    +0.000 C 
ATOM     11  C   UNL     1      45.038   3.072   9.245  0.00  0.00    +0.000 C 
BRANCH  11  12
ATOM     12  C   UNL     1      45.958   2.786   8.063  0.00  0.00    +0.000 A 
ATOM     13  C   UNL     1      46.585   1.538   7.930  0.00  0.00    +0.000 A 
ATOM     14  C   UNL     1      47.391   1.265   6.821  0.00  0.00    +0.000 A 
ATOM     15  C   UNL     1      47.581   2.233   5.836  0.00  0.00    +0.000 A 
ATOM     16  C   UNL     1      46.977   3.482   5.962  0.00  0.00    +0.000 A 
ATOM     17  C   UNL     1      46.178   3.759   7.072  0.00  0.00    +0.000 A 
ENDBRANCH  11  12
ENDBRANCH   8  11
ENDBRANCH   7   8
ENDBRANCH   1   7
BRANCH   5  18
ATOM     18  C   UNL     1      45.946   4.296  14.529  0.00  0.00    +0.000 C 
BRANCH  18  19
ATOM     19  N   UNL     1      47.147   4.575  15.287  0.00  0.00    +0.000 N 
ATOM     20  C   UNL     1      47.345   4.051  16.536  0.00  0.00    +0.000 C 
ATOM     21  O   UNL     1      46.556   3.257  17.042  0.00  0.00    +0.000 OA
ATOM     22  H   UNL     1      47.666   5.400  14.996  0.00  0.00    +0.000 HD
BRANCH  20  23
ATOM     23  C   UNL     1      48.586   4.425  17.225  0.00  0.00    +0.000 A 
ATOM     24  C   UNL     1      48.688   5.672  17.824  0.00  0.00    +0.000 A 
ATOM     25  S   UNL     1      50.185   5.940  18.598  0.00  0.00    +0.000 S 
ATOM     26  C   UNL     1      50.767   4.415  18.119  0.00  0.00    +0.000 A 
ATOM     27  N   UNL     1      52.030   4.020  18.431  0.00  0.00    +0.000 NA
ATOM     28  C   UNL     1      52.348   2.852  17.982  0.00  0.00    +0.000 A 
ATOM     29  N   UNL     1      51.513   2.038  17.260  0.00  0.00    +0.000 N 
ATOM     30  C   UNL     1      50.221   2.384  16.946  0.00  0.00    +0.000 A 
ATOM     31  O   UNL     1      49.481   1.618  16.340  0.00  0.00    +0.000 OA
ATOM     32  C   UNL     1      49.821   3.699  17.407  0.00  0.00    +0.000 A 
ATOM     33  H   UNL     1      51.815   1.125  16.954  0.00  0.00    +0.000 HD
ENDBRANCH  20  23
ENDBRANCH  18  19
ENDBRANCH   5  18
TORSDOF 7
ENDMDL
MODEL 2
REMARK VINA RESULT:    -8.521      2.790      3.963
REMARK INTER + INTRA:         -13.009
REMARK INTER:                 -12.062
REMARK INTRA:                  -0.947
REMARK UNBOUND:                -1.001
REMARK  Name = 
REMARK  8 active torsions:
REMARK  status: ('A' for Active; 'I' for Inactive)
REMARK    1  A    between atoms: C_1  and  C_2
REMARK    2  A    between atoms: C_2  and  N_3
REMARK    3  A    between atoms: C_2  and  C_25
REMARK    4  A    between atoms: N_3  and  C_4
REMARK    5  A    between atoms: C_4  and  C_5
REMARK    6  A    between atoms: C_9  and  C_10
REMARK    7  A    between atoms: C_10  and  N_11
REMARK    8  A    between atoms: C_12  and  C_14
REMARK                            x       y       z     vdW  Elec       q    Type
REMARK                         _______ _______ _______ _____ _____    ______ ____
ROOT
ATOM      1  C   UNL     1      45.456   4.257  12.428  0.00  0.00    +0.000 A 
ATOM      2  C   UNL     1      45.859   5.459  11.855  0.00  0.00    +0.000 A 
ATOM      3  C   UNL     1      46.793   6.242  12.526  0.00  0.00    +0.000 A 
ATOM      4  C   UNL     1      47.302   5.804  13.745  0.00  0.00    +0.000 A 
ATOM      5  C   UNL     1      46.877   4.582  14.252  0.00  0.00    +0.000 A 
ATOM      6  N   UNL     1      45.962   3.814  13.609  0.00  0.00    +0.000 NA
ENDROOT
BRANCH   1   7
ATOM      7  C   UNL     1      44.441   3.369  11.725  0.00  0.00    +0.000 C 
BRANCH   7   8
ATOM      8  N   UNL     1      45.044   2.589  10.644  0.00  0.00    +0.000 NA
ATOM      9  H   UNL     1      44.955   1.596  10.853  0.00  0.00    +0.000 HD
BRANCH   8  11
ATOM     10  C   UNL     1      44.018   4.316   9.155  0.00  0.00    +0.000 C 
ATOM     11  C   UNL     1      44.496   2.865   9.316  0.00  0.00    +0.000 C 
BRANCH  11  12
ATOM     12  C   UNL     1      45.553   2.561   8.260  0.00  0.00    +0.000 A 
ATOM     13  C   UNL     1      45.948   3.543   7.340  0.00  0.00    +0.000 A 
ATOM     14  C   UNL     1      46.951   3.274   6.403  0.00  0.00    +0.000 A 
ATOM     15  C   UNL     1      47.567   2.024   6.375  0.00  0.00    +0.000 A 
ATOM     16  C   UNL     1      47.174   1.033   7.272  0.00  0.00    +0.000 A 
ATOM     17  C   UNL     1      46.170   1.298   8.203  0.00  0.00    +0.000 A 
ENDBRANCH  11  12
ENDBRANCH   8  11
ENDBRANCH   7   8
ENDBRANCH   1   7
BRANCH   5  18
ATOM     18  C   UNL     1      47.399   4.075  15.576  0.00  0.00    +0.000 C 
BRANCH  18  19
ATOM     19  N   UNL     1      47.326   5.093  16.602  0.00  0.00    +0.000 N 
ATOM     20  C   UNL     1      48.454   5.671  17.121  0.00  0.00    +0.000 C 
ATOM     21  O   UNL     1      49.575   5.416  16.687  0.00  0.00    +0.000 OA
ATOM     22  H   UNL     1      46.455   5.126  17.125  0.00  0.00    +0.000 HD
BRANCH  20  23
ATOM     23  C   UNL     1      48.264   6.671  18.178  0.00  0.00    +0.000 A 
ATOM     24  C   UNL     1      48.185   6.262  19.501  0.00  0.00    +0.000 A 
ATOM     25  S   UNL     1      47.983   7.547  20.605  0.00  0.00    +0.000 S 
ATOM     26  C   UNL     1      47.947   8.692  19.348  0.00  0.00    +0.000 A 
ATOM     27  N   UNL     1      47.759  10.013  19.611  0.00  0.00    +0.000 NA
ATOM     28  C   UNL     1      47.727  10.765  18.561  0.00  0.00    +0.000 A 
ATOM     29  N   UNL     1      47.878  10.318  17.274  0.00  0.00    +0.000 N 
ATOM     30  C   UNL     1      48.099   8.998  16.964  0.00  0.00    +0.000 A 
ATOM     31  O   UNL     1      48.277   8.632  15.808  0.00  0.00    +0.000 OA
ATOM     32  C   UNL     1      48.119   8.106  18.107  0.00  0.00    +0.000 A 
ATOM     33  H   UNL     1      47.864  10.961  16.496  0.00  0.00    +0.000 HD
ENDBRANCH  20  23
ENDBRANCH  18  19
ENDBRANCH   5  18
TORSDOF 7
ENDMDL
MODEL 3
REMARK VINA RESULT:    -8.303      2.217      3.096
REMARK INTER + INTRA:         -12.702
REMARK INTER:                 -11.752
REMARK INTRA:                  -0.949
REMARK UNBOUND:                -1.001
REMARK  Name = 
REMARK  8 active torsions:
REMARK  status: ('A' for Active; 'I' for Inactive)
REMARK    1  A    between atoms: C_1  and  C_2
REMARK    2  A    between atoms: C_2  and  N_3
REMARK    3  A    between atoms: C_2  and  C_25
REMARK    4  A    between atoms: N_3  and  C_4
REMARK    5  A    between atoms: C_4  and  C_5
REMARK    6  A    between atoms: C_9  and  C_10
REMARK    7  A    between atoms: C_10  and  N_11
REMARK    8  A    between atoms: C_12  and  C_14
REMARK                            x       y       z     vdW  Elec       q    Type
REMARK                         _______ _______ _______ _____ _____    ______ ____
ROOT
ATOM      1  C   UNL     1      45.308   4.271  12.247  0.00  0.00    +0.000 A 
ATOM      2  C   UNL     1      45.714   5.486  11.704  0.00  0.00    +0.000 A 
ATOM      3  C   UNL     1      46.639   6.257  12.402  0.00  0.00    +0.000 A 
ATOM      4  C   UNL     1      47.137   5.793  13.616  0.00  0.00    +0.000 A 
ATOM      5  C   UNL     1      46.711   4.560  14.091  0.00  0.00    +0.000 A 
ATOM      6  N   UNL     1      45.804   3.804  13.423  0.00  0.00    +0.000 NA
ENDROOT
BRANCH   1   7
ATOM      7  C   UNL     1      44.302   3.397  11.515  0.00  0.00    +0.000 C 
BRANCH   7   8
ATOM      8  N   UNL     1      44.934   2.573  10.483  0.00  0.00    +0.000 NA
ATOM      9  H   UNL     1      44.751   1.590  10.677  0.00  0.00    +0.000 HD
BRANCH   8  11
ATOM     10  C   UNL     1      44.107   4.359   8.941  0.00  0.00    +0.000 C 
ATOM     11  C   UNL     1      44.524   2.891   9.115  0.00  0.00    +0.000 C 
BRANCH  11  12
ATOM     12  C   UNL     1      45.667   2.573   8.159  0.00  0.00    +0.000 A 
ATOM     13  C   UNL     1      46.240   1.294   8.129  0.00  0.00    +0.000 A 
ATOM     14  C   UNL     1      47.258   0.993   7.219  0.00  0.00    +0.000 A 
ATOM     15  C   UNL     1      47.713   1.966   6.330  0.00  0.00    +0.000 A 
ATOM     16  C   UNL     1      47.165   3.246   6.358  0.00  0.00    +0.000 A 
ATOM     17  C   UNL     1      46.155   3.549   7.271  0.00  0.00    +0.000 A 
ENDBRANCH  11  12
ENDBRANCH   8  11
ENDBRANCH   7   8
ENDBRANCH   1   7
BRANCH   5  18
ATOM     18  C   UNL     1      47.220   4.025  15.409  0.00  0.00    +0.000 C 
BRANCH  18  19
ATOM     19  N   UNL     1      47.825   5.068  16.209  0.00  0.00    +0.000 N 
ATOM     20  C   UNL     1      48.948   4.839  16.958  0.00  0.00    +0.000 C 
ATOM     21  O   UNL     1      49.545   3.765  16.926  0.00  0.00    +0.000 OA
ATOM     22  H   UNL     1      47.219   5.854  16.433  0.00  0.00    +0.000 HD
BRANCH  20  23
ATOM     23  C   UNL     1      49.458   5.962  17.754  0.00  0.00    +0.000 A 
ATOM     24  C   UNL     1      50.716   6.479  17.481  0.00  0.00    +0.000 A 
ATOM     25  S   UNL     1      51.150   7.791  18.480  0.00  0.00    +0.000 S 
ATOM     26  C   UNL     1      49.689   7.685  19.346  0.00  0.00    +0.000 A 
ATOM     27  N   UNL     1      49.433   8.518  20.389  0.00  0.00    +0.000 NA
ATOM     28  C   UNL     1      48.299   8.308  20.971  0.00  0.00    +0.000 A 
ATOM     29  N   UNL     1      47.394   7.349  20.596  0.00  0.00    +0.000 N 
ATOM     30  C   UNL     1      47.598   6.506  19.531  0.00  0.00    +0.000 A 
ATOM     31  O   UNL     1      46.751   5.688  19.189  0.00  0.00    +0.000 OA
ATOM     32  C   UNL     1      48.869   6.684  18.857  0.00  0.00    +0.000 A 
ATOM     33  H   UNL     1      46.513   7.249  21.080  0.00  0.00    +0.000 HD
ENDBRANCH  20  23
ENDBRANCH  18  19
ENDBRANCH   5  18
TORSDOF 7
ENDMDL
MODEL 4
REMARK VINA RESULT:    -7.944      4.119      7.331
REMARK INTER + INTRA:         -12.195
REMARK INTER:                 -10.315
REMARK INTRA:                  -1.880
REMARK UNBOUND:                -1.001
REMARK  Name = 
REMARK  8 active torsions:
REMARK  status: ('A' for Active; 'I' for Inactive)
REMARK    1  A    between atoms: C_1  and  C_2
REMARK    2  A    between atoms: C_2  and  N_3
REMARK    3  A    between atoms: C_2  and  C_25
REMARK    4  A    between atoms: N_3  and  C_4
REMARK    5  A    between atoms: C_4  and  C_5
REMARK    6  A    between atoms: C_9  and  C_10
REMARK    7  A    between atoms: C_10  and  N_11
REMARK    8  A    between atoms: C_12  and  C_14
REMARK                            x       y       z     vdW  Elec       q    Type
REMARK                         _______ _______ _______ _____ _____    ______ ____
ROOT
ATOM      1  C   UNL     1      46.868   4.845  14.100  0.00  0.00    +0.000 A 
ATOM      2  C   UNL     1      47.255   4.329  15.334  0.00  0.00    +0.000 A 
ATOM      3  C   UNL     1      48.113   5.078  16.134  0.00  0.00    +0.000 A 
ATOM      4  C   UNL     1      48.556   6.319  15.686  0.00  0.00    +0.000 A 
ATOM      5  C   UNL     1      48.112   6.788  14.456  0.00  0.00    +0.000 A 
ATOM      6  N   UNL     1      47.282   6.064  13.665  0.00  0.00    +0.000 NA
ENDROOT
BRANCH   1   7
ATOM      7  C   UNL     1      45.928   4.062  13.198  0.00  0.00    +0.000 C 
BRANCH   7   8
ATOM      8  N   UNL     1      45.009   4.934  12.465  0.00  0.00    +0.000 NA
ATOM      9  H   UNL     1      45.542   5.549  11.854  0.00  0.00    +0.000 HD
BRANCH   8  11
ATOM     10  C   UNL     1      42.728   5.071  11.450  0.00  0.00    +0.000 C 
ATOM     11  C   UNL     1      43.989   4.228  11.689  0.00  0.00    +0.000 C 
BRANCH  11  12
ATOM     12  C   UNL     1      44.577   3.806  10.348  0.00  0.00    +0.000 A 
ATOM     13  C   UNL     1      45.180   4.750   9.502  0.00  0.00    +0.000 A 
ATOM     14  C   UNL     1      45.759   4.352   8.294  0.00  0.00    +0.000 A 
ATOM     15  C   UNL     1      45.742   3.009   7.917  0.00  0.00    +0.000 A 
ATOM     16  C   UNL     1      45.133   2.063   8.739  0.00  0.00    +0.000 A 
ATOM     17  C   UNL     1      44.549   2.461   9.941  0.00  0.00    +0.000 A 
ENDBRANCH  11  12
ENDBRANCH   8  11
ENDBRANCH   7   8
ENDBRANCH   1   7
BRANCH   5  18
ATOM     18  C   UNL     1      48.576   8.126  13.931  0.00  0.00    +0.000 C 
BRANCH  18  19
ATOM     19  N   UNL     1      47.473   8.908  13.415  0.00  0.00    +0.000 N 
ATOM     20  C   UNL     1      47.597   9.663  12.279  0.00  0.00    +0.000 C 
ATOM     21  O   UNL     1      48.619   9.651  11.597  0.00  0.00    +0.000 OA
ATOM     22  H   UNL     1      46.735   9.117  14.083  0.00  0.00    +0.000 HD
BRANCH  20  23
ATOM     23  C   UNL     1      46.421  10.438  11.864  0.00  0.00    +0.000 A 
ATOM     24  C   UNL     1      46.482  11.824  11.862  0.00  0.00    +0.000 A 
ATOM     25  S   UNL     1      45.042  12.572  11.335  0.00  0.00    +0.000 S 
ATOM     26  C   UNL     1      44.271  11.069  11.135  0.00  0.00    +0.000 A 
ATOM     27  N   UNL     1      42.975  10.998  10.732  0.00  0.00    +0.000 NA
ATOM     28  C   UNL     1      42.509   9.796  10.648  0.00  0.00    +0.000 A 
ATOM     29  N   UNL     1      43.226   8.659  10.920  0.00  0.00    +0.000 N 
ATOM     30  C   UNL     1      44.546   8.683  11.302  0.00  0.00    +0.000 A 
ATOM     31  O   UNL     1      45.177   7.650  11.494  0.00  0.00    +0.000 OA
ATOM     32  C   UNL     1      45.110  10.012  11.435  0.00  0.00    +0.000 A 
ATOM     33  H   UNL     1      42.811   7.745  10.816  0.00  0.00    +0.000 HD
ENDBRANCH  20  23
ENDBRANCH  18  19
ENDBRANCH   5  18
TORSDOF 7
ENDMDL
MODEL 5
REMARK VINA RESULT:    -7.933      2.034      2.564
REMARK INTER + INTRA:         -12.180
REMARK INTER:                 -11.276
REMARK INTRA:                  -0.904
REMARK UNBOUND:                -1.001
REMARK  Name = 
REMARK  8 active torsions:
REMARK  status: ('A' for Active; 'I' for Inactive)
REMARK    1  A    between atoms: C_1  and  C_2
REMARK    2  A    between atoms: C_2  and  N_3
REMARK    3  A    between atoms: C_2  and  C_25
REMARK    4  A    between atoms: N_3  and  C_4
REMARK    5  A    between atoms: C_4  and  C_5
REMARK    6  A    between atoms: C_9  and  C_10
REMARK    7  A    between atoms: C_10  and  N_11
REMARK    8  A    between atoms: C_12  and  C_14
REMARK                            x       y       z     vdW  Elec       q    Type
REMARK                         _______ _______ _______ _____ _____    ______ ____
ROOT
ATOM      1  C   UNL     1      45.495   4.384  12.466  0.00  0.00    +0.000 A 
ATOM      2  C   UNL     1      45.964   5.598  11.972  0.00  0.00    +0.000 A 
ATOM      3  C   UNL     1      46.912   6.301  12.709  0.00  0.00    +0.000 A 
ATOM      4  C   UNL     1      47.369   5.774  13.914  0.00  0.00    +0.000 A 
ATOM      5  C   UNL     1      46.879   4.546  14.340  0.00  0.00    +0.000 A 
ATOM      6  N   UNL     1      45.950   3.855  13.633  0.00  0.00    +0.000 NA
ENDROOT
BRANCH   1   7
ATOM      7  C   UNL     1      44.463   3.582  11.690  0.00  0.00    +0.000 C 
BRANCH   7   8
ATOM      8  N   UNL     1      45.077   2.735  10.666  0.00  0.00    +0.000 NA
ATOM      9  H   UNL     1      44.969   1.757  10.927  0.00  0.00    +0.000 HD
BRANCH   8  11
ATOM     10  C   UNL     1      44.092   4.388   9.068  0.00  0.00    +0.000 C 
ATOM     11  C   UNL     1      44.561   2.946   9.313  0.00  0.00    +0.000 C 
BRANCH  11  12
ATOM     12  C   UNL     1      45.641   2.587   8.299  0.00  0.00    +0.000 A 
ATOM     13  C   UNL     1      46.145   1.280   8.223  0.00  0.00    +0.000 A 
ATOM     14  C   UNL     1      47.103   0.944   7.261  0.00  0.00    +0.000 A 
ATOM     15  C   UNL     1      47.566   1.908   6.367  0.00  0.00    +0.000 A 
ATOM     16  C   UNL     1      47.086   3.214   6.440  0.00  0.00    +0.000 A 
ATOM     17  C   UNL     1      46.137   3.552   7.404  0.00  0.00    +0.000 A 
ENDBRANCH  11  12
ENDBRANCH   8  11
ENDBRANCH   7   8
ENDBRANCH   1   7
BRANCH   5  18
ATOM     18  C   UNL     1      47.343   3.944  15.645  0.00  0.00    +0.000 C 
BRANCH  18  19
ATOM     19  N   UNL     1      47.733   4.965  16.594  0.00  0.00    +0.000 N 
ATOM     20  C   UNL     1      48.025   4.660  17.897  0.00  0.00    +0.000 C 
ATOM     21  O   UNL     1      48.052   3.502  18.305  0.00  0.00    +0.000 OA
ATOM     22  H   UNL     1      47.477   5.916  16.342  0.00  0.00    +0.000 HD
BRANCH  20  23
ATOM     23  C   UNL     1      48.381   5.780  18.778  0.00  0.00    +0.000 A 
ATOM     24  C   UNL     1      47.388   6.638  19.228  0.00  0.00    +0.000 A 
ATOM     25  S   UNL     1      47.963   7.871  20.257  0.00  0.00    +0.000 S 
ATOM     26  C   UNL     1      49.567   7.328  20.100  0.00  0.00    +0.000 A 
ATOM     27  N   UNL     1      50.589   7.981  20.714  0.00  0.00    +0.000 NA
ATOM     28  C   UNL     1      51.756   7.476  20.488  0.00  0.00    +0.000 A 
ATOM     29  N   UNL     1      51.992   6.370  19.713  0.00  0.00    +0.000 N 
ATOM     30  C   UNL     1      50.988   5.662  19.098  0.00  0.00    +0.000 A 
ATOM     31  O   UNL     1      51.222   4.649  18.449  0.00  0.00    +0.000 OA
ATOM     32  C   UNL     1      49.658   6.203  19.301  0.00  0.00    +0.000 A 
ATOM     33  H   UNL     1      52.927   6.011  19.591  0.00  0.00    +0.000 HD
ENDBRANCH  20  23
ENDBRANCH  18  19
ENDBRANCH   5  18
TORSDOF 7
ENDMDL
MODEL 6
REMARK VINA RESULT:    -7.931      1.904      2.444
REMARK INTER + INTRA:         -12.178
REMARK INTER:                 -11.254
REMARK INTRA:                  -0.924
REMARK UNBOUND:                -1.001
REMARK  Name = 
REMARK  8 active torsions:
REMARK  status: ('A' for Active; 'I' for Inactive)
REMARK    1  A    between atoms: C_1  and  C_2
REMARK    2  A    between atoms: C_2  and  N_3
REMARK    3  A    between atoms: C_2  and  C_25
REMARK    4  A    between atoms: N_3  and  C_4
REMARK    5  A    between atoms: C_4  and  C_5
REMARK    6  A    between atoms: C_9  and  C_10
REMARK    7  A    between atoms: C_10  and  N_11
REMARK    8  A    between atoms: C_12  and  C_14
REMARK                            x       y       z     vdW  Elec       q    Type
REMARK                         _______ _______ _______ _____ _____    ______ ____
ROOT
ATOM      1  C   UNL     1      44.706   5.366  11.651  0.00  0.00    +0.000 A 
ATOM      2  C   UNL     1      44.699   6.757  11.642  0.00  0.00    +0.000 A 
ATOM      3  C   UNL     1      45.572   7.438  12.485  0.00  0.00    +0.000 A 
ATOM      4  C   UNL     1      46.430   6.714  13.309  0.00  0.00    +0.000 A 
ATOM      5  C   UNL     1      46.405   5.326  13.252  0.00  0.00    +0.000 A 
ATOM      6  N   UNL     1      45.553   4.653  12.439  0.00  0.00    +0.000 NA
ENDROOT
BRANCH   1   7
ATOM      7  C   UNL     1      43.771   4.584  10.743  0.00  0.00    +0.000 C 
BRANCH   7   8
ATOM      8  N   UNL     1      44.424   4.174   9.498  0.00  0.00    +0.000 NA
ATOM      9  H   UNL     1      45.113   4.874   9.231  0.00  0.00    +0.000 HD
BRANCH   8  11
ATOM     10  C   UNL     1      44.041   1.712   9.716  0.00  0.00    +0.000 C 
ATOM     11  C   UNL     1      45.054   2.854   9.549  0.00  0.00    +0.000 C 
BRANCH  11  12
ATOM     12  C   UNL     1      45.861   2.631   8.275  0.00  0.00    +0.000 A 
ATOM     13  C   UNL     1      46.022   3.665   7.340  0.00  0.00    +0.000 A 
ATOM     14  C   UNL     1      46.801   3.470   6.195  0.00  0.00    +0.000 A 
ATOM     15  C   UNL     1      47.425   2.244   5.972  0.00  0.00    +0.000 A 
ATOM     16  C   UNL     1      47.262   1.203   6.884  0.00  0.00    +0.000 A 
ATOM     17  C   UNL     1      46.479   1.394   8.022  0.00  0.00    +0.000 A 
ENDBRANCH  11  12
ENDBRANCH   8  11
ENDBRANCH   7   8
ENDBRANCH   1   7
BRANCH   5  18
ATOM     18  C   UNL     1      47.314   4.504  14.135  0.00  0.00    +0.000 C 
BRANCH  18  19
ATOM     19  N   UNL     1      47.385   5.045  15.476  0.00  0.00    +0.000 N 
ATOM     20  C   UNL     1      48.454   5.792  15.893  0.00  0.00    +0.000 C 
ATOM     21  O   UNL     1      49.363   6.111  15.130  0.00  0.00    +0.000 OA
ATOM     22  H   UNL     1      46.786   4.593  16.162  0.00  0.00    +0.000 HD
BRANCH  20  23
ATOM     23  C   UNL     1      48.434   6.265  17.283  0.00  0.00    +0.000 A 
ATOM     24  C   UNL     1      48.413   7.628  17.542  0.00  0.00    +0.000 A 
ATOM     25  S   UNL     1      48.371   8.009  19.203  0.00  0.00    +0.000 S 
ATOM     26  C   UNL     1      48.427   6.365  19.637  0.00  0.00    +0.000 A 
ATOM     27  N   UNL     1      48.456   5.987  20.942  0.00  0.00    +0.000 NA
ATOM     28  C   UNL     1      48.525   4.710  21.126  0.00  0.00    +0.000 A 
ATOM     29  N   UNL     1      48.554   3.777  20.121  0.00  0.00    +0.000 N 
ATOM     30  C   UNL     1      48.498   4.111  18.790  0.00  0.00    +0.000 A 
ATOM     31  O   UNL     1      48.478   3.255  17.914  0.00  0.00    +0.000 OA
ATOM     32  C   UNL     1      48.444   5.537  18.529  0.00  0.00    +0.000 A 
ATOM     33  H   UNL     1      48.587   2.790  20.330  0.00  0.00    +0.000 HD
ENDBRANCH  20  23
ENDBRANCH  18  19
ENDBRANCH   5  18
TORSDOF 7
ENDMDL
MODEL 7
REMARK VINA RESULT:    -7.720      3.443      8.841
REMARK INTER + INTRA:         -11.880
REMARK INTER:                 -10.773
REMARK INTRA:                  -1.107
REMARK UNBOUND:                -1.001
REMARK  Name = 
REMARK  8 active torsions:
REMARK  status: ('A' for Active; 'I' for Inactive)
REMARK    1  A    between atoms: C_1  and  C_2
REMARK    2  A    between atoms: C_2  and  N_3
REMARK    3  A    between atoms: C_2  and  C_25
REMARK    4  A    between atoms: N_3  and  C_4
REMARK    5  A    between atoms: C_4  and  C_5
REMARK    6  A    between atoms: C_9  and  C_10
REMARK    7  A    between atoms: C_10  and  N_11
REMARK    8  A    between atoms: C_12  and  C_14
REMARK                            x       y       z     vdW  Elec       q    Type
REMARK                         _______ _______ _______ _____ _____    ______ ____
ROOT
ATOM      1  C   UNL     1      49.340   7.109  15.196  0.00  0.00    +0.000 A 
ATOM      2  C   UNL     1      50.610   7.679  15.180  0.00  0.00    +0.000 A 
ATOM      3  C   UNL     1      51.020   8.371  14.044  0.00  0.00    +0.000 A 
ATOM      4  C   UNL     1      50.154   8.478  12.960  0.00  0.00    +0.000 A 
ATOM      5  C   UNL     1      48.891   7.908  13.049  0.00  0.00    +0.000 A 
ATOM      6  N   UNL     1      48.483   7.226  14.148  0.00  0.00    +0.000 NA
ENDROOT
BRANCH   1   7
ATOM      7  C   UNL     1      48.851   6.350  16.419  0.00  0.00    +0.000 C 
BRANCH   7   8
ATOM      8  N   UNL     1      48.770   4.908  16.179  0.00  0.00    +0.000 NA
ATOM      9  H   UNL     1      49.536   4.623  15.572  0.00  0.00    +0.000 HD
BRANCH   8  11
ATOM     10  C   UNL     1      47.631   3.057  17.415  0.00  0.00    +0.000 C 
ATOM     11  C   UNL     1      48.768   4.089  17.391  0.00  0.00    +0.000 C 
BRANCH  11  12
ATOM     12  C   UNL     1      50.106   3.370  17.516  0.00  0.00    +0.000 A 
ATOM     13  C   UNL     1      51.240   4.046  17.991  0.00  0.00    +0.000 A 
ATOM     14  C   UNL     1      52.454   3.371  18.148  0.00  0.00    +0.000 A 
ATOM     15  C   UNL     1      52.549   2.016  17.833  0.00  0.00    +0.000 A 
ATOM     16  C   UNL     1      51.436   1.335  17.345  0.00  0.00    +0.000 A 
ATOM     17  C   UNL     1      50.226   2.009  17.181  0.00  0.00    +0.000 A 
ENDBRANCH  11  12
ENDBRANCH   8  11
ENDBRANCH   7   8
ENDBRANCH   1   7
BRANCH   5  18
ATOM     18  C   UNL     1      47.924   7.996  11.891  0.00  0.00    +0.000 C 
BRANCH  18  19
ATOM     19  N   UNL     1      47.124   6.796  11.774  0.00  0.00    +0.000 N 
ATOM     20  C   UNL     1      45.756   6.847  11.721  0.00  0.00    +0.000 C 
ATOM     21  O   UNL     1      45.145   7.913  11.687  0.00  0.00    +0.000 OA
ATOM     22  H   UNL     1      47.587   5.932  12.047  0.00  0.00    +0.000 HD
BRANCH  20  23
ATOM     23  C   UNL     1      45.045   5.566  11.631  0.00  0.00    +0.000 A 
ATOM     24  C   UNL     1      44.330   5.103  12.726  0.00  0.00    +0.000 A 
ATOM     25  S   UNL     1      43.546   3.613  12.452  0.00  0.00    +0.000 S 
ATOM     26  C   UNL     1      44.174   3.512  10.874  0.00  0.00    +0.000 A 
ATOM     27  N   UNL     1      43.911   2.436  10.086  0.00  0.00    +0.000 NA
ATOM     28  C   UNL     1      44.473   2.479   8.923  0.00  0.00    +0.000 A 
ATOM     29  N   UNL     1      45.262   3.505   8.474  0.00  0.00    +0.000 N 
ATOM     30  C   UNL     1      45.531   4.624   9.225  0.00  0.00    +0.000 A 
ATOM     31  O   UNL     1      46.202   5.549   8.782  0.00  0.00    +0.000 OA
ATOM     32  C   UNL     1      44.943   4.615  10.551  0.00  0.00    +0.000 A 
ATOM     33  H   UNL     1      45.657   3.489   7.545  0.00  0.00    +0.000 HD
ENDBRANCH  20  23
ENDBRANCH  18  19
ENDBRANCH   5  18
TORSDOF 7
ENDMDL
MODEL 8
REMARK VINA RESULT:    -7.644      4.304      5.708
REMARK INTER + INTRA:         -11.773
REMARK INTER:                 -10.740
REMARK INTRA:                  -1.033
REMARK UNBOUND:                -1.001
REMARK  Name = 
REMARK  8 active torsions:
REMARK  status: ('A' for Active; 'I' for Inactive)
REMARK    1  A    between atoms: C_1  and  C_2
REMARK    2  A    between atoms: C_2  and  N_3
REMARK    3  A    between atoms: C_2  and  C_25
REMARK    4  A    between atoms: N_3  and  C_4
REMARK    5  A    between atoms: C_4  and  C_5
REMARK    6  A    between atoms: C_9  and  C_10
REMARK    7  A    between atoms: C_10  and  N_11
REMARK    8  A    between atoms: C_12  and  C_14
REMARK                            x       y       z     vdW  Elec       q    Type
REMARK                         _______ _______ _______ _____ _____    ______ ____
ROOT
ATOM      1  C   UNL     1      45.106   4.048  12.304  0.00  0.00    +0.000 A 
ATOM      2  C   UNL     1      46.146   3.498  13.047  0.00  0.00    +0.000 A 
ATOM      3  C   UNL     1      46.994   4.351  13.749  0.00  0.00    +0.000 A 
ATOM      4  C   UNL     1      46.778   5.725  13.693  0.00  0.00    +0.000 A 
ATOM      5  C   UNL     1      45.707   6.209  12.953  0.00  0.00    +0.000 A 
ATOM      6  N   UNL     1      44.879   5.388  12.260  0.00  0.00    +0.000 NA
ENDROOT
BRANCH   1   7
ATOM      7  C   UNL     1      44.156   3.152  11.527  0.00  0.00    +0.000 C 
BRANCH   7   8
ATOM      8  N   UNL     1      44.833   2.429  10.449  0.00  0.00    +0.000 NA
ATOM      9  H   UNL     1      44.669   1.430  10.557  0.00  0.00    +0.000 HD
BRANCH   8  11
ATOM     10  C   UNL     1      44.079   4.338   9.021  0.00  0.00    +0.000 C 
ATOM     11  C   UNL     1      44.453   2.851   9.101  0.00  0.00    +0.000 C 
BRANCH  11  12
ATOM     12  C   UNL     1      45.601   2.566   8.140  0.00  0.00    +0.000 A 
ATOM     13  C   UNL     1      46.066   3.560   7.266  0.00  0.00    +0.000 A 
ATOM     14  C   UNL     1      47.149   3.309   6.418  0.00  0.00    +0.000 A 
ATOM     15  C   UNL     1      47.778   2.065   6.434  0.00  0.00    +0.000 A 
ATOM     16  C   UNL     1      47.318   1.063   7.285  0.00  0.00    +0.000 A 
ATOM     17  C   UNL     1      46.233   1.310   8.126  0.00  0.00    +0.000 A 
ENDBRANCH  11  12
ENDBRANCH   8  11
ENDBRANCH   7   8
ENDBRANCH   1   7
BRANCH   5  18
ATOM     18  C   UNL     1      45.445   7.694  12.861  0.00  0.00    +0.000 C 
BRANCH  18  19
ATOM     19  N   UNL     1      46.676   8.446  12.747  0.00  0.00    +0.000 N 
ATOM     20  C   UNL     1      46.712   9.677  12.149  0.00  0.00    +0.000 C 
ATOM     21  O   UNL     1      45.693  10.240  11.754  0.00  0.00    +0.000 OA
ATOM     22  H   UNL     1      47.531   7.903  12.837  0.00  0.00    +0.000 HD
BRANCH  20  23
ATOM     23  C   UNL     1      48.020  10.337  12.063  0.00  0.00    +0.000 A 
ATOM     24  C   UNL     1      48.108  11.709  12.250  0.00  0.00    +0.000 A 
ATOM     25  S   UNL     1      49.699  12.316  12.139  0.00  0.00    +0.000 S 
ATOM     26  C   UNL     1      50.320  10.771  11.788  0.00  0.00    +0.000 A 
ATOM     27  N   UNL     1      51.644  10.591  11.540  0.00  0.00    +0.000 NA
ATOM     28  C   UNL     1      51.973   9.373  11.262  0.00  0.00    +0.000 A 
ATOM     29  N   UNL     1      51.099   8.318  11.223  0.00  0.00    +0.000 N 
ATOM     30  C   UNL     1      49.759   8.448  11.495  0.00  0.00    +0.000 A 
ATOM     31  O   UNL     1      49.008   7.479  11.499  0.00  0.00    +0.000 OA
ATOM     32  C   UNL     1      49.333   9.802  11.789  0.00  0.00    +0.000 A 
ATOM     33  H   UNL     1      51.422   7.383  11.020  0.00  0.00    +0.000 HD
ENDBRANCH  20  23
ENDBRANCH  18  19
ENDBRANCH   5  18
TORSDOF 7
ENDMDL
MODEL 9
REMARK VINA RESULT:    -7.443      2.108      3.433
REMARK INTER + INTRA:         -11.491
REMARK INTER:                 -10.355
REMARK INTRA:                  -1.135
REMARK UNBOUND:                -1.001
REMARK  Name = 
REMARK  8 active torsions:
REMARK  status: ('A' for Active; 'I' for Inactive)
REMARK    1  A    between atoms: C_1  and  C_2
REMARK    2  A    between atoms: C_2  and  N_3
REMARK    3  A    between atoms: C_2  and  C_25
REMARK    4  A    between atoms: N_3  and  C_4
REMARK    5  A    between atoms: C_4  and  C_5
REMARK    6  A    between atoms: C_9  and  C_10
REMARK    7  A    between atoms: C_10  and  N_11
REMARK    8  A    between atoms: C_12  and  C_14
REMARK                            x       y       z     vdW  Elec       q    Type
REMARK                         _______ _______ _______ _____ _____    ______ ____
ROOT
ATOM      1  C   UNL     1      47.463   5.909  13.391  0.00  0.00    +0.000 A 
ATOM      2  C   UNL     1      48.048   6.490  12.269  0.00  0.00    +0.000 A 
ATOM      3  C   UNL     1      49.149   7.323  12.443  0.00  0.00    +0.000 A 
ATOM      4  C   UNL     1      49.638   7.550  13.727  0.00  0.00    +0.000 A 
ATOM      5  C   UNL     1      49.024   6.920  14.802  0.00  0.00    +0.000 A 
ATOM      6  N   UNL     1      47.946   6.112  14.644  0.00  0.00    +0.000 NA
ENDROOT
BRANCH   1   7
ATOM      7  C   UNL     1      46.262   4.988  13.244  0.00  0.00    +0.000 C 
BRANCH   7   8
ATOM      8  N   UNL     1      45.162   5.627  12.519  0.00  0.00    +0.000 NA
ATOM      9  H   UNL     1      45.539   6.190  11.760  0.00  0.00    +0.000 HD
BRANCH   8  11
ATOM     10  C   UNL     1      42.770   5.338  11.850  0.00  0.00    +0.000 C 
ATOM     11  C   UNL     1      44.158   4.699  11.997  0.00  0.00    +0.000 C 
BRANCH  11  12
ATOM     12  C   UNL     1      44.617   4.169  10.643  0.00  0.00    +0.000 A 
ATOM     13  C   UNL     1      44.304   2.862  10.243  0.00  0.00    +0.000 A 
ATOM     14  C   UNL     1      44.687   2.395   8.982  0.00  0.00    +0.000 A 
ATOM     15  C   UNL     1      45.387   3.227   8.109  0.00  0.00    +0.000 A 
ATOM     16  C   UNL     1      45.719   4.523   8.499  0.00  0.00    +0.000 A 
ATOM     17  C   UNL     1      45.344   4.987   9.759  0.00  0.00    +0.000 A 
ENDBRANCH  11  12
ENDBRANCH   8  11
ENDBRANCH   7   8
ENDBRANCH   1   7
BRANCH   5  18
ATOM     18  C   UNL     1      49.518   7.147  16.211  0.00  0.00    +0.000 C 
BRANCH  18  19
ATOM     19  N   UNL     1      50.416   6.095  16.636  0.00  0.00    +0.000 N 
ATOM     20  C   UNL     1      50.760   5.933  17.952  0.00  0.00    +0.000 C 
ATOM     21  O   UNL     1      50.262   6.615  18.844  0.00  0.00    +0.000 OA
ATOM     22  H   UNL     1      51.008   5.704  15.907  0.00  0.00    +0.000 HD
BRANCH  20  23
ATOM     23  C   UNL     1      51.702   4.851  18.265  0.00  0.00    +0.000 A 
ATOM     24  C   UNL     1      52.885   5.144  18.927  0.00  0.00    +0.000 A 
ATOM     25  S   UNL     1      53.857   3.776  19.233  0.00  0.00    +0.000 S 
ATOM     26  C   UNL     1      52.750   2.749  18.448  0.00  0.00    +0.000 A 
ATOM     27  N   UNL     1      53.001   1.419  18.321  0.00  0.00    +0.000 NA
ATOM     28  C   UNL     1      52.090   0.764  17.681  0.00  0.00    +0.000 A 
ATOM     29  N   UNL     1      50.945   1.317  17.168  0.00  0.00    +0.000 N 
ATOM     30  C   UNL     1      50.637   2.650  17.299  0.00  0.00    +0.000 A 
ATOM     31  O   UNL     1      49.584   3.109  16.872  0.00  0.00    +0.000 OA
ATOM     32  C   UNL     1      51.641   3.435  17.990  0.00  0.00    +0.000 A 
ATOM     33  H   UNL     1      50.260   0.747  16.695  0.00  0.00    +0.000 HD
ENDBRANCH  20  23
ENDBRANCH  18  19
ENDBRANCH   5  18
TORSDOF 7
ENDMDL
