MODEL 1
REMARK VINA RESULT:    -7.378      0.000      0.000
REMARK INTER + INTRA:         -10.378
REMARK INTER:                  -9.534
REMARK INTRA:                  -0.844
REMARK UNBOUND:                -0.844
REMARK  Name = 
REMARK  7 active torsions:
REMARK  status: ('A' for Active; 'I' for Inactive)
REMARK    1  A    between atoms: C_1  and  C_2
REMARK    2  A    between atoms: C_6  and  C_7
REMARK    3  A    between atoms: C_7  and  C_8
REMARK    4  A    between atoms: C_11  and  C_12
REMARK    5  A    between atoms: C_12  and  N_13
REMARK    6  A    between atoms: N_13  and  C_14
REMARK    7  A    between atoms: C_15  and  C_17
REMARK                            x       y       z     vdW  Elec       q    Type
REMARK                         _______ _______ _______ _____ _____    ______ ____
ROOT
ATOM      1  C   UNL     1      47.499   6.268  13.997  0.00  0.00    +0.000 C 
ENDROOT
BRANCH   1   5
ATOM      2  C   UNL     1      44.949   4.315  11.139  0.00  0.00    +0.000 A 
ATOM      3  C   UNL     1      45.170   5.679  10.996  0.00  0.00    +0.000 A 
ATOM      4  C   UNL     1      45.927   6.353  11.955  0.00  0.00    +0.000 A 
ATOM      5  C   UNL     1      46.516   5.655  13.015  0.00  0.00    +0.000 A 
ATOM      6  C   UNL     1      46.139   4.319  13.136  0.00  0.00    +0.000 A 
ATOM      7  N   UNL     1      45.373   3.641  12.237  0.00  0.00    +0.000 NA
BRANCH   2   8
ATOM      8  C   UNL     1      44.293   3.557   9.998  0.00  0.00    +0.000 C 
BRANCH   8  14
ATOM      9  C   UNL     1      46.805  -0.123   7.654  0.00  0.00    +0.000 C 
ATOM     10  C   UNL     1      46.438   1.326   7.741  0.00  0.00    +0.000 A 
ATOM     11  C   UNL     1      46.935   2.249   6.814  0.00  0.00    +0.000 A 
ATOM     12  C   UNL     1      46.609   3.598   6.928  0.00  0.00    +0.000 A 
ATOM     13  C   UNL     1      45.779   4.036   7.965  0.00  0.00    +0.000 A 
ATOM     14  C   UNL     1      45.244   3.125   8.893  0.00  0.00    +0.000 A 
ATOM     15  C   UNL     1      45.585   1.770   8.763  0.00  0.00    +0.000 A 
ENDBRANCH   8  14
ENDBRANCH   2   8
ENDBRANCH   1   5
BRANCH   1  16
ATOM     16  N   UNL     1      48.377   7.328  13.471  0.00  0.00    +0.000 N 
ATOM     17  C   UNL     1      49.337   7.038  12.423  0.00  0.00    +0.000 C 
ATOM     18  C   UNL     1      48.389   8.573  14.152  0.00  0.00    +0.000 C 
ATOM     19  O   UNL     1      47.727   8.774  15.143  0.00  0.00    +0.000 OA
BRANCH  18  20
ATOM     20  C   UNL     1      49.255   9.626  13.569  0.00  0.00    +0.000 A 
ATOM     21  C   UNL     1      50.556   9.867  13.943  0.00  0.00    +0.000 A 
ATOM     22  S   UNL     1      51.347  11.040  13.002  0.00  0.00    +0.000 S 
ATOM     23  C   UNL     1      49.964  11.245  12.034  0.00  0.00    +0.000 A 
ATOM     24  N   UNL     1      49.995  12.038  10.939  0.00  0.00    +0.000 NA
ATOM     25  C   UNL     1      48.881  12.052  10.262  0.00  0.00    +0.000 A 
ATOM     26  N   UNL     1      47.744  11.378  10.615  0.00  0.00    +0.000 N 
ATOM     27  C   UNL     1      47.655  10.604  11.748  0.00  0.00    +0.000 A 
ATOM     28  O   UNL     1      46.584  10.076  12.077  0.00  0.00    +0.000 OA
ATOM     29  C   UNL     1      48.894  10.487  12.483  0.00  0.00    +0.000 A 
ATOM     30  H   UNL     1      46.905  11.444  10.060  0.00  0.00    +0.000 HD
ENDBRANCH  18  20
ENDBRANCH   1  16
TORSDOF 5
ENDMDL
MODEL 2
REMARK VINA RESULT:    -7.318      1.668      2.171
REMARK INTER + INTRA:         -10.301
REMARK INTER:                  -9.734
REMARK INTRA:                  -0.566
REMARK UNBOUND:                -0.844
REMARK  Name = 
REMARK  7 active torsions:
REMARK  status: ('A' for Active; 'I' for Inactive)
REMARK    1  A    between atoms: C_1  and  C_2
REMARK    2  A    between atoms: C_6  and  C_7
REMARK    3  A    between atoms: C_7  and  C_8
REMARK    4  A    between atoms: C_11  and  C_12
REMARK    5  A    between atoms: C_12  and  N_13
REMARK    6  A    between atoms: N_13  and  C_14
REMARK    7  A    between atoms: C_15  and  C_17
REMARK                            x       y       z     vdW  Elec       q    Type
REMARK                         _______ _______ _______ _____ _____    ______ ____
ROOT
ATOM      1  C   UNL     1      46.985   5.862  13.632  0.00  0.00    +0.000 C 
ENDROOT
BRANCH   1   5
ATOM      2  C   UNL     1      44.889   4.615  10.091  0.00  0.00    +0.000 A 
ATOM      3  C   UNL     1      45.755   5.695   9.994  0.00  0.00    +0.000 A 
ATOM      4  C   UNL     1      46.387   6.172  11.144  0.00  0.00    +0.000 A 
ATOM      5  C   UNL     1      46.204   5.529  12.373  0.00  0.00    +0.000 A 
ATOM      6  C   UNL     1      45.229   4.535  12.390  0.00  0.00    +0.000 A 
ATOM      7  N   UNL     1      44.569   4.071  11.292  0.00  0.00    +0.000 NA
BRANCH   2   8
ATOM      8  C   UNL     1      44.359   3.983   8.816  0.00  0.00    +0.000 C 
BRANCH   8  14
ATOM      9  C   UNL     1      47.622   2.878   5.143  0.00  0.00    +0.000 C 
ATOM     10  C   UNL     1      46.907   2.464   6.394  0.00  0.00    +0.000 A 
ATOM     11  C   UNL     1      47.123   1.202   6.958  0.00  0.00    +0.000 A 
ATOM     12  C   UNL     1      46.427   0.821   8.102  0.00  0.00    +0.000 A 
ATOM     13  C   UNL     1      45.514   1.698   8.696  0.00  0.00    +0.000 A 
ATOM     14  C   UNL     1      45.301   2.983   8.164  0.00  0.00    +0.000 A 
ATOM     15  C   UNL     1      46.009   3.348   7.010  0.00  0.00    +0.000 A 
ENDBRANCH   8  14
ENDBRANCH   2   8
ENDBRANCH   1   5
BRANCH   1  16
ATOM     16  N   UNL     1      47.385   7.269  13.804  0.00  0.00    +0.000 N 
ATOM     17  C   UNL     1      46.519   8.343  13.358  0.00  0.00    +0.000 C 
ATOM     18  C   UNL     1      48.713   7.530  14.234  0.00  0.00    +0.000 C 
ATOM     19  O   UNL     1      49.511   6.646  14.438  0.00  0.00    +0.000 OA
BRANCH  18  20
ATOM     20  C   UNL     1      49.065   8.956  14.434  0.00  0.00    +0.000 A 
ATOM     21  C   UNL     1      48.969   9.626  15.632  0.00  0.00    +0.000 A 
ATOM     22  S   UNL     1      49.579  11.211  15.594  0.00  0.00    +0.000 S 
ATOM     23  C   UNL     1      50.020  11.040  13.962  0.00  0.00    +0.000 A 
ATOM     24  N   UNL     1      50.715  12.010  13.325  0.00  0.00    +0.000 NA
ATOM     25  C   UNL     1      51.035  11.716  12.097  0.00  0.00    +0.000 A 
ATOM     26  N   UNL     1      50.681  10.561  11.453  0.00  0.00    +0.000 N 
ATOM     27  C   UNL     1      49.931   9.574  12.047  0.00  0.00    +0.000 A 
ATOM     28  O   UNL     1      49.561   8.581  11.405  0.00  0.00    +0.000 OA
ATOM     29  C   UNL     1      49.628   9.818  13.439  0.00  0.00    +0.000 A 
ATOM     30  H   UNL     1      50.942  10.398  10.493  0.00  0.00    +0.000 HD
ENDBRANCH  18  20
ENDBRANCH   1  16
TORSDOF 5
ENDMDL
MODEL 3
REMARK VINA RESULT:    -7.259      1.933      2.512
REMARK INTER + INTRA:         -10.224
REMARK INTER:                  -9.354
REMARK INTRA:                  -0.870
REMARK UNBOUND:                -0.844
REMARK  Name = 
REMARK  7 active torsions:
REMARK  status: ('A' for Active; 'I' for Inactive)
REMARK    1  A    between atoms: C_1  and  C_2
REMARK    2  A    between atoms: C_6  and  C_7
REMARK    3  A    between atoms: C_7  and  C_8
REMARK    4  A    between atoms: C_11  and  C_12
REMARK    5  A    between atoms: C_12  and  N_13
REMARK    6  A    between atoms: N_13  and  C_14
REMARK    7  A    between atoms: C_15  and  C_17
REMARK                            x       y       z     vdW  Elec       q    Type
REMARK                         _______ _______ _______ _____ _____    ______ ____
ROOT
ATOM      1  C   UNL     1      46.742   7.735  13.484  0.00  0.00    +0.000 C 
ENDROOT
BRANCH   1   5
ATOM      2  C   UNL     1      44.692   4.697  11.236  0.00  0.00    +0.000 A 
ATOM      3  C   UNL     1      44.329   6.021  11.032  0.00  0.00    +0.000 A 
ATOM      4  C   UNL     1      44.920   7.020  11.806  0.00  0.00    +0.000 A 
ATOM      5  C   UNL     1      45.919   6.703  12.733  0.00  0.00    +0.000 A 
ATOM      6  C   UNL     1      46.127   5.343  12.948  0.00  0.00    +0.000 A 
ATOM      7  N   UNL     1      45.539   4.342  12.234  0.00  0.00    +0.000 NA
BRANCH   2   8
ATOM      8  C   UNL     1      44.192   3.642  10.265  0.00  0.00    +0.000 C 
BRANCH   8  14
ATOM      9  C   UNL     1      46.702   0.111   7.700  0.00  0.00    +0.000 C 
ATOM     10  C   UNL     1      46.364   1.557   7.898  0.00  0.00    +0.000 A 
ATOM     11  C   UNL     1      46.914   2.542   7.071  0.00  0.00    +0.000 A 
ATOM     12  C   UNL     1      46.615   3.884   7.289  0.00  0.00    +0.000 A 
ATOM     13  C   UNL     1      45.759   4.253   8.332  0.00  0.00    +0.000 A 
ATOM     14  C   UNL     1      45.171   3.281   9.160  0.00  0.00    +0.000 A 
ATOM     15  C   UNL     1      45.486   1.934   8.926  0.00  0.00    +0.000 A 
ENDBRANCH   8  14
ENDBRANCH   2   8
ENDBRANCH   1   5
BRANCH   1  16
ATOM     16  N   UNL     1      47.954   8.228  12.806  0.00  0.00    +0.000 N 
ATOM     17  C   UNL     1      47.865   9.265  11.797  0.00  0.00    +0.000 C 
ATOM     18  C   UNL     1      49.167   7.525  13.030  0.00  0.00    +0.000 C 
ATOM     19  O   UNL     1      49.224   6.542  13.731  0.00  0.00    +0.000 OA
BRANCH  18  20
ATOM     20  C   UNL     1      50.371   8.075  12.363  0.00  0.00    +0.000 A 
ATOM     21  C   UNL     1      50.830   7.683  11.127  0.00  0.00    +0.000 A 
ATOM     22  S   UNL     1      52.148   8.590  10.553  0.00  0.00    +0.000 S 
ATOM     23  C   UNL     1      52.127   9.565  11.946  0.00  0.00    +0.000 A 
ATOM     24  N   UNL     1      52.940  10.641  12.051  0.00  0.00    +0.000 NA
ATOM     25  C   UNL     1      52.772  11.328  13.146  0.00  0.00    +0.000 A 
ATOM     26  N   UNL     1      51.898  11.001  14.147  0.00  0.00    +0.000 N 
ATOM     27  C   UNL     1      51.093   9.888  14.102  0.00  0.00    +0.000 A 
ATOM     28  O   UNL     1      50.374   9.582  15.064  0.00  0.00    +0.000 OA
ATOM     29  C   UNL     1      51.181   9.144  12.866  0.00  0.00    +0.000 A 
ATOM     30  H   UNL     1      51.827  11.563  14.981  0.00  0.00    +0.000 HD
ENDBRANCH  18  20
ENDBRANCH   1  16
TORSDOF 5
ENDMDL
MODEL 4
REMARK VINA RESULT:    -7.209      2.723      3.807
REMARK INTER + INTRA:         -10.160
REMARK INTER:                  -9.421
REMARK INTRA:                  -0.740
REMARK UNBOUND:                -0.844
REMARK  Name = 
REMARK  7 active torsions:
REMARK  status: ('A' for Active; 'I' for Inactive)
REMARK    1  A    between atoms: C_1  and  C_2
REMARK    2  A    between atoms: C_6  and  C_7
REMARK    3  A    between atoms: C_7  and  C_8
REMARK    4  A    between atoms: C_11  and  C_12
REMARK    5  A    between atoms: C_12  and  N_13
REMARK    6  A    between atoms: N_13  and  C_14
REMARK    7  A    between atoms: C_15  and  C_17
REMARK                            x       y       z     vdW  Elec       q    Type
REMARK                         _______ _______ _______ _____ _____    ______ ____
ROOT
ATOM      1  C   UNL     1      45.456   5.973  13.307  0.00  0.00    +0.000 C 
ENDROOT
BRANCH   1   5
ATOM      2  C   UNL     1      44.426   4.543   9.385  0.00  0.00    +0.000 A 
ATOM      3  C   UNL     1      45.549   5.348   9.515  0.00  0.00    +0.000 A 
ATOM      4  C   UNL     1      45.861   5.893  10.762  0.00  0.00    +0.000 A 
ATOM      5  C   UNL     1      45.091   5.578  11.886  0.00  0.00    +0.000 A 
ATOM      6  C   UNL     1      43.923   4.862  11.632  0.00  0.00    +0.000 A 
ATOM      7  N   UNL     1      43.572   4.348  10.421  0.00  0.00    +0.000 NA
BRANCH   2   8
ATOM      8  C   UNL     1      44.204   3.801   8.078  0.00  0.00    +0.000 C 
BRANCH   8  14
ATOM      9  C   UNL     1      47.988   2.558   5.000  0.00  0.00    +0.000 C 
ATOM     10  C   UNL     1      47.170   2.252   6.217  0.00  0.00    +0.000 A 
ATOM     11  C   UNL     1      47.439   1.122   6.996  0.00  0.00    +0.000 A 
ATOM     12  C   UNL     1      46.650   0.834   8.106  0.00  0.00    +0.000 A 
ATOM     13  C   UNL     1      45.587   1.676   8.450  0.00  0.00    +0.000 A 
ATOM     14  C   UNL     1      45.313   2.833   7.700  0.00  0.00    +0.000 A 
ATOM     15  C   UNL     1      46.119   3.106   6.584  0.00  0.00    +0.000 A 
ENDBRANCH   8  14
ENDBRANCH   2   8
ENDBRANCH   1   5
BRANCH   1  16
ATOM     16  N   UNL     1      46.682   6.774  13.470  0.00  0.00    +0.000 N 
ATOM     17  C   UNL     1      46.642   8.218  13.345  0.00  0.00    +0.000 C 
ATOM     18  C   UNL     1      47.918   6.080  13.556  0.00  0.00    +0.000 C 
ATOM     19  O   UNL     1      47.988   4.876  13.479  0.00  0.00    +0.000 OA
BRANCH  18  20
ATOM     20  C   UNL     1      49.123   6.918  13.761  0.00  0.00    +0.000 A 
ATOM     21  C   UNL     1      49.802   7.573  12.759  0.00  0.00    +0.000 A 
ATOM     22  S   UNL     1      51.059   8.575  13.308  0.00  0.00    +0.000 S 
ATOM     23  C   UNL     1      50.712   8.181  14.926  0.00  0.00    +0.000 A 
ATOM     24  N   UNL     1      51.354   8.800  15.943  0.00  0.00    +0.000 NA
ATOM     25  C   UNL     1      50.943   8.440  17.126  0.00  0.00    +0.000 A 
ATOM     26  N   UNL     1      49.984   7.494  17.366  0.00  0.00    +0.000 N 
ATOM     27  C   UNL     1      49.346   6.806  16.363  0.00  0.00    +0.000 A 
ATOM     28  O   UNL     1      48.543   5.899  16.622  0.00  0.00    +0.000 OA
ATOM     29  C   UNL     1      49.706   7.234  15.030  0.00  0.00    +0.000 A 
ATOM     30  H   UNL     1      49.722   7.245  18.307  0.00  0.00    +0.000 HD
ENDBRANCH  18  20
ENDBRANCH   1  16
TORSDOF 5
ENDMDL
MODEL 5
REMARK VINA RESULT:    -7.098      4.397      6.404
REMARK INTER + INTRA:         -10.017
REMARK INTER:                  -9.378
REMARK INTRA:                  -0.639
REMARK UNBOUND:                -0.844
REMARK  Name = 
REMARK  7 active torsions:
REMARK  status: ('A' for Active; 'I' for Inactive)
REMARK    1  A    between atoms: C_1  and  C_2
REMARK    2  A    between atoms: C_6  and  C_7
REMARK    3  A    between atoms: C_7  and  C_8
REMARK    4  A    between atoms: C_11  and  C_12
REMARK    5  A    between atoms: C_12  and  N_13
REMARK    6  A    between atoms: N_13  and  C_14
REMARK    7  A    between atoms: C_15  and  C_17
REMARK                            x       y       z     vdW  Elec       q    Type
REMARK                         _______ _______ _______ _____ _____    ______ ____
ROOT
ATOM      1  C   UNL     1      48.864   6.518  14.536  0.00  0.00    +0.000 C 
ENDROOT
BRANCH   1   5
ATOM      2  C   UNL     1      45.336   5.946  12.145  0.00  0.00    +0.000 A 
ATOM      3  C   UNL     1      45.807   7.240  12.320  0.00  0.00    +0.000 A 
ATOM      4  C   UNL     1      46.902   7.463  13.156  0.00  0.00    +0.000 A 
ATOM      5  C   UNL     1      47.564   6.390  13.762  0.00  0.00    +0.000 A 
ATOM      6  C   UNL     1      46.946   5.149  13.622  0.00  0.00    +0.000 A 
ATOM      7  N   UNL     1      45.857   4.904  12.842  0.00  0.00    +0.000 NA
BRANCH   2   8
ATOM      8  C   UNL     1      44.275   5.688  11.090  0.00  0.00    +0.000 C 
BRANCH   8  14
ATOM      9  C   UNL     1      46.588   3.861   7.008  0.00  0.00    +0.000 C 
ATOM     10  C   UNL     1      45.716   3.624   8.203  0.00  0.00    +0.000 A 
ATOM     11  C   UNL     1      45.207   2.351   8.479  0.00  0.00    +0.000 A 
ATOM     12  C   UNL     1      44.372   2.155   9.575  0.00  0.00    +0.000 A 
ATOM     13  C   UNL     1      44.043   3.228  10.410  0.00  0.00    +0.000 A 
ATOM     14  C   UNL     1      44.565   4.512  10.171  0.00  0.00    +0.000 A 
ATOM     15  C   UNL     1      45.403   4.690   9.060  0.00  0.00    +0.000 A 
ENDBRANCH   8  14
ENDBRANCH   2   8
ENDBRANCH   1   5
BRANCH   1  16
ATOM     16  N   UNL     1      48.746   6.681  15.996  0.00  0.00    +0.000 N 
ATOM     17  C   UNL     1      48.888   7.988  16.606  0.00  0.00    +0.000 C 
ATOM     18  C   UNL     1      48.687   5.504  16.788  0.00  0.00    +0.000 C 
ATOM     19  O   UNL     1      48.751   4.398  16.307  0.00  0.00    +0.000 OA
BRANCH  18  20
ATOM     20  C   UNL     1      48.528   5.710  18.247  0.00  0.00    +0.000 A 
ATOM     21  C   UNL     1      47.355   6.082  18.863  0.00  0.00    +0.000 A 
ATOM     22  S   UNL     1      47.434   6.099  20.560  0.00  0.00    +0.000 S 
ATOM     23  C   UNL     1      49.051   5.576  20.525  0.00  0.00    +0.000 A 
ATOM     24  N   UNL     1      49.705   5.268  21.668  0.00  0.00    +0.000 NA
ATOM     25  C   UNL     1      50.916   4.825  21.483  0.00  0.00    +0.000 A 
ATOM     26  N   UNL     1      51.528   4.708  20.265  0.00  0.00    +0.000 N 
ATOM     27  C   UNL     1      50.917   5.060  19.085  0.00  0.00    +0.000 A 
ATOM     28  O   UNL     1      51.532   5.017  18.010  0.00  0.00    +0.000 OA
ATOM     29  C   UNL     1      49.540   5.473  19.233  0.00  0.00    +0.000 A 
ATOM     30  H   UNL     1      52.477   4.376  20.187  0.00  0.00    +0.000 HD
ENDBRANCH  18  20
ENDBRANCH   1  16
TORSDOF 5
ENDMDL
MODEL 6
REMARK VINA RESULT:    -7.076      3.584      5.452
REMARK INTER + INTRA:          -9.988
REMARK INTER:                  -9.182
REMARK INTRA:                  -0.805
REMARK UNBOUND:                -0.844
REMARK  Name = 
REMARK  7 active torsions:
REMARK  status: ('A' for Active; 'I' for Inactive)
REMARK    1  A    between atoms: C_1  and  C_2
REMARK    2  A    between atoms: C_6  and  C_7
REMARK    3  A    between atoms: C_7  and  C_8
REMARK    4  A    between atoms: C_11  and  C_12
REMARK    5  A    between atoms: C_12  and  N_13
REMARK    6  A    between atoms: N_13  and  C_14
REMARK    7  A    between atoms: C_15  and  C_17
REMARK                            x       y       z     vdW  Elec       q    Type
REMARK                         _______ _______ _______ _____ _____    ______ ____
ROOT
ATOM      1  C   UNL     1      48.910   7.223  13.841  0.00  0.00    +0.000 C 
ENDROOT
BRANCH   1   5
ATOM      2  C   UNL     1      45.273   6.018  11.890  0.00  0.00    +0.000 A 
ATOM      3  C   UNL     1      45.715   7.321  11.705  0.00  0.00    +0.000 A 
ATOM      4  C   UNL     1      46.848   7.762  12.391  0.00  0.00    +0.000 A 
ATOM      5  C   UNL     1      47.573   6.886  13.205  0.00  0.00    +0.000 A 
ATOM      6  C   UNL     1      46.985   5.641  13.418  0.00  0.00    +0.000 A 
ATOM      7  N   UNL     1      45.861   5.193  12.792  0.00  0.00    +0.000 NA
BRANCH   2   8
ATOM      8  C   UNL     1      44.162   5.488  11.000  0.00  0.00    +0.000 C 
BRANCH   8  14
ATOM      9  C   UNL     1      46.726   3.904   6.967  0.00  0.00    +0.000 C 
ATOM     10  C   UNL     1      45.847   3.582   8.136  0.00  0.00    +0.000 A 
ATOM     11  C   UNL     1      45.439   2.268   8.388  0.00  0.00    +0.000 A 
ATOM     12  C   UNL     1      44.597   1.991   9.461  0.00  0.00    +0.000 A 
ATOM     13  C   UNL     1      44.157   3.024  10.295  0.00  0.00    +0.000 A 
ATOM     14  C   UNL     1      44.574   4.350  10.080  0.00  0.00    +0.000 A 
ATOM     15  C   UNL     1      45.422   4.610   8.993  0.00  0.00    +0.000 A 
ENDBRANCH   8  14
ENDBRANCH   2   8
ENDBRANCH   1   5
BRANCH   1  16
ATOM     16  N   UNL     1      48.878   7.646  15.252  0.00  0.00    +0.000 N 
ATOM     17  C   UNL     1      48.149   8.834  15.650  0.00  0.00    +0.000 C 
ATOM     18  C   UNL     1      49.734   6.972  16.162  0.00  0.00    +0.000 C 
ATOM     19  O   UNL     1      50.487   6.094  15.811  0.00  0.00    +0.000 OA
BRANCH  18  20
ATOM     20  C   UNL     1      49.643   7.398  17.579  0.00  0.00    +0.000 A 
ATOM     21  C   UNL     1      50.287   8.491  18.111  0.00  0.00    +0.000 A 
ATOM     22  S   UNL     1      49.882   8.819  19.728  0.00  0.00    +0.000 S 
ATOM     23  C   UNL     1      48.798   7.510  19.758  0.00  0.00    +0.000 A 
ATOM     24  N   UNL     1      48.007   7.289  20.833  0.00  0.00    +0.000 NA
ATOM     25  C   UNL     1      47.186   6.288  20.691  0.00  0.00    +0.000 A 
ATOM     26  N   UNL     1      47.125   5.477  19.590  0.00  0.00    +0.000 N 
ATOM     27  C   UNL     1      47.947   5.636  18.500  0.00  0.00    +0.000 A 
ATOM     28  O   UNL     1      47.918   4.831  17.557  0.00  0.00    +0.000 OA
ATOM     29  C   UNL     1      48.814   6.789  18.576  0.00  0.00    +0.000 A 
ATOM     30  H   UNL     1      46.480   4.704  19.546  0.00  0.00    +0.000 HD
ENDBRANCH  18  20
ENDBRANCH   1  16
TORSDOF 5
ENDMDL
MODEL 7
REMARK VINA RESULT:    -6.823      1.857      2.469
REMARK INTER + INTRA:          -9.661
REMARK INTER:                  -8.846
REMARK INTRA:                  -0.814
REMARK UNBOUND:                -0.844
REMARK  Name = 
REMARK  7 active torsions:
REMARK  status: ('A' for Active; 'I' for Inactive)
REMARK    1  A    between atoms: C_1  and  C_2
REMARK    2  A    between atoms: C_6  and  C_7
REMARK    3  A    between atoms: C_7  and  C_8
REMARK    4  A    between atoms: C_11  and  C_12
REMARK    5  A    between atoms: C_12  and  N_13
REMARK    6  A    between atoms: N_13  and  C_14
REMARK    7  A    between atoms: C_15  and  C_17
REMARK                            x       y       z     vdW  Elec       q    Type
REMARK                         _______ _______ _______ _____ _____    ______ ____
ROOT
ATOM      1  C   UNL     1      45.712   8.417  13.162  0.00  0.00    +0.000 C 
ENDROOT
BRANCH   1   5
ATOM      2  C   UNL     1      44.704   5.063  10.668  0.00  0.00    +0.000 A 
ATOM      3  C   UNL     1      46.045   5.302  10.933  0.00  0.00    +0.000 A 
ATOM      4  C   UNL     1      46.406   6.431  11.672  0.00  0.00    +0.000 A 
ATOM      5  C   UNL     1      45.425   7.277  12.200  0.00  0.00    +0.000 A 
ATOM      6  C   UNL     1      44.122   7.019  11.780  0.00  0.00    +0.000 A 
ATOM      7  N   UNL     1      43.742   5.948  11.030  0.00  0.00    +0.000 NA
BRANCH   2   8
ATOM      8  C   UNL     1      44.308   3.740  10.034  0.00  0.00    +0.000 C 
BRANCH   8  14
ATOM      9  C   UNL     1      46.707  -0.040   7.733  0.00  0.00    +0.000 C 
ATOM     10  C   UNL     1      46.371   1.418   7.794  0.00  0.00    +0.000 A 
ATOM     11  C   UNL     1      46.873   2.311   6.840  0.00  0.00    +0.000 A 
ATOM     12  C   UNL     1      46.576   3.668   6.930  0.00  0.00    +0.000 A 
ATOM     13  C   UNL     1      45.772   4.145   7.970  0.00  0.00    +0.000 A 
ATOM     14  C   UNL     1      45.232   3.265   8.925  0.00  0.00    +0.000 A 
ATOM     15  C   UNL     1      45.543   1.901   8.819  0.00  0.00    +0.000 A 
ENDBRANCH   8  14
ENDBRANCH   2   8
ENDBRANCH   1   5
BRANCH   1  16
ATOM     16  N   UNL     1      46.951   9.178  12.927  0.00  0.00    +0.000 N 
ATOM     17  C   UNL     1      47.071  10.056  11.779  0.00  0.00    +0.000 C 
ATOM     18  C   UNL     1      48.075   8.876  13.739  0.00  0.00    +0.000 C 
ATOM     19  O   UNL     1      48.047   8.015  14.586  0.00  0.00    +0.000 OA
BRANCH  18  20
ATOM     20  C   UNL     1      49.289   9.691  13.500  0.00  0.00    +0.000 A 
ATOM     21  C   UNL     1      49.529  10.924  14.061  0.00  0.00    +0.000 A 
ATOM     22  S   UNL     1      51.068  11.558  13.720  0.00  0.00    +0.000 S 
ATOM     23  C   UNL     1      51.478  10.174  12.823  0.00  0.00    +0.000 A 
ATOM     24  N   UNL     1      52.729  10.008  12.336  0.00  0.00    +0.000 NA
ATOM     25  C   UNL     1      52.913   8.874  11.721  0.00  0.00    +0.000 A 
ATOM     26  N   UNL     1      51.945   7.927  11.522  0.00  0.00    +0.000 N 
ATOM     27  C   UNL     1      50.649   8.080  11.955  0.00  0.00    +0.000 A 
ATOM     28  O   UNL     1      49.782   7.237  11.683  0.00  0.00    +0.000 OA
ATOM     29  C   UNL     1      50.420   9.285  12.720  0.00  0.00    +0.000 A 
ATOM     30  H   UNL     1      52.144   7.076  11.020  0.00  0.00    +0.000 HD
ENDBRANCH  18  20
ENDBRANCH   1  16
TORSDOF 5
ENDMDL
MODEL 8
REMARK VINA RESULT:    -6.545      3.554      6.208
REMARK INTER + INTRA:          -9.301
REMARK INTER:                  -8.060
REMARK INTRA:                  -1.241
REMARK UNBOUND:                -0.844
REMARK  Name = 
REMARK  7 active torsions:
REMARK  status: ('A' for Active; 'I' for Inactive)
REMARK    1  A    between atoms: C_1  and  C_2
REMARK    2  A    between atoms: C_6  and  C_7
REMARK    3  A    between atoms: C_7  and  C_8
REMARK    4  A    between atoms: C_11  and  C_12
REMARK    5  A    between atoms: C_12  and  N_13
REMARK    6  A    between atoms: N_13  and  C_14
REMARK    7  A    between atoms: C_15  and  C_17
REMARK                            x       y       z     vdW  Elec       q    Type
REMARK                         _______ _______ _______ _____ _____    ______ ____
ROOT
ATOM      1  C   UNL     1      48.787   8.973  14.929  0.00  0.00    +0.000 C 
ENDROOT
BRANCH   1   5
ATOM      2  C   UNL     1      45.880   7.846  11.968  0.00  0.00    +0.000 A 
ATOM      3  C   UNL     1      47.166   7.335  11.852  0.00  0.00    +0.000 A 
ATOM      4  C   UNL     1      48.150   7.748  12.752  0.00  0.00    +0.000 A 
ATOM      5  C   UNL     1      47.834   8.615  13.803  0.00  0.00    +0.000 A 
ATOM      6  C   UNL     1      46.553   9.163  13.763  0.00  0.00    +0.000 A 
ATOM      7  N   UNL     1      45.581   8.808  12.877  0.00  0.00    +0.000 NA
BRANCH   2   8
ATOM      8  C   UNL     1      44.776   7.250  11.114  0.00  0.00    +0.000 C 
BRANCH   8  14
ATOM      9  C   UNL     1      44.492   2.405   9.775  0.00  0.00    +0.000 C 
ATOM     10  C   UNL     1      44.295   3.462  10.818  0.00  0.00    +0.000 A 
ATOM     11  C   UNL     1      43.807   3.135  12.088  0.00  0.00    +0.000 A 
ATOM     12  C   UNL     1      43.600   4.134  13.035  0.00  0.00    +0.000 A 
ATOM     13  C   UNL     1      43.884   5.468  12.725  0.00  0.00    +0.000 A 
ATOM     14  C   UNL     1      44.402   5.819  11.466  0.00  0.00    +0.000 A 
ATOM     15  C   UNL     1      44.602   4.799  10.523  0.00  0.00    +0.000 A 
ENDBRANCH   8  14
ENDBRANCH   2   8
ENDBRANCH   1   5
BRANCH   1  16
ATOM     16  N   UNL     1      48.895   8.001  16.031  0.00  0.00    +0.000 N 
ATOM     17  C   UNL     1      48.160   8.201  17.265  0.00  0.00    +0.000 C 
ATOM     18  C   UNL     1      49.880   6.985  15.921  0.00  0.00    +0.000 C 
ATOM     19  O   UNL     1      50.628   6.911  14.975  0.00  0.00    +0.000 OA
BRANCH  18  20
ATOM     20  C   UNL     1      49.929   6.003  17.030  0.00  0.00    +0.000 A 
ATOM     21  C   UNL     1      50.775   6.085  18.112  0.00  0.00    +0.000 A 
ATOM     22  S   UNL     1      50.508   4.897  19.297  0.00  0.00    +0.000 S 
ATOM     23  C   UNL     1      49.218   4.245  18.402  0.00  0.00    +0.000 A 
ATOM     24  N   UNL     1      48.452   3.253  18.912  0.00  0.00    +0.000 NA
ATOM     25  C   UNL     1      47.465   2.895  18.140  0.00  0.00    +0.000 A 
ATOM     26  N   UNL     1      47.215   3.416  16.899  0.00  0.00    +0.000 N 
ATOM     27  C   UNL     1      48.000   4.387  16.324  0.00  0.00    +0.000 A 
ATOM     28  O   UNL     1      47.790   4.773  15.166  0.00  0.00    +0.000 OA
ATOM     29  C   UNL     1      49.055   4.878  17.181  0.00  0.00    +0.000 A 
ATOM     30  H   UNL     1      46.445   3.083  16.340  0.00  0.00    +0.000 HD
ENDBRANCH  18  20
ENDBRANCH   1  16
TORSDOF 5
ENDMDL
MODEL 9
REMARK VINA RESULT:    -6.491      2.194      3.158
REMARK INTER + INTRA:          -9.232
REMARK INTER:                  -8.216
REMARK INTRA:                  -1.017
REMARK UNBOUND:                -0.844
REMARK  Name = 
REMARK  7 active torsions:
REMARK  status: ('A' for Active; 'I' for Inactive)
REMARK    1  A    between atoms: C_1  and  C_2
REMARK    2  A    between atoms: C_6  and  C_7
REMARK    3  A    between atoms: C_7  and  C_8
REMARK    4  A    between atoms: C_11  and  C_12
REMARK    5  A    between atoms: C_12  and  N_13
REMARK    6  A    between atoms: N_13  and  C_14
REMARK    7  A    between atoms: C_15  and  C_17
REMARK                            x       y       z     vdW  Elec       q    Type
REMARK                         _______ _______ _______ _____ _____    ______ ____
ROOT
ATOM      1  C   UNL     1      46.974   8.756  13.802  0.00  0.00    +0.000 C 
ENDROOT
BRANCH   1   5
ATOM      2  C   UNL     1      44.792   6.018  11.306  0.00  0.00    +0.000 A 
ATOM      3  C   UNL     1      45.822   5.513  12.088  0.00  0.00    +0.000 A 
ATOM      4  C   UNL     1      46.599   6.391  12.846  0.00  0.00    +0.000 A 
ATOM      5  C   UNL     1      46.304   7.758  12.873  0.00  0.00    +0.000 A 
ATOM      6  C   UNL     1      45.333   8.180  11.968  0.00  0.00    +0.000 A 
ATOM      7  N   UNL     1      44.582   7.352  11.189  0.00  0.00    +0.000 NA
BRANCH   2   8
ATOM      8  C   UNL     1      43.834   5.045  10.641  0.00  0.00    +0.000 C 
BRANCH   8  14
ATOM      9  C   UNL     1      46.879   3.996   6.772  0.00  0.00    +0.000 C 
ATOM     10  C   UNL     1      46.003   3.507   7.885  0.00  0.00    +0.000 A 
ATOM     11  C   UNL     1      45.824   2.138   8.109  0.00  0.00    +0.000 A 
ATOM     12  C   UNL     1      44.982   1.701   9.127  0.00  0.00    +0.000 A 
ATOM     13  C   UNL     1      44.314   2.628   9.934  0.00  0.00    +0.000 A 
ATOM     14  C   UNL     1      44.498   4.010   9.747  0.00  0.00    +0.000 A 
ATOM     15  C   UNL     1      45.350   4.431   8.715  0.00  0.00    +0.000 A 
ENDBRANCH   8  14
ENDBRANCH   2   8
ENDBRANCH   1   5
BRANCH   1  16
ATOM     16  N   UNL     1      48.416   8.978  13.597  0.00  0.00    +0.000 N 
ATOM     17  C   UNL     1      49.389   8.373  14.486  0.00  0.00    +0.000 C 
ATOM     18  C   UNL     1      48.804   9.947  12.636  0.00  0.00    +0.000 C 
ATOM     19  O   UNL     1      47.998  10.595  12.010  0.00  0.00    +0.000 OA
BRANCH  18  20
ATOM     20  C   UNL     1      50.263  10.112  12.430  0.00  0.00    +0.000 A 
ATOM     21  C   UNL     1      51.008  11.164  12.910  0.00  0.00    +0.000 A 
ATOM     22  S   UNL     1      52.679  11.014  12.643  0.00  0.00    +0.000 S 
ATOM     23  C   UNL     1      52.458   9.505  11.892  0.00  0.00    +0.000 A 
ATOM     24  N   UNL     1      53.520   8.753  11.520  0.00  0.00    +0.000 NA
ATOM     25  C   UNL     1      53.199   7.597  11.012  0.00  0.00    +0.000 A 
ATOM     26  N   UNL     1      51.918   7.160  10.813  0.00  0.00    +0.000 N 
ATOM     27  C   UNL     1      50.813   7.914  11.128  0.00  0.00    +0.000 A 
ATOM     28  O   UNL     1      49.671   7.517  10.856  0.00  0.00    +0.000 OA
ATOM     29  C   UNL     1      51.119   9.168  11.776  0.00  0.00    +0.000 A 
ATOM     30  H   UNL     1      51.733   6.260  10.396  0.00  0.00    +0.000 HD
ENDBRANCH  18  20
ENDBRANCH   1  16
TORSDOF 5
ENDMDL
