MODEL 1
REMARK VINA RESULT:    -7.676      0.000      0.000
REMARK INTER + INTRA:         -10.271
REMARK INTER:                  -9.920
REMARK INTRA:                  -0.351
REMARK UNBOUND:                -0.351
REMARK  Name = 
REMARK  5 active torsions:
REMARK  status: ('A' for Active; 'I' for Inactive)
REMARK    1  A    between atoms: C_4  and  C_5
REMARK    2  A    between atoms: C_10  and  C_11
REMARK    3  A    between atoms: C_11  and  C_12
REMARK    4  A    between atoms: C_12  and  C_13
REMARK    5  A    between atoms: C_17  and  C_18
REMARK                            x       y       z     vdW  Elec       q    Type
REMARK                         _______ _______ _______ _____ _____    ______ ____
ROOT
ATOM      1  C   UNL     1      45.763   6.604  12.018  0.00  0.00    +0.000 C 
ENDROOT
BRANCH   1   7
ATOM      2  N   UNL     1      43.574   2.402  12.476  0.00  0.00    +0.000 N 
ATOM      3  C   UNL     1      44.294   3.250  11.643  0.00  0.00    +0.000 A 
ATOM      4  C   UNL     1      44.518   2.914  10.319  0.00  0.00    +0.000 A 
ATOM      5  C   UNL     1      45.202   3.813   9.496  0.00  0.00    +0.000 A 
ATOM      6  C   UNL     1      45.627   5.029  10.045  0.00  0.00    +0.000 A 
ATOM      7  C   UNL     1      45.358   5.293  11.383  0.00  0.00    +0.000 A 
ATOM      8  N   UNL     1      44.693   4.417  12.173  0.00  0.00    +0.000 NA
ATOM      9  H   UNL     1      43.930   1.455  12.468  0.00  0.00    +0.000 HD
ATOM     10  H   UNL     1      43.593   2.812  13.406  0.00  0.00    +0.000 HD
BRANCH   5  11
ATOM     11  C   UNL     1      45.468   3.490   8.051  0.00  0.00    +0.000 C 
ATOM     12  F   UNL     1      44.363   3.577   7.259  0.00  0.00    +0.000 F 
ATOM     13  F   UNL     1      46.393   4.318   7.495  0.00  0.00    +0.000 F 
ATOM     14  F   UNL     1      45.947   2.226   7.883  0.00  0.00    +0.000 F 
ENDBRANCH   5  11
ENDBRANCH   1   7
BRANCH   1  15
ATOM     15  C   UNL     1      47.288   6.738  12.077  0.00  0.00    +0.000 C 
BRANCH  15  16
ATOM     16  C   UNL     1      47.930   6.495  13.427  0.00  0.00    +0.000 A 
ATOM     17  C   UNL     1      49.001   7.232  13.924  0.00  0.00    +0.000 A 
ATOM     18  C   UNL     1      49.473   6.937  15.198  0.00  0.00    +0.000 A 
ATOM     19  N   UNL     1      48.950   5.982  15.992  0.00  0.00    +0.000 NA
ATOM     20  C   UNL     1      47.899   5.275  15.525  0.00  0.00    +0.000 A 
ATOM     21  C   UNL     1      47.368   5.511  14.258  0.00  0.00    +0.000 A 
BRANCH  20  22
ATOM     22  C   UNL     1      47.294   4.193  16.409  0.00  0.00    +0.000 C 
ATOM     23  C   UNL     1      47.173   4.613  17.879  0.00  0.00    +0.000 C 
ATOM     24  C   UNL     1      48.495   4.523  18.640  0.00  0.00    +0.000 C 
ATOM     25  N   UNL     1      49.129   3.206  18.518  0.00  0.00    +0.000 NA
ATOM     26  C   UNL     1      49.334   2.828  17.118  0.00  0.00    +0.000 C 
ATOM     27  C   UNL     1      48.039   2.857  16.304  0.00  0.00    +0.000 C 
ATOM     28  H   UNL     1      48.551   2.509  18.979  0.00  0.00    +0.000 HD
ENDBRANCH  20  22
ENDBRANCH  15  16
ENDBRANCH   1  15
TORSDOF 5
ENDMDL
MODEL 2
REMARK VINA RESULT:    -7.525      2.556      4.310
REMARK INTER + INTRA:         -10.076
REMARK INTER:                  -9.063
REMARK INTRA:                  -1.013
REMARK UNBOUND:                -0.351
REMARK  Name = 
REMARK  5 active torsions:
REMARK  status: ('A' for Active; 'I' for Inactive)
REMARK    1  A    between atoms: C_4  and  C_5
REMARK    2  A    between atoms: C_10  and  C_11
REMARK    3  A    between atoms: C_11  and  C_12
REMARK    4  A    between atoms: C_12  and  C_13
REMARK    5  A    between atoms: C_17  and  C_18
REMARK                            x       y       z     vdW  Elec       q    Type
REMARK                         _______ _______ _______ _____ _____    ______ ____
ROOT
ATOM      1  C   UNL     1      44.048   6.626  11.130  0.00  0.00    +0.000 C 
ENDROOT
BRANCH   1   7
ATOM      2  N   UNL     1      43.332   1.951  11.656  0.00  0.00    +0.000 N 
ATOM      3  C   UNL     1      43.962   2.953  10.928  0.00  0.00    +0.000 A 
ATOM      4  C   UNL     1      44.697   2.645   9.797  0.00  0.00    +0.000 A 
ATOM      5  C   UNL     1      45.276   3.681   9.060  0.00  0.00    +0.000 A 
ATOM      6  C   UNL     1      45.079   4.998   9.492  0.00  0.00    +0.000 A 
ATOM      7  C   UNL     1      44.322   5.224  10.637  0.00  0.00    +0.000 A 
ATOM      8  N   UNL     1      43.764   4.213  11.345  0.00  0.00    +0.000 NA
ATOM      9  H   UNL     1      43.960   1.199  11.909  0.00  0.00    +0.000 HD
ATOM     10  H   UNL     1      42.915   2.392  12.472  0.00  0.00    +0.000 HD
BRANCH   5  11
ATOM     11  C   UNL     1      46.084   3.394   7.823  0.00  0.00    +0.000 C 
ATOM     12  F   UNL     1      46.813   2.247   7.901  0.00  0.00    +0.000 F 
ATOM     13  F   UNL     1      45.308   3.271   6.713  0.00  0.00    +0.000 F 
ATOM     14  F   UNL     1      46.977   4.385   7.548  0.00  0.00    +0.000 F 
ENDBRANCH   5  11
ENDBRANCH   1   7
BRANCH   1  15
ATOM     15  C   UNL     1      44.547   6.813  12.566  0.00  0.00    +0.000 C 
BRANCH  15  16
ATOM     16  C   UNL     1      46.028   6.596  12.794  0.00  0.00    +0.000 A 
ATOM     17  C   UNL     1      46.554   5.550  13.547  0.00  0.00    +0.000 A 
ATOM     18  C   UNL     1      47.936   5.435  13.646  0.00  0.00    +0.000 A 
ATOM     19  N   UNL     1      48.806   6.273  13.048  0.00  0.00    +0.000 NA
ATOM     20  C   UNL     1      48.304   7.279  12.300  0.00  0.00    +0.000 A 
ATOM     21  C   UNL     1      46.930   7.461  12.151  0.00  0.00    +0.000 A 
BRANCH  20  22
ATOM     22  C   UNL     1      49.271   8.234  11.614  0.00  0.00    +0.000 C 
ATOM     23  C   UNL     1      50.668   8.235  12.246  0.00  0.00    +0.000 C 
ATOM     24  C   UNL     1      50.743   9.053  13.536  0.00  0.00    +0.000 C 
ATOM     25  N   UNL     1      50.239  10.419  13.368  0.00  0.00    +0.000 NA
ATOM     26  C   UNL     1      48.870  10.435  12.848  0.00  0.00    +0.000 C 
ATOM     27  C   UNL     1      48.730   9.667  11.533  0.00  0.00    +0.000 C 
ATOM     28  H   UNL     1      50.850  10.930  12.737  0.00  0.00    +0.000 HD
ENDBRANCH  20  22
ENDBRANCH  15  16
ENDBRANCH   1  15
TORSDOF 5
ENDMDL
MODEL 3
REMARK VINA RESULT:    -7.368      1.554      2.312
REMARK INTER + INTRA:          -9.873
REMARK INTER:                  -9.548
REMARK INTRA:                  -0.325
REMARK UNBOUND:                -0.351
REMARK  Name = 
REMARK  5 active torsions:
REMARK  status: ('A' for Active; 'I' for Inactive)
REMARK    1  A    between atoms: C_4  and  C_5
REMARK    2  A    between atoms: C_10  and  C_11
REMARK    3  A    between atoms: C_11  and  C_12
REMARK    4  A    between atoms: C_12  and  C_13
REMARK    5  A    between atoms: C_17  and  C_18
REMARK                            x       y       z     vdW  Elec       q    Type
REMARK                         _______ _______ _______ _____ _____    ______ ____
ROOT
ATOM      1  C   UNL     1      46.479   7.551  11.877  0.00  0.00    +0.000 C 
ENDROOT
BRANCH   1   7
ATOM      2  N   UNL     1      42.053   5.802  11.806  0.00  0.00    +0.000 N 
ATOM      3  C   UNL     1      43.346   5.706  11.308  0.00  0.00    +0.000 A 
ATOM      4  C   UNL     1      43.649   4.799  10.307  0.00  0.00    +0.000 A 
ATOM      5  C   UNL     1      44.948   4.762   9.794  0.00  0.00    +0.000 A 
ATOM      6  C   UNL     1      45.894   5.657  10.308  0.00  0.00    +0.000 A 
ATOM      7  C   UNL     1      45.508   6.541  11.310  0.00  0.00    +0.000 A 
ATOM      8  N   UNL     1      44.247   6.570  11.801  0.00  0.00    +0.000 NA
ATOM      9  H   UNL     1      41.679   4.908  12.096  0.00  0.00    +0.000 HD
ATOM     10  H   UNL     1      42.077   6.474  12.570  0.00  0.00    +0.000 HD
BRANCH   5  11
ATOM     11  C   UNL     1      45.324   3.793   8.705  0.00  0.00    +0.000 C 
ATOM     12  F   UNL     1      46.446   4.149   8.021  0.00  0.00    +0.000 F 
ATOM     13  F   UNL     1      45.556   2.541   9.181  0.00  0.00    +0.000 F 
ATOM     14  F   UNL     1      44.343   3.662   7.769  0.00  0.00    +0.000 F 
ENDBRANCH   5  11
ENDBRANCH   1   7
BRANCH   1  15
ATOM     15  C   UNL     1      47.779   6.876  12.324  0.00  0.00    +0.000 C 
BRANCH  15  16
ATOM     16  C   UNL     1      47.704   6.052  13.592  0.00  0.00    +0.000 A 
ATOM     17  C   UNL     1      47.012   4.849  13.698  0.00  0.00    +0.000 A 
ATOM     18  C   UNL     1      47.055   4.165  14.908  0.00  0.00    +0.000 A 
ATOM     19  N   UNL     1      47.736   4.592  15.990  0.00  0.00    +0.000 NA
ATOM     20  C   UNL     1      48.426   5.748  15.890  0.00  0.00    +0.000 A 
ATOM     21  C   UNL     1      48.433   6.491  14.710  0.00  0.00    +0.000 A 
BRANCH  20  22
ATOM     22  C   UNL     1      49.203   6.244  17.100  0.00  0.00    +0.000 C 
ATOM     23  C   UNL     1      50.673   5.808  17.094  0.00  0.00    +0.000 C 
ATOM     24  C   UNL     1      50.871   4.359  17.536  0.00  0.00    +0.000 C 
ATOM     25  N   UNL     1      50.242   4.071  18.828  0.00  0.00    +0.000 NA
ATOM     26  C   UNL     1      48.814   4.399  18.824  0.00  0.00    +0.000 C 
ATOM     27  C   UNL     1      48.544   5.851  18.429  0.00  0.00    +0.000 C 
ATOM     28  H   UNL     1      50.711   4.599  19.558  0.00  0.00    +0.000 HD
ENDBRANCH  20  22
ENDBRANCH  15  16
ENDBRANCH   1  15
TORSDOF 5
ENDMDL
MODEL 4
REMARK VINA RESULT:    -7.334      1.630      2.729
REMARK INTER + INTRA:          -9.829
REMARK INTER:                  -9.329
REMARK INTRA:                  -0.500
REMARK UNBOUND:                -0.351
REMARK  Name = 
REMARK  5 active torsions:
REMARK  status: ('A' for Active; 'I' for Inactive)
REMARK    1  A    between atoms: C_4  and  C_5
REMARK    2  A    between atoms: C_10  and  C_11
REMARK    3  A    between atoms: C_11  and  C_12
REMARK    4  A    between atoms: C_12  and  C_13
REMARK    5  A    between atoms: C_17  and  C_18
REMARK                            x       y       z     vdW  Elec       q    Type
REMARK                         _______ _______ _______ _____ _____    ______ ____
ROOT
ATOM      1  C   UNL     1      45.248   6.606  11.411  0.00  0.00    +0.000 C 
ENDROOT
BRANCH   1   7
ATOM      2  N   UNL     1      43.247   2.291  11.583  0.00  0.00    +0.000 N 
ATOM      3  C   UNL     1      44.097   3.148  10.896  0.00  0.00    +0.000 A 
ATOM      4  C   UNL     1      44.650   2.770   9.685  0.00  0.00    +0.000 A 
ATOM      5  C   UNL     1      45.461   3.676   8.996  0.00  0.00    +0.000 A 
ATOM      6  C   UNL     1      45.675   4.941   9.557  0.00  0.00    +0.000 A 
ATOM      7  C   UNL     1      45.079   5.244  10.776  0.00  0.00    +0.000 A 
ATOM      8  N   UNL     1      44.293   4.361  11.436  0.00  0.00    +0.000 NA
ATOM      9  H   UNL     1      43.645   1.370  11.715  0.00  0.00    +0.000 HD
ATOM     10  H   UNL     1      43.020   2.741  12.466  0.00  0.00    +0.000 HD
BRANCH   5  11
ATOM     11  C   UNL     1      46.083   3.309   7.676  0.00  0.00    +0.000 C 
ATOM     12  F   UNL     1      45.176   3.126   6.676  0.00  0.00    +0.000 F 
ATOM     13  F   UNL     1      46.948   4.258   7.227  0.00  0.00    +0.000 F 
ATOM     14  F   UNL     1      46.799   2.152   7.745  0.00  0.00    +0.000 F 
ENDBRANCH   5  11
ENDBRANCH   1   7
BRANCH   1  15
ATOM     15  C   UNL     1      46.708   6.855  11.799  0.00  0.00    +0.000 C 
BRANCH  15  16
ATOM     16  C   UNL     1      47.149   6.299  13.137  0.00  0.00    +0.000 A 
ATOM     17  C   UNL     1      46.744   5.066  13.640  0.00  0.00    +0.000 A 
ATOM     18  C   UNL     1      47.254   4.650  14.864  0.00  0.00    +0.000 A 
ATOM     19  N   UNL     1      48.129   5.366  15.597  0.00  0.00    +0.000 NA
ATOM     20  C   UNL     1      48.542   6.555  15.109  0.00  0.00    +0.000 A 
ATOM     21  C   UNL     1      48.077   7.041  13.888  0.00  0.00    +0.000 A 
BRANCH  20  22
ATOM     22  C   UNL     1      49.532   7.376  15.922  0.00  0.00    +0.000 C 
ATOM     23  C   UNL     1      49.617   6.940  17.390  0.00  0.00    +0.000 C 
ATOM     24  C   UNL     1      48.457   7.461  18.238  0.00  0.00    +0.000 C 
ATOM     25  N   UNL     1      48.285   8.913  18.128  0.00  0.00    +0.000 NA
ATOM     26  C   UNL     1      48.113   9.337  16.737  0.00  0.00    +0.000 C 
ATOM     27  C   UNL     1      49.263   8.884  15.837  0.00  0.00    +0.000 C 
ATOM     28  H   UNL     1      49.091   9.380  18.531  0.00  0.00    +0.000 HD
ENDBRANCH  20  22
ENDBRANCH  15  16
ENDBRANCH   1  15
TORSDOF 5
ENDMDL
MODEL 5
REMARK VINA RESULT:    -7.309      1.600      2.227
REMARK INTER + INTRA:          -9.796
REMARK INTER:                  -9.174
REMARK INTRA:                  -0.622
REMARK UNBOUND:                -0.351
REMARK  Name = 
REMARK  5 active torsions:
REMARK  status: ('A' for Active; 'I' for Inactive)
REMARK    1  A    between atoms: C_4  and  C_5
REMARK    2  A    between atoms: C_10  and  C_11
REMARK    3  A    between atoms: C_11  and  C_12
REMARK    4  A    between atoms: C_12  and  C_13
REMARK    5  A    between atoms: C_17  and  C_18
REMARK                            x       y       z     vdW  Elec       q    Type
REMARK                         _______ _______ _______ _____ _____    ______ ____
ROOT
ATOM      1  C   UNL     1      46.451   7.423  11.783  0.00  0.00    +0.000 C 
ENDROOT
BRANCH   1   7
ATOM      2  N   UNL     1      42.070   5.563  11.740  0.00  0.00    +0.000 N 
ATOM      3  C   UNL     1      43.357   5.513  11.218  0.00  0.00    +0.000 A 
ATOM      4  C   UNL     1      43.665   4.640  10.189  0.00  0.00    +0.000 A 
ATOM      5  C   UNL     1      44.956   4.650   9.654  0.00  0.00    +0.000 A 
ATOM      6  C   UNL     1      45.888   5.556  10.175  0.00  0.00    +0.000 A 
ATOM      7  C   UNL     1      45.497   6.403  11.206  0.00  0.00    +0.000 A 
ATOM      8  N   UNL     1      44.244   6.388  11.718  0.00  0.00    +0.000 NA
ATOM      9  H   UNL     1      41.724   4.652  12.013  0.00  0.00    +0.000 HD
ATOM     10  H   UNL     1      42.091   6.215  12.521  0.00  0.00    +0.000 HD
BRANCH   5  11
ATOM     11  C   UNL     1      45.337   3.719   8.534  0.00  0.00    +0.000 C 
ATOM     12  F   UNL     1      46.412   4.143   7.813  0.00  0.00    +0.000 F 
ATOM     13  F   UNL     1      45.652   2.473   8.979  0.00  0.00    +0.000 F 
ATOM     14  F   UNL     1      44.328   3.552   7.635  0.00  0.00    +0.000 F 
ENDBRANCH   5  11
ENDBRANCH   1   7
BRANCH   1  15
ATOM     15  C   UNL     1      47.647   6.741  12.455  0.00  0.00    +0.000 C 
BRANCH  15  16
ATOM     16  C   UNL     1      48.074   7.304  13.794  0.00  0.00    +0.000 A 
ATOM     17  C   UNL     1      48.076   8.662  14.102  0.00  0.00    +0.000 A 
ATOM     18  C   UNL     1      48.451   9.049  15.383  0.00  0.00    +0.000 A 
ATOM     19  N   UNL     1      48.806   8.187  16.356  0.00  0.00    +0.000 NA
ATOM     20  C   UNL     1      48.789   6.867  16.072  0.00  0.00    +0.000 A 
ATOM     21  C   UNL     1      48.424   6.400  14.810  0.00  0.00    +0.000 A 
BRANCH  20  22
ATOM     22  C   UNL     1      49.185   5.879  17.159  0.00  0.00    +0.000 C 
ATOM     23  C   UNL     1      48.648   4.464  16.913  0.00  0.00    +0.000 C 
ATOM     24  C   UNL     1      47.172   4.309  17.282  0.00  0.00    +0.000 C 
ATOM     25  N   UNL     1      46.882   4.752  18.648  0.00  0.00    +0.000 NA
ATOM     26  C   UNL     1      47.309   6.135  18.875  0.00  0.00    +0.000 C 
ATOM     27  C   UNL     1      48.790   6.353  18.564  0.00  0.00    +0.000 C 
ATOM     28  H   UNL     1      47.349   4.139  19.309  0.00  0.00    +0.000 HD
ENDBRANCH  20  22
ENDBRANCH  15  16
ENDBRANCH   1  15
TORSDOF 5
ENDMDL
MODEL 6
REMARK VINA RESULT:    -6.957      2.064      2.621
REMARK INTER + INTRA:          -9.342
REMARK INTER:                  -8.693
REMARK INTRA:                  -0.649
REMARK UNBOUND:                -0.351
REMARK  Name = 
REMARK  5 active torsions:
REMARK  status: ('A' for Active; 'I' for Inactive)
REMARK    1  A    between atoms: C_4  and  C_5
REMARK    2  A    between atoms: C_10  and  C_11
REMARK    3  A    between atoms: C_11  and  C_12
REMARK    4  A    between atoms: C_12  and  C_13
REMARK    5  A    between atoms: C_17  and  C_18
REMARK                            x       y       z     vdW  Elec       q    Type
REMARK                         _______ _______ _______ _____ _____    ______ ____
ROOT
ATOM      1  C   UNL     1      47.168   7.746  12.234  0.00  0.00    +0.000 C 
ENDROOT
BRANCH   1   7
ATOM      2  N   UNL     1      42.560   7.548  11.060  0.00  0.00    +0.000 N 
ATOM      3  C   UNL     1      43.700   6.834  11.406  0.00  0.00    +0.000 A 
ATOM      4  C   UNL     1      43.690   5.450  11.406  0.00  0.00    +0.000 A 
ATOM      5  C   UNL     1      44.868   4.762  11.710  0.00  0.00    +0.000 A 
ATOM      6  C   UNL     1      46.020   5.506  11.995  0.00  0.00    +0.000 A 
ATOM      7  C   UNL     1      45.947   6.894  11.969  0.00  0.00    +0.000 A 
ATOM      8  N   UNL     1      44.802   7.552  11.672  0.00  0.00    +0.000 NA
ATOM      9  H   UNL     1      41.744   7.259  11.584  0.00  0.00    +0.000 HD
ATOM     10  H   UNL     1      42.773   8.534  11.195  0.00  0.00    +0.000 HD
BRANCH   5  11
ATOM     11  C   UNL     1      44.905   3.258  11.722  0.00  0.00    +0.000 C 
ATOM     12  F   UNL     1      45.781   2.740  12.628  0.00  0.00    +0.000 F 
ATOM     13  F   UNL     1      43.696   2.710  12.016  0.00  0.00    +0.000 F 
ATOM     14  F   UNL     1      45.269   2.740  10.516  0.00  0.00    +0.000 F 
ENDBRANCH   5  11
ENDBRANCH   1   7
BRANCH   1  15
ATOM     15  C   UNL     1      48.400   6.875  12.499  0.00  0.00    +0.000 C 
BRANCH  15  16
ATOM     16  C   UNL     1      48.827   6.741  13.945  0.00  0.00    +0.000 A 
ATOM     17  C   UNL     1      49.875   7.458  14.517  0.00  0.00    +0.000 A 
ATOM     18  C   UNL     1      50.142   7.276  15.869  0.00  0.00    +0.000 A 
ATOM     19  N   UNL     1      49.440   6.449  16.669  0.00  0.00    +0.000 NA
ATOM     20  C   UNL     1      48.410   5.764  16.128  0.00  0.00    +0.000 A 
ATOM     21  C   UNL     1      48.080   5.893  14.780  0.00  0.00    +0.000 A 
BRANCH  20  22
ATOM     22  C   UNL     1      47.605   4.828  17.017  0.00  0.00    +0.000 C 
ATOM     23  C   UNL     1      47.897   5.015  18.511  0.00  0.00    +0.000 C 
ATOM     24  C   UNL     1      49.200   4.350  18.956  0.00  0.00    +0.000 C 
ATOM     25  N   UNL     1      49.269   2.935  18.578  0.00  0.00    +0.000 NA
ATOM     26  C   UNL     1      49.081   2.746  17.138  0.00  0.00    +0.000 C 
ATOM     27  C   UNL     1      47.772   3.353  16.630  0.00  0.00    +0.000 C 
ATOM     28  H   UNL     1      48.561   2.415  19.087  0.00  0.00    +0.000 HD
ENDBRANCH  20  22
ENDBRANCH  15  16
ENDBRANCH   1  15
TORSDOF 5
ENDMDL
MODEL 7
REMARK VINA RESULT:    -6.928      3.604      7.046
REMARK INTER + INTRA:          -9.304
REMARK INTER:                  -8.401
REMARK INTRA:                  -0.903
REMARK UNBOUND:                -0.351
REMARK  Name = 
REMARK  5 active torsions:
REMARK  status: ('A' for Active; 'I' for Inactive)
REMARK    1  A    between atoms: C_4  and  C_5
REMARK    2  A    between atoms: C_10  and  C_11
REMARK    3  A    between atoms: C_11  and  C_12
REMARK    4  A    between atoms: C_12  and  C_13
REMARK    5  A    between atoms: C_17  and  C_18
REMARK                            x       y       z     vdW  Elec       q    Type
REMARK                         _______ _______ _______ _____ _____    ______ ____
ROOT
ATOM      1  C   UNL     1      49.124   7.635  14.862  0.00  0.00    +0.000 C 
ENDROOT
BRANCH   1   7
ATOM      2  N   UNL     1      48.142   7.357  19.511  0.00  0.00    +0.000 N 
ATOM      3  C   UNL     1      48.302   6.666  18.316  0.00  0.00    +0.000 A 
ATOM      4  C   UNL     1      48.055   5.306  18.251  0.00  0.00    +0.000 A 
ATOM      5  C   UNL     1      48.178   4.652  17.022  0.00  0.00    +0.000 A 
ATOM      6  C   UNL     1      48.539   5.405  15.898  0.00  0.00    +0.000 A 
ATOM      7  C   UNL     1      48.766   6.769  16.047  0.00  0.00    +0.000 A 
ATOM      8  N   UNL     1      48.643   7.395  17.241  0.00  0.00    +0.000 NA
ATOM      9  H   UNL     1      48.642   6.929  20.279  0.00  0.00    +0.000 HD
ATOM     10  H   UNL     1      48.441   8.315  19.344  0.00  0.00    +0.000 HD
BRANCH   5  11
ATOM     11  C   UNL     1      47.918   3.174  16.903  0.00  0.00    +0.000 C 
ATOM     12  F   UNL     1      48.923   2.401  17.401  0.00  0.00    +0.000 F 
ATOM     13  F   UNL     1      46.790   2.790  17.558  0.00  0.00    +0.000 F 
ATOM     14  F   UNL     1      47.753   2.781  15.609  0.00  0.00    +0.000 F 
ENDBRANCH   5  11
ENDBRANCH   1   7
BRANCH   1  15
ATOM     15  C   UNL     1      48.714   6.966  13.546  0.00  0.00    +0.000 C 
BRANCH  15  16
ATOM     16  C   UNL     1      47.343   7.324  13.013  0.00  0.00    +0.000 A 
ATOM     17  C   UNL     1      46.779   8.593  13.103  0.00  0.00    +0.000 A 
ATOM     18  C   UNL     1      45.528   8.804  12.535  0.00  0.00    +0.000 A 
ATOM     19  N   UNL     1      44.824   7.853  11.891  0.00  0.00    +0.000 NA
ATOM     20  C   UNL     1      45.371   6.623  11.782  0.00  0.00    +0.000 A 
ATOM     21  C   UNL     1      46.622   6.333  12.324  0.00  0.00    +0.000 A 
BRANCH  20  22
ATOM     22  C   UNL     1      44.592   5.537  11.055  0.00  0.00    +0.000 C 
ATOM     23  C   UNL     1      43.138   5.418  11.528  0.00  0.00    +0.000 C 
ATOM     24  C   UNL     1      42.997   4.663  12.850  0.00  0.00    +0.000 C 
ATOM     25  N   UNL     1      43.652   3.352  12.824  0.00  0.00    +0.000 NA
ATOM     26  C   UNL     1      45.067   3.457  12.460  0.00  0.00    +0.000 C 
ATOM     27  C   UNL     1      45.280   4.168  11.123  0.00  0.00    +0.000 C 
ATOM     28  H   UNL     1      43.174   2.747  12.163  0.00  0.00    +0.000 HD
ENDBRANCH  20  22
ENDBRANCH  15  16
ENDBRANCH   1  15
TORSDOF 5
ENDMDL
MODEL 8
REMARK VINA RESULT:    -6.880      3.930      5.866
REMARK INTER + INTRA:          -9.242
REMARK INTER:                  -8.517
REMARK INTRA:                  -0.726
REMARK UNBOUND:                -0.351
REMARK  Name = 
REMARK  5 active torsions:
REMARK  status: ('A' for Active; 'I' for Inactive)
REMARK    1  A    between atoms: C_4  and  C_5
REMARK    2  A    between atoms: C_10  and  C_11
REMARK    3  A    between atoms: C_11  and  C_12
REMARK    4  A    between atoms: C_12  and  C_13
REMARK    5  A    between atoms: C_17  and  C_18
REMARK                            x       y       z     vdW  Elec       q    Type
REMARK                         _______ _______ _______ _____ _____    ______ ____
ROOT
ATOM      1  C   UNL     1      46.396   7.348  12.261  0.00  0.00    +0.000 C 
ENDROOT
BRANCH   1   7
ATOM      2  N   UNL     1      41.961   5.683  11.795  0.00  0.00    +0.000 N 
ATOM      3  C   UNL     1      43.278   5.615  11.356  0.00  0.00    +0.000 A 
ATOM      4  C   UNL     1      43.623   4.805  10.288  0.00  0.00    +0.000 A 
ATOM      5  C   UNL     1      44.947   4.799   9.840  0.00  0.00    +0.000 A 
ATOM      6  C   UNL     1      45.874   5.625  10.487  0.00  0.00    +0.000 A 
ATOM      7  C   UNL     1      45.446   6.413  11.550  0.00  0.00    +0.000 A 
ATOM      8  N   UNL     1      44.160   6.414  11.976  0.00  0.00    +0.000 NA
ATOM      9  H   UNL     1      41.564   4.770  11.977  0.00  0.00    +0.000 HD
ATOM     10  H   UNL     1      41.953   6.276  12.621  0.00  0.00    +0.000 HD
BRANCH   5  11
ATOM     11  C   UNL     1      45.368   3.934   8.683  0.00  0.00    +0.000 C 
ATOM     12  F   UNL     1      46.412   4.444   7.972  0.00  0.00    +0.000 F 
ATOM     13  F   UNL     1      45.754   2.691   9.076  0.00  0.00    +0.000 F 
ATOM     14  F   UNL     1      44.362   3.748   7.784  0.00  0.00    +0.000 F 
ENDBRANCH   5  11
ENDBRANCH   1   7
BRANCH   1  15
ATOM     15  C   UNL     1      47.851   6.918  12.054  0.00  0.00    +0.000 C 
BRANCH  15  16
ATOM     16  C   UNL     1      48.831   8.018  11.705  0.00  0.00    +0.000 A 
ATOM     17  C   UNL     1      48.508   9.371  11.686  0.00  0.00    +0.000 A 
ATOM     18  C   UNL     1      49.510  10.288  11.391  0.00  0.00    +0.000 A 
ATOM     19  N   UNL     1      50.787   9.947  11.128  0.00  0.00    +0.000 NA
ATOM     20  C   UNL     1      51.115   8.638  11.163  0.00  0.00    +0.000 A 
ATOM     21  C   UNL     1      50.166   7.658  11.452  0.00  0.00    +0.000 A 
BRANCH  20  22
ATOM     22  C   UNL     1      52.553   8.235  10.872  0.00  0.00    +0.000 C 
ATOM     23  C   UNL     1      53.344   9.316  10.126  0.00  0.00    +0.000 C 
ATOM     24  C   UNL     1      53.033   9.362   8.630  0.00  0.00    +0.000 C 
ATOM     25  N   UNL     1      53.184   8.057   7.981  0.00  0.00    +0.000 NA
ATOM     26  C   UNL     1      52.365   7.029   8.628  0.00  0.00    +0.000 C 
ATOM     27  C   UNL     1      52.654   6.900  10.124  0.00  0.00    +0.000 C 
ATOM     28  H   UNL     1      54.160   7.779   8.003  0.00  0.00    +0.000 HD
ENDBRANCH  20  22
ENDBRANCH  15  16
ENDBRANCH   1  15
TORSDOF 5
ENDMDL
MODEL 9
REMARK VINA RESULT:    -6.533      2.258      3.121
REMARK INTER + INTRA:          -8.794
REMARK INTER:                  -8.104
REMARK INTRA:                  -0.690
REMARK UNBOUND:                -0.351
REMARK  Name = 
REMARK  5 active torsions:
REMARK  status: ('A' for Active; 'I' for Inactive)
REMARK    1  A    between atoms: C_4  and  C_5
REMARK    2  A    between atoms: C_10  and  C_11
REMARK    3  A    between atoms: C_11  and  C_12
REMARK    4  A    between atoms: C_12  and  C_13
REMARK    5  A    between atoms: C_17  and  C_18
REMARK                            x       y       z     vdW  Elec       q    Type
REMARK                         _______ _______ _______ _____ _____    ______ ____
ROOT
ATOM      1  C   UNL     1      46.033   4.529  13.868  0.00  0.00    +0.000 C 
ENDROOT
BRANCH   1   7
ATOM      2  N   UNL     1      42.114   6.189  11.737  0.00  0.00    +0.000 N 
ATOM      3  C   UNL     1      43.168   5.285  11.685  0.00  0.00    +0.000 A 
ATOM      4  C   UNL     1      43.344   4.473  10.579  0.00  0.00    +0.000 A 
ATOM      5  C   UNL     1      44.444   3.611  10.537  0.00  0.00    +0.000 A 
ATOM      6  C   UNL     1      45.333   3.612  11.618  0.00  0.00    +0.000 A 
ATOM      7  C   UNL     1      45.087   4.463  12.691  0.00  0.00    +0.000 A 
ATOM      8  N   UNL     1      44.020   5.295  12.722  0.00  0.00    +0.000 NA
ATOM      9  H   UNL     1      41.220   5.756  11.543  0.00  0.00    +0.000 HD
ATOM     10  H   UNL     1      42.138   6.623  12.657  0.00  0.00    +0.000 HD
BRANCH   5  11
ATOM     11  C   UNL     1      44.677   2.710   9.355  0.00  0.00    +0.000 C 
ATOM     12  F   UNL     1      44.237   3.230   8.176  0.00  0.00    +0.000 F 
ATOM     13  F   UNL     1      45.993   2.424   9.170  0.00  0.00    +0.000 F 
ATOM     14  F   UNL     1      44.048   1.509   9.488  0.00  0.00    +0.000 F 
ENDBRANCH   5  11
ENDBRANCH   1   7
BRANCH   1  15
ATOM     15  C   UNL     1      47.402   5.072  13.445  0.00  0.00    +0.000 C 
BRANCH  15  16
ATOM     16  C   UNL     1      47.756   6.456  13.946  0.00  0.00    +0.000 A 
ATOM     17  C   UNL     1      47.381   7.634  13.307  0.00  0.00    +0.000 A 
ATOM     18  C   UNL     1      47.733   8.846  13.891  0.00  0.00    +0.000 A 
ATOM     19  N   UNL     1      48.413   8.953  15.049  0.00  0.00    +0.000 NA
ATOM     20  C   UNL     1      48.765   7.815  15.686  0.00  0.00    +0.000 A 
ATOM     21  C   UNL     1      48.448   6.562  15.164  0.00  0.00    +0.000 A 
BRANCH  20  22
ATOM     22  C   UNL     1      49.532   7.917  16.996  0.00  0.00    +0.000 C 
ATOM     23  C   UNL     1      49.354   6.688  17.896  0.00  0.00    +0.000 C 
ATOM     24  C   UNL     1      48.024   6.684  18.651  0.00  0.00    +0.000 C 
ATOM     25  N   UNL     1      47.796   7.923  19.399  0.00  0.00    +0.000 NA
ATOM     26  C   UNL     1      47.875   9.104  18.536  0.00  0.00    +0.000 C 
ATOM     27  C   UNL     1      49.200   9.193  17.779  0.00  0.00    +0.000 C 
ATOM     28  H   UNL     1      48.482   7.999  20.145  0.00  0.00    +0.000 HD
ENDBRANCH  20  22
ENDBRANCH  15  16
ENDBRANCH   1  15
TORSDOF 5
ENDMDL
