MODEL 1
REMARK VINA RESULT:    -8.549      0.000      0.000
REMARK INTER + INTRA:         -12.433
REMARK INTER:                 -11.548
REMARK INTRA:                  -0.885
REMARK UNBOUND:                -0.885
REMARK  Name = 
REMARK  7 active torsions:
REMARK  status: ('A' for Active; 'I' for Inactive)
REMARK    1  A    between atoms: C_1  and  C_2
REMARK    2  A    between atoms: C_2  and  C_3
REMARK    3  A    between atoms: C_2  and  C_14
REMARK    4  A    between atoms: C_3  and  N_4
REMARK    5  A    between atoms: C_8  and  C_9
REMARK    6  A    between atoms: C_19  and  O_20
REMARK    7  A    between atoms: O_20  and  C_21
REMARK                            x       y       z     vdW  Elec       q    Type
REMARK                         _______ _______ _______ _____ _____    ______ ____
ROOT
ATOM      1  C   UNL     1      42.826   5.044  12.925  0.00  0.00    +0.000 C 
ATOM      2  C   UNL     1      43.970   4.216  12.327  0.00  0.00    +0.000 C 
ENDROOT
BRANCH   2   3
ATOM      3  C   UNL     1      45.305   4.901  12.643  0.00  0.00    +0.000 A 
ATOM      4  C   UNL     1      45.880   5.879  11.821  0.00  0.00    +0.000 A 
ATOM      5  C   UNL     1      47.089   6.475  12.183  0.00  0.00    +0.000 A 
ATOM      6  F   UNL     1      47.625   7.403  11.377  0.00  0.00    +0.000 F 
ATOM      7  C   UNL     1      47.756   6.122  13.353  0.00  0.00    +0.000 A 
ATOM      8  C   UNL     1      47.215   5.140  14.183  0.00  0.00    +0.000 A 
ATOM      9  C   UNL     1      45.982   4.563  13.835  0.00  0.00    +0.000 A 
BRANCH   8  10
ATOM     10  O   UNL     1      47.970   4.814  15.287  0.00  0.00    +0.000 OA
BRANCH  10  11
ATOM     11  C   UNL     1      47.338   4.003  16.290  0.00  0.00    +0.000 C 
ATOM     12  C   UNL     1      47.330   4.718  17.627  0.00  0.00    +0.000 C 
ATOM     13  C   UNL     1      48.644   4.319  18.262  0.00  0.00    +0.000 C 
ATOM     14  O   UNL     1      49.008   3.045  17.727  0.00  0.00    +0.000 OA
ATOM     15  C   UNL     1      48.150   2.750  16.614  0.00  0.00    +0.000 C 
ENDBRANCH  10  11
ENDBRANCH   8  10
ENDBRANCH   2   3
BRANCH   2  16
ATOM     16  C   UNL     1      43.745   3.930  10.820  0.00  0.00    +0.000 C 
BRANCH  16  17
ATOM     17  N   UNL     1      44.119   2.552  10.434  0.00  0.00    +0.000 N 
ATOM     18  C   UNL     1      45.018   2.515   9.344  0.00  0.00    +0.000 A 
ATOM     19  C   UNL     1      45.441   1.287   8.846  0.00  0.00    +0.000 A 
ATOM     20  C   UNL     1      46.308   1.245   7.749  0.00  0.00    +0.000 A 
ATOM     21  C   UNL     1      46.746   2.436   7.164  0.00  0.00    +0.000 A 
ATOM     22  C   UNL     1      46.296   3.610   7.738  0.00  0.00    +0.000 A 
ATOM     23  N   UNL     1      45.454   3.670   8.801  0.00  0.00    +0.000 NA
ATOM     24  H   UNL     1      43.312   1.994  10.167  0.00  0.00    +0.000 HD
BRANCH  21  25
ATOM     25  C   UNL     1      47.642   2.393   5.983  0.00  0.00    +0.000 C 
ATOM     26  N   UNL     1      47.479   3.326   4.991  0.00  0.00    +0.000 N 
ATOM     27  O   UNL     1      48.514   1.542   5.877  0.00  0.00    +0.000 OA
ATOM     28  H   UNL     1      46.794   4.065   4.969  0.00  0.00    +0.000 HD
ATOM     29  H   UNL     1      48.106   3.256   4.199  0.00  0.00    +0.000 HD
ENDBRANCH  21  25
ENDBRANCH  16  17
ENDBRANCH   2  16
TORSDOF 6
ENDMDL
MODEL 2
REMARK VINA RESULT:    -7.637      1.930      2.419
REMARK INTER + INTRA:         -11.201
REMARK INTER:                 -10.942
REMARK INTRA:                  -0.259
REMARK UNBOUND:                -0.885
REMARK  Name = 
REMARK  7 active torsions:
REMARK  status: ('A' for Active; 'I' for Inactive)
REMARK    1  A    between atoms: C_1  and  C_2
REMARK    2  A    between atoms: C_2  and  C_3
REMARK    3  A    between atoms: C_2  and  C_14
REMARK    4  A    between atoms: C_3  and  N_4
REMARK    5  A    between atoms: C_8  and  C_9
REMARK    6  A    between atoms: C_19  and  O_20
REMARK    7  A    between atoms: O_20  and  C_21
REMARK                            x       y       z     vdW  Elec       q    Type
REMARK                         _______ _______ _______ _____ _____    ______ ____
ROOT
ATOM      1  C   UNL     1      43.162   4.395  13.578  0.00  0.00    +0.000 C 
ATOM      2  C   UNL     1      44.153   4.427  12.409  0.00  0.00    +0.000 C 
ENDROOT
BRANCH   2   3
ATOM      3  C   UNL     1      45.118   5.604  12.600  0.00  0.00    +0.000 A 
ATOM      4  C   UNL     1      44.842   6.903  12.154  0.00  0.00    +0.000 A 
ATOM      5  C   UNL     1      45.759   7.930  12.381  0.00  0.00    +0.000 A 
ATOM      6  F   UNL     1      45.479   9.164  11.938  0.00  0.00    +0.000 F 
ATOM      7  C   UNL     1      46.962   7.703  13.045  0.00  0.00    +0.000 A 
ATOM      8  C   UNL     1      47.269   6.416  13.487  0.00  0.00    +0.000 A 
ATOM      9  C   UNL     1      46.333   5.388  13.287  0.00  0.00    +0.000 A 
BRANCH   8  10
ATOM     10  O   UNL     1      48.503   6.271  14.082  0.00  0.00    +0.000 OA
BRANCH  10  11
ATOM     11  C   UNL     1      48.710   6.963  15.324  0.00  0.00    +0.000 C 
ATOM     12  C   UNL     1      49.866   7.937  15.206  0.00  0.00    +0.000 C 
ATOM     13  C   UNL     1      51.080   7.109  15.569  0.00  0.00    +0.000 C 
ATOM     14  O   UNL     1      50.640   6.064  16.437  0.00  0.00    +0.000 OA
ATOM     15  C   UNL     1      49.204   6.029  16.428  0.00  0.00    +0.000 C 
ENDBRANCH  10  11
ENDBRANCH   8  10
ENDBRANCH   2   3
BRANCH   2  16
ATOM     16  C   UNL     1      43.427   4.418  11.039  0.00  0.00    +0.000 C 
BRANCH  16  17
ATOM     17  N   UNL     1      44.201   5.091   9.974  0.00  0.00    +0.000 N 
ATOM     18  C   UNL     1      44.961   4.188   9.196  0.00  0.00    +0.000 A 
ATOM     19  C   UNL     1      45.765   4.676   8.170  0.00  0.00    +0.000 A 
ATOM     20  C   UNL     1      46.540   3.788   7.417  0.00  0.00    +0.000 A 
ATOM     21  C   UNL     1      46.500   2.420   7.697  0.00  0.00    +0.000 A 
ATOM     22  C   UNL     1      45.656   2.021   8.716  0.00  0.00    +0.000 A 
ATOM     23  N   UNL     1      44.896   2.867   9.457  0.00  0.00    +0.000 NA
ATOM     24  H   UNL     1      44.852   5.778  10.346  0.00  0.00    +0.000 HD
BRANCH  21  25
ATOM     25  C   UNL     1      47.343   1.481   6.918  0.00  0.00    +0.000 C 
ATOM     26  N   UNL     1      48.539   1.925   6.413  0.00  0.00    +0.000 N 
ATOM     27  O   UNL     1      46.990   0.328   6.713  0.00  0.00    +0.000 OA
ATOM     28  H   UNL     1      48.926   2.850   6.512  0.00  0.00    +0.000 HD
ATOM     29  H   UNL     1      49.079   1.254   5.880  0.00  0.00    +0.000 HD
ENDBRANCH  21  25
ENDBRANCH  16  17
ENDBRANCH   2  16
TORSDOF 6
ENDMDL
MODEL 3
REMARK VINA RESULT:    -7.559      3.413      5.229
REMARK INTER + INTRA:         -11.096
REMARK INTER:                 -10.271
REMARK INTRA:                  -0.824
REMARK UNBOUND:                -0.885
REMARK  Name = 
REMARK  7 active torsions:
REMARK  status: ('A' for Active; 'I' for Inactive)
REMARK    1  A    between atoms: C_1  and  C_2
REMARK    2  A    between atoms: C_2  and  C_3
REMARK    3  A    between atoms: C_2  and  C_14
REMARK    4  A    between atoms: C_3  and  N_4
REMARK    5  A    between atoms: C_8  and  C_9
REMARK    6  A    between atoms: C_19  and  O_20
REMARK    7  A    between atoms: O_20  and  C_21
REMARK                            x       y       z     vdW  Elec       q    Type
REMARK                         _______ _______ _______ _____ _____    ______ ____
ROOT
ATOM      1  C   UNL     1      42.649   5.528  12.493  0.00  0.00    +0.000 C 
ATOM      2  C   UNL     1      43.947   5.052  11.830  0.00  0.00    +0.000 C 
ENDROOT
BRANCH   2   3
ATOM      3  C   UNL     1      45.000   6.163  11.934  0.00  0.00    +0.000 A 
ATOM      4  C   UNL     1      46.363   5.911  12.139  0.00  0.00    +0.000 A 
ATOM      5  C   UNL     1      47.268   6.972  12.204  0.00  0.00    +0.000 A 
ATOM      6  F   UNL     1      48.567   6.708  12.409  0.00  0.00    +0.000 F 
ATOM      7  C   UNL     1      46.855   8.295  12.071  0.00  0.00    +0.000 A 
ATOM      8  C   UNL     1      45.501   8.575  11.881  0.00  0.00    +0.000 A 
ATOM      9  C   UNL     1      44.595   7.507  11.785  0.00  0.00    +0.000 A 
BRANCH   8  10
ATOM     10  O   UNL     1      45.176   9.912  11.819  0.00  0.00    +0.000 OA
BRANCH  10  11
ATOM     11  C   UNL     1      44.172  10.292  10.864  0.00  0.00    +0.000 C 
ATOM     12  C   UNL     1      44.685  11.400   9.964  0.00  0.00    +0.000 C 
ATOM     13  C   UNL     1      44.328  12.669  10.708  0.00  0.00    +0.000 C 
ATOM     14  O   UNL     1      43.186  12.383  11.516  0.00  0.00    +0.000 OA
ATOM     15  C   UNL     1      42.970  10.963  11.526  0.00  0.00    +0.000 C 
ENDBRANCH  10  11
ENDBRANCH   8  10
ENDBRANCH   2   3
BRANCH   2  16
ATOM     16  C   UNL     1      43.702   4.544  10.387  0.00  0.00    +0.000 C 
BRANCH  16  17
ATOM     17  N   UNL     1      44.073   3.124  10.206  0.00  0.00    +0.000 N 
ATOM     18  C   UNL     1      45.002   2.931   9.159  0.00  0.00    +0.000 A 
ATOM     19  C   UNL     1      45.427   1.642   8.849  0.00  0.00    +0.000 A 
ATOM     20  C   UNL     1      46.325   1.444   7.795  0.00  0.00    +0.000 A 
ATOM     21  C   UNL     1      46.792   2.539   7.064  0.00  0.00    +0.000 A 
ATOM     22  C   UNL     1      46.338   3.785   7.457  0.00  0.00    +0.000 A 
ATOM     23  N   UNL     1      45.467   3.996   8.476  0.00  0.00    +0.000 NA
ATOM     24  H   UNL     1      43.268   2.540   9.994  0.00  0.00    +0.000 HD
BRANCH  21  25
ATOM     25  C   UNL     1      47.723   2.328   5.929  0.00  0.00    +0.000 C 
ATOM     26  N   UNL     1      47.687   3.199   4.871  0.00  0.00    +0.000 N 
ATOM     27  O   UNL     1      48.510   1.392   5.917  0.00  0.00    +0.000 OA
ATOM     28  H   UNL     1      47.078   3.996   4.769  0.00  0.00    +0.000 HD
ATOM     29  H   UNL     1      48.333   3.013   4.112  0.00  0.00    +0.000 HD
ENDBRANCH  21  25
ENDBRANCH  16  17
ENDBRANCH   2  16
TORSDOF 6
ENDMDL
MODEL 4
REMARK VINA RESULT:    -7.496      2.491      3.792
REMARK INTER + INTRA:         -11.011
REMARK INTER:                 -10.136
REMARK INTRA:                  -0.875
REMARK UNBOUND:                -0.885
REMARK  Name = 
REMARK  7 active torsions:
REMARK  status: ('A' for Active; 'I' for Inactive)
REMARK    1  A    between atoms: C_1  and  C_2
REMARK    2  A    between atoms: C_2  and  C_3
REMARK    3  A    between atoms: C_2  and  C_14
REMARK    4  A    between atoms: C_3  and  N_4
REMARK    5  A    between atoms: C_8  and  C_9
REMARK    6  A    between atoms: C_19  and  O_20
REMARK    7  A    between atoms: O_20  and  C_21
REMARK                            x       y       z     vdW  Elec       q    Type
REMARK                         _______ _______ _______ _____ _____    ______ ____
ROOT
ATOM      1  C   UNL     1      42.481   6.105  12.215  0.00  0.00    +0.000 C 
ATOM      2  C   UNL     1      43.318   4.835  12.020  0.00  0.00    +0.000 C 
ENDROOT
BRANCH   2   3
ATOM      3  C   UNL     1      44.698   5.039  12.659  0.00  0.00    +0.000 A 
ATOM      4  C   UNL     1      45.443   3.996  13.226  0.00  0.00    +0.000 A 
ATOM      5  C   UNL     1      46.701   4.254  13.772  0.00  0.00    +0.000 A 
ATOM      6  F   UNL     1      47.394   3.242  14.317  0.00  0.00    +0.000 F 
ATOM      7  C   UNL     1      47.250   5.533  13.775  0.00  0.00    +0.000 A 
ATOM      8  C   UNL     1      46.523   6.593  13.231  0.00  0.00    +0.000 A 
ATOM      9  C   UNL     1      45.271   6.329  12.653  0.00  0.00    +0.000 A 
BRANCH   8  10
ATOM     10  O   UNL     1      47.117   7.832  13.329  0.00  0.00    +0.000 OA
BRANCH  10  11
ATOM     11  C   UNL     1      47.447   8.493  12.097  0.00  0.00    +0.000 C 
ATOM     12  C   UNL     1      48.831   8.088  11.629  0.00  0.00    +0.000 C 
ATOM     13  C   UNL     1      49.750   9.084  12.304  0.00  0.00    +0.000 C 
ATOM     14  O   UNL     1      48.997  10.277  12.527  0.00  0.00    +0.000 OA
ATOM     15  C   UNL     1      47.610  10.001  12.278  0.00  0.00    +0.000 C 
ENDBRANCH  10  11
ENDBRANCH   8  10
ENDBRANCH   2   3
BRANCH   2  16
ATOM     16  C   UNL     1      43.366   4.401  10.533  0.00  0.00    +0.000 C 
BRANCH  16  17
ATOM     17  N   UNL     1      43.885   3.028  10.350  0.00  0.00    +0.000 N 
ATOM     18  C   UNL     1      44.814   2.931   9.290  0.00  0.00    +0.000 A 
ATOM     19  C   UNL     1      45.370   1.695   8.977  0.00  0.00    +0.000 A 
ATOM     20  C   UNL     1      46.269   1.590   7.910  0.00  0.00    +0.000 A 
ATOM     21  C   UNL     1      46.604   2.725   7.169  0.00  0.00    +0.000 A 
ATOM     22  C   UNL     1      46.024   3.916   7.565  0.00  0.00    +0.000 A 
ATOM     23  N   UNL     1      45.151   4.038   8.597  0.00  0.00    +0.000 NA
ATOM     24  H   UNL     1      43.144   2.360  10.153  0.00  0.00    +0.000 HD
BRANCH  21  25
ATOM     25  C   UNL     1      47.535   2.610   6.020  0.00  0.00    +0.000 C 
ATOM     26  N   UNL     1      48.857   2.342   6.261  0.00  0.00    +0.000 N 
ATOM     27  O   UNL     1      47.145   2.756   4.870  0.00  0.00    +0.000 OA
ATOM     28  H   UNL     1      49.289   2.211   7.163  0.00  0.00    +0.000 HD
ATOM     29  H   UNL     1      49.460   2.281   5.449  0.00  0.00    +0.000 HD
ENDBRANCH  21  25
ENDBRANCH  16  17
ENDBRANCH   2  16
TORSDOF 6
ENDMDL
MODEL 5
REMARK VINA RESULT:    -7.390      3.198      8.026
REMARK INTER + INTRA:         -10.868
REMARK INTER:                 -10.250
REMARK INTRA:                  -0.618
REMARK UNBOUND:                -0.885
REMARK  Name = 
REMARK  7 active torsions:
REMARK  status: ('A' for Active; 'I' for Inactive)
REMARK    1  A    between atoms: C_1  and  C_2
REMARK    2  A    between atoms: C_2  and  C_3
REMARK    3  A    between atoms: C_2  and  C_14
REMARK    4  A    between atoms: C_3  and  N_4
REMARK    5  A    between atoms: C_8  and  C_9
REMARK    6  A    between atoms: C_19  and  O_20
REMARK    7  A    between atoms: O_20  and  C_21
REMARK                            x       y       z     vdW  Elec       q    Type
REMARK                         _______ _______ _______ _____ _____    ______ ____
ROOT
ATOM      1  C   UNL     1      45.894   8.427  12.952  0.00  0.00    +0.000 C 
ATOM      2  C   UNL     1      46.390   7.463  11.868  0.00  0.00    +0.000 C 
ENDROOT
BRANCH   2   3
ATOM      3  C   UNL     1      45.304   6.413  11.594  0.00  0.00    +0.000 A 
ATOM      4  C   UNL     1      43.941   6.641  11.826  0.00  0.00    +0.000 A 
ATOM      5  C   UNL     1      43.007   5.646  11.535  0.00  0.00    +0.000 A 
ATOM      6  F   UNL     1      41.709   5.882  11.772  0.00  0.00    +0.000 F 
ATOM      7  C   UNL     1      43.391   4.412  11.015  0.00  0.00    +0.000 A 
ATOM      8  C   UNL     1      44.743   4.154  10.788  0.00  0.00    +0.000 A 
ATOM      9  C   UNL     1      45.680   5.166  11.051  0.00  0.00    +0.000 A 
BRANCH   8  10
ATOM     10  O   UNL     1      45.036   2.889  10.328  0.00  0.00    +0.000 OA
BRANCH  10  11
ATOM     11  C   UNL     1      44.673   2.592   8.970  0.00  0.00    +0.000 C 
ATOM     12  C   UNL     1      45.744   1.748   8.305  0.00  0.00    +0.000 C 
ATOM     13  C   UNL     1      46.705   2.766   7.730  0.00  0.00    +0.000 C 
ATOM     14  O   UNL     1      45.963   3.958   7.472  0.00  0.00    +0.000 OA
ATOM     15  C   UNL     1      44.670   3.839   8.088  0.00  0.00    +0.000 C 
ENDBRANCH  10  11
ENDBRANCH   8  10
ENDBRANCH   2   3
BRANCH   2  16
ATOM     16  C   UNL     1      47.776   6.865  12.220  0.00  0.00    +0.000 C 
BRANCH  16  17
ATOM     17  N   UNL     1      48.324   7.393  13.488  0.00  0.00    +0.000 N 
ATOM     18  C   UNL     1      48.214   6.475  14.556  0.00  0.00    +0.000 A 
ATOM     19  C   UNL     1      48.662   6.839  15.822  0.00  0.00    +0.000 A 
ATOM     20  C   UNL     1      48.529   5.943  16.888  0.00  0.00    +0.000 A 
ATOM     21  C   UNL     1      47.951   4.689  16.674  0.00  0.00    +0.000 A 
ATOM     22  C   UNL     1      47.557   4.401  15.381  0.00  0.00    +0.000 A 
ATOM     23  N   UNL     1      47.678   5.257  14.335  0.00  0.00    +0.000 NA
ATOM     24  H   UNL     1      47.856   8.246  13.785  0.00  0.00    +0.000 HD
BRANCH  21  25
ATOM     25  C   UNL     1      47.783   3.749  17.810  0.00  0.00    +0.000 C 
ATOM     26  N   UNL     1      46.893   2.714  17.688  0.00  0.00    +0.000 N 
ATOM     27  O   UNL     1      48.416   3.886  18.847  0.00  0.00    +0.000 OA
ATOM     28  H   UNL     1      46.315   2.510  16.888  0.00  0.00    +0.000 HD
ATOM     29  H   UNL     1      46.802   2.101  18.490  0.00  0.00    +0.000 HD
ENDBRANCH  21  25
ENDBRANCH  16  17
ENDBRANCH   2  16
TORSDOF 6
ENDMDL
MODEL 6
REMARK VINA RESULT:    -6.716      3.994      7.701
REMARK INTER + INTRA:          -9.957
REMARK INTER:                  -8.756
REMARK INTRA:                  -1.201
REMARK UNBOUND:                -0.885
REMARK  Name = 
REMARK  7 active torsions:
REMARK  status: ('A' for Active; 'I' for Inactive)
REMARK    1  A    between atoms: C_1  and  C_2
REMARK    2  A    between atoms: C_2  and  C_3
REMARK    3  A    between atoms: C_2  and  C_14
REMARK    4  A    between atoms: C_3  and  N_4
REMARK    5  A    between atoms: C_8  and  C_9
REMARK    6  A    between atoms: C_19  and  O_20
REMARK    7  A    between atoms: O_20  and  C_21
REMARK                            x       y       z     vdW  Elec       q    Type
REMARK                         _______ _______ _______ _____ _____    ______ ____
ROOT
ATOM      1  C   UNL     1      48.870   9.817  13.253  0.00  0.00    +0.000 C 
ATOM      2  C   UNL     1      48.692   8.682  12.237  0.00  0.00    +0.000 C 
ENDROOT
BRANCH   2   3
ATOM      3  C   UNL     1      47.194   8.445  12.006  0.00  0.00    +0.000 A 
ATOM      4  C   UNL     1      46.228   9.451  12.145  0.00  0.00    +0.000 A 
ATOM      5  C   UNL     1      44.884   9.167  11.899  0.00  0.00    +0.000 A 
ATOM      6  F   UNL     1      43.975  10.142  12.046  0.00  0.00    +0.000 F 
ATOM      7  C   UNL     1      44.463   7.897  11.515  0.00  0.00    +0.000 A 
ATOM      8  C   UNL     1      45.401   6.873  11.384  0.00  0.00    +0.000 A 
ATOM      9  C   UNL     1      46.758   7.165  11.601  0.00  0.00    +0.000 A 
BRANCH   8  10
ATOM     10  O   UNL     1      44.889   5.637  11.059  0.00  0.00    +0.000 OA
BRANCH  10  11
ATOM     11  C   UNL     1      45.344   4.519  11.839  0.00  0.00    +0.000 C 
ATOM     12  C   UNL     1      44.784   3.222  11.290  0.00  0.00    +0.000 C 
ATOM     13  C   UNL     1      43.459   3.065  12.004  0.00  0.00    +0.000 C 
ATOM     14  O   UNL     1      43.565   3.746  13.256  0.00  0.00    +0.000 OA
ATOM     15  C   UNL     1      44.767   4.531  13.254  0.00  0.00    +0.000 C 
ENDBRANCH  10  11
ENDBRANCH   8  10
ENDBRANCH   2   3
BRANCH   2  16
ATOM     16  C   UNL     1      49.479   7.412  12.651  0.00  0.00    +0.000 C 
BRANCH  16  17
ATOM     17  N   UNL     1      50.030   7.498  14.020  0.00  0.00    +0.000 N 
ATOM     18  C   UNL     1      49.388   6.622  14.924  0.00  0.00    +0.000 A 
ATOM     19  C   UNL     1      49.779   6.608  16.260  0.00  0.00    +0.000 A 
ATOM     20  C   UNL     1      49.126   5.763  17.164  0.00  0.00    +0.000 A 
ATOM     21  C   UNL     1      48.091   4.937  16.720  0.00  0.00    +0.000 A 
ATOM     22  C   UNL     1      47.785   4.997  15.373  0.00  0.00    +0.000 A 
ATOM     23  N   UNL     1      48.407   5.810  14.481  0.00  0.00    +0.000 NA
ATOM     24  H   UNL     1      49.949   8.433  14.411  0.00  0.00    +0.000 HD
BRANCH  21  25
ATOM     25  C   UNL     1      47.379   4.062  17.682  0.00  0.00    +0.000 C 
ATOM     26  N   UNL     1      47.705   4.134  19.012  0.00  0.00    +0.000 N 
ATOM     27  O   UNL     1      46.517   3.277  17.311  0.00  0.00    +0.000 OA
ATOM     28  H   UNL     1      48.401   4.734  19.428  0.00  0.00    +0.000 HD
ATOM     29  H   UNL     1      47.202   3.513  19.634  0.00  0.00    +0.000 HD
ENDBRANCH  21  25
ENDBRANCH  16  17
ENDBRANCH   2  16
TORSDOF 6
ENDMDL
MODEL 7
REMARK VINA RESULT:    -6.639      3.394      4.111
REMARK INTER + INTRA:          -9.853
REMARK INTER:                  -9.179
REMARK INTRA:                  -0.674
REMARK UNBOUND:                -0.885
REMARK  Name = 
REMARK  7 active torsions:
REMARK  status: ('A' for Active; 'I' for Inactive)
REMARK    1  A    between atoms: C_1  and  C_2
REMARK    2  A    between atoms: C_2  and  C_3
REMARK    3  A    between atoms: C_2  and  C_14
REMARK    4  A    between atoms: C_3  and  N_4
REMARK    5  A    between atoms: C_8  and  C_9
REMARK    6  A    between atoms: C_19  and  O_20
REMARK    7  A    between atoms: O_20  and  C_21
REMARK                            x       y       z     vdW  Elec       q    Type
REMARK                         _______ _______ _______ _____ _____    ______ ____
ROOT
ATOM      1  C   UNL     1      44.345   5.554  13.097  0.00  0.00    +0.000 C 
ATOM      2  C   UNL     1      44.904   5.952  11.726  0.00  0.00    +0.000 C 
ENDROOT
BRANCH   2   3
ATOM      3  C   UNL     1      45.165   7.464  11.710  0.00  0.00    +0.000 A 
ATOM      4  C   UNL     1      44.197   8.406  11.335  0.00  0.00    +0.000 A 
ATOM      5  C   UNL     1      44.500   9.767  11.364  0.00  0.00    +0.000 A 
ATOM      6  F   UNL     1      43.561  10.651  10.994  0.00  0.00    +0.000 F 
ATOM      7  C   UNL     1      45.753  10.230  11.756  0.00  0.00    +0.000 A 
ATOM      8  C   UNL     1      46.740   9.314  12.119  0.00  0.00    +0.000 A 
ATOM      9  C   UNL     1      46.427   7.945  12.121  0.00  0.00    +0.000 A 
BRANCH   8  10
ATOM     10  O   UNL     1      47.966   9.857  12.436  0.00  0.00    +0.000 OA
BRANCH  10  11
ATOM     11  C   UNL     1      49.022   8.935  12.750  0.00  0.00    +0.000 C 
ATOM     12  C   UNL     1      49.318   8.950  14.238  0.00  0.00    +0.000 C 
ATOM     13  C   UNL     1      50.351  10.046  14.393  0.00  0.00    +0.000 C 
ATOM     14  O   UNL     1      51.057  10.146  13.155  0.00  0.00    +0.000 OA
ATOM     15  C   UNL     1      50.363   9.373  12.164  0.00  0.00    +0.000 C 
ENDBRANCH  10  11
ENDBRANCH   8  10
ENDBRANCH   2   3
BRANCH   2  16
ATOM     16  C   UNL     1      44.001   5.452  10.570  0.00  0.00    +0.000 C 
BRANCH  16  17
ATOM     17  N   UNL     1      44.037   3.983  10.406  0.00  0.00    +0.000 N 
ATOM     18  C   UNL     1      44.940   3.567   9.401  0.00  0.00    +0.000 A 
ATOM     19  C   UNL     1      45.065   2.212   9.110  0.00  0.00    +0.000 A 
ATOM     20  C   UNL     1      45.936   1.799   8.096  0.00  0.00    +0.000 A 
ATOM     21  C   UNL     1      46.676   2.748   7.387  0.00  0.00    +0.000 A 
ATOM     22  C   UNL     1      46.509   4.069   7.758  0.00  0.00    +0.000 A 
ATOM     23  N   UNL     1      45.669   4.488   8.738  0.00  0.00    +0.000 NA
ATOM     24  H   UNL     1      43.128   3.600  10.160  0.00  0.00    +0.000 HD
BRANCH  21  25
ATOM     25  C   UNL     1      47.579   2.314   6.292  0.00  0.00    +0.000 C 
ATOM     26  N   UNL     1      47.712   3.112   5.186  0.00  0.00    +0.000 N 
ATOM     27  O   UNL     1      48.197   1.260   6.358  0.00  0.00    +0.000 OA
ATOM     28  H   UNL     1      47.249   3.992   5.020  0.00  0.00    +0.000 HD
ATOM     29  H   UNL     1      48.331   2.774   4.458  0.00  0.00    +0.000 HD
ENDBRANCH  21  25
ENDBRANCH  16  17
ENDBRANCH   2  16
TORSDOF 6
ENDMDL
MODEL 8
REMARK VINA RESULT:    -6.520      3.182      4.968
REMARK INTER + INTRA:          -9.692
REMARK INTER:                  -8.830
REMARK INTRA:                  -0.862
REMARK UNBOUND:                -0.885
REMARK  Name = 
REMARK  7 active torsions:
REMARK  status: ('A' for Active; 'I' for Inactive)
REMARK    1  A    between atoms: C_1  and  C_2
REMARK    2  A    between atoms: C_2  and  C_3
REMARK    3  A    between atoms: C_2  and  C_14
REMARK    4  A    between atoms: C_3  and  N_4
REMARK    5  A    between atoms: C_8  and  C_9
REMARK    6  A    between atoms: C_19  and  O_20
REMARK    7  A    between atoms: O_20  and  C_21
REMARK                            x       y       z     vdW  Elec       q    Type
REMARK                         _______ _______ _______ _____ _____    ______ ____
ROOT
ATOM      1  C   UNL     1      49.458   8.289  12.067  0.00  0.00    +0.000 C 
ATOM      2  C   UNL     1      48.353   8.916  12.927  0.00  0.00    +0.000 C 
ENDROOT
BRANCH   2   3
ATOM      3  C   UNL     1      48.516   8.442  14.377  0.00  0.00    +0.000 A 
ATOM      4  C   UNL     1      48.269   9.265  15.485  0.00  0.00    +0.000 A 
ATOM      5  C   UNL     1      48.419   8.760  16.777  0.00  0.00    +0.000 A 
ATOM      6  F   UNL     1      48.186   9.566  17.823  0.00  0.00    +0.000 F 
ATOM      7  C   UNL     1      48.814   7.444  17.007  0.00  0.00    +0.000 A 
ATOM      8  C   UNL     1      49.081   6.608  15.923  0.00  0.00    +0.000 A 
ATOM      9  C   UNL     1      48.900   7.106  14.622  0.00  0.00    +0.000 A 
BRANCH   8  10
ATOM     10  O   UNL     1      49.521   5.343  16.243  0.00  0.00    +0.000 OA
BRANCH  10  11
ATOM     11  C   UNL     1      48.601   4.494  16.947  0.00  0.00    +0.000 C 
ATOM     12  C   UNL     1      49.348   3.513  17.830  0.00  0.00    +0.000 C 
ATOM     13  C   UNL     1      49.606   2.329  16.922  0.00  0.00    +0.000 C 
ATOM     14  O   UNL     1      48.574   2.316  15.934  0.00  0.00    +0.000 OA
ATOM     15  C   UNL     1      47.849   3.553  16.006  0.00  0.00    +0.000 C 
ENDBRANCH  10  11
ENDBRANCH   8  10
ENDBRANCH   2   3
BRANCH   2  16
ATOM     16  C   UNL     1      46.946   8.659  12.330  0.00  0.00    +0.000 C 
BRANCH  16  17
ATOM     17  N   UNL     1      46.099   7.813  13.197  0.00  0.00    +0.000 N 
ATOM     18  C   UNL     1      45.590   6.678  12.526  0.00  0.00    +0.000 A 
ATOM     19  C   UNL     1      44.751   5.800  13.205  0.00  0.00    +0.000 A 
ATOM     20  C   UNL     1      44.223   4.690  12.535  0.00  0.00    +0.000 A 
ATOM     21  C   UNL     1      44.543   4.471  11.193  0.00  0.00    +0.000 A 
ATOM     22  C   UNL     1      45.402   5.380  10.605  0.00  0.00    +0.000 A 
ATOM     23  N   UNL     1      45.925   6.461  11.238  0.00  0.00    +0.000 NA
ATOM     24  H   UNL     1      45.297   8.319  13.566  0.00  0.00    +0.000 HD
BRANCH  21  25
ATOM     25  C   UNL     1      43.960   3.312  10.474  0.00  0.00    +0.000 C 
ATOM     26  N   UNL     1      44.268   3.129   9.150  0.00  0.00    +0.000 N 
ATOM     27  O   UNL     1      43.210   2.526  11.036  0.00  0.00    +0.000 OA
ATOM     28  H   UNL     1      44.865   3.714   8.586  0.00  0.00    +0.000 HD
ATOM     29  H   UNL     1      43.842   2.331   8.695  0.00  0.00    +0.000 HD
ENDBRANCH  21  25
ENDBRANCH  16  17
ENDBRANCH   2  16
TORSDOF 6
ENDMDL
MODEL 9
REMARK VINA RESULT:    -6.138      4.024      6.430
REMARK INTER + INTRA:          -9.177
REMARK INTER:                  -8.392
REMARK INTRA:                  -0.785
REMARK UNBOUND:                -0.885
REMARK  Name = 
REMARK  7 active torsions:
REMARK  status: ('A' for Active; 'I' for Inactive)
REMARK    1  A    between atoms: C_1  and  C_2
REMARK    2  A    between atoms: C_2  and  C_3
REMARK    3  A    between atoms: C_2  and  C_14
REMARK    4  A    between atoms: C_3  and  N_4
REMARK    5  A    between atoms: C_8  and  C_9
REMARK    6  A    between atoms: C_19  and  O_20
REMARK    7  A    between atoms: O_20  and  C_21
REMARK                            x       y       z     vdW  Elec       q    Type
REMARK                         _______ _______ _______ _____ _____    ______ ____
ROOT
ATOM      1  C   UNL     1      47.418   5.035  18.092  0.00  0.00    +0.000 C 
ATOM      2  C   UNL     1      47.761   3.696  17.428  0.00  0.00    +0.000 C 
ENDROOT
BRANCH   2   3
ATOM      3  C   UNL     1      49.271   3.450  17.542  0.00  0.00    +0.000 A 
ATOM      4  C   UNL     1      49.868   2.209  17.284  0.00  0.00    +0.000 A 
ATOM      5  C   UNL     1      51.252   2.064  17.389  0.00  0.00    +0.000 A 
ATOM      6  F   UNL     1      51.802   0.865  17.146  0.00  0.00    +0.000 F 
ATOM      7  C   UNL     1      52.074   3.130  17.747  0.00  0.00    +0.000 A 
ATOM      8  C   UNL     1      51.504   4.373  18.023  0.00  0.00    +0.000 A 
ATOM      9  C   UNL     1      50.115   4.527  17.888  0.00  0.00    +0.000 A 
BRANCH   8  10
ATOM     10  O   UNL     1      52.385   5.353  18.426  0.00  0.00    +0.000 OA
BRANCH  10  11
ATOM     11  C   UNL     1      53.458   5.671  17.526  0.00  0.00    +0.000 C 
ATOM     12  C   UNL     1      54.451   6.606  18.190  0.00  0.00    +0.000 C 
ATOM     13  C   UNL     1      53.909   7.987  17.889  0.00  0.00    +0.000 C 
ATOM     14  O   UNL     1      53.164   7.898  16.673  0.00  0.00    +0.000 OA
ATOM     15  C   UNL     1      52.987   6.512  16.341  0.00  0.00    +0.000 C 
ENDBRANCH  10  11
ENDBRANCH   8  10
ENDBRANCH   2   3
BRANCH   2  16
ATOM     16  C   UNL     1      47.212   3.615  15.981  0.00  0.00    +0.000 C 
BRANCH  16  17
ATOM     17  N   UNL     1      47.239   4.918  15.282  0.00  0.00    +0.000 N 
ATOM     18  C   UNL     1      46.599   4.876  14.022  0.00  0.00    +0.000 A 
ATOM     19  C   UNL     1      46.567   6.020  13.231  0.00  0.00    +0.000 A 
ATOM     20  C   UNL     1      45.959   5.975  11.972  0.00  0.00    +0.000 A 
ATOM     21  C   UNL     1      45.387   4.784  11.519  0.00  0.00    +0.000 A 
ATOM     22  C   UNL     1      45.442   3.704  12.379  0.00  0.00    +0.000 A 
ATOM     23  N   UNL     1      46.027   3.729  13.604  0.00  0.00    +0.000 NA
ATOM     24  H   UNL     1      48.187   5.247  15.118  0.00  0.00    +0.000 HD
BRANCH  21  25
ATOM     25  C   UNL     1      44.768   4.727  10.172  0.00  0.00    +0.000 C 
ATOM     26  N   UNL     1      43.493   5.203  10.007  0.00  0.00    +0.000 N 
ATOM     27  O   UNL     1      45.369   4.260   9.215  0.00  0.00    +0.000 OA
ATOM     28  H   UNL     1      42.903   5.601  10.721  0.00  0.00    +0.000 HD
ATOM     29  H   UNL     1      43.104   5.137   9.074  0.00  0.00    +0.000 HD
ENDBRANCH  21  25
ENDBRANCH  16  17
ENDBRANCH   2  16
TORSDOF 6
ENDMDL
