MODEL 1
REMARK VINA RESULT:    -8.949      0.000      0.000
REMARK INTER + INTRA:         -13.141
REMARK INTER:                 -12.088
REMARK INTRA:                  -1.053
REMARK UNBOUND:                -1.053
REMARK  Name = 
REMARK  6 active torsions:
REMARK  status: ('A' for Active; 'I' for Inactive)
REMARK    1  A    between atoms: C_2  and  C_19
REMARK    2  A    between atoms: N_3  and  C_4
REMARK    3  A    between atoms: C_4  and  C_5
REMARK    4  A    between atoms: C_10  and  C_11
REMARK    5  A    between atoms: C_11  and  N_12
REMARK    6  A    between atoms: N_12  and  C_13
REMARK                            x       y       z     vdW  Elec       q    Type
REMARK                         _______ _______ _______ _____ _____    ______ ____
ROOT
ATOM      1  C   UNL     1      46.392   6.500  12.305  0.00  0.00    +0.000 C 
ENDROOT
BRANCH   1   2
ATOM      2  C   UNL     1      45.089   5.811  12.010  0.00  0.00    +0.000 A 
ATOM      3  C   UNL     1      44.119   5.744  13.026  0.00  0.00    +0.000 A 
ATOM      4  C   UNL     1      42.902   5.114  12.798  0.00  0.00    +0.000 A 
ATOM      5  C   UNL     1      42.687   4.561  11.553  0.00  0.00    +0.000 A 
ATOM      6  N   UNL     1      43.577   4.624  10.539  0.00  0.00    +0.000 NA
ATOM      7  C   UNL     1      44.761   5.267  10.757  0.00  0.00    +0.000 A 
BRANCH   7   8
ATOM      8  C   UNL     1      45.693   5.331   9.553  0.00  0.00    +0.000 C 
BRANCH   8   9
ATOM      9  N   UNL     1      45.134   4.577   8.431  0.00  0.00    +0.000 N 
ATOM     10  H   UNL     1      44.803   5.204   7.696  0.00  0.00    +0.000 HD
BRANCH   9  11
ATOM     11  C   UNL     1      45.815   3.488   7.878  0.00  0.00    +0.000 A 
ATOM     12  C   UNL     1      46.751   3.577   6.841  0.00  0.00    +0.000 A 
ATOM     13  C   UNL     1      47.441   2.443   6.385  0.00  0.00    +0.000 A 
ATOM     14  C   UNL     1      47.227   1.204   6.982  0.00  0.00    +0.000 A 
ATOM     15  C   UNL     1      46.326   1.097   8.035  0.00  0.00    +0.000 A 
ATOM     16  C   UNL     1      45.632   2.229   8.475  0.00  0.00    +0.000 A 
ENDBRANCH   9  11
ENDBRANCH   8   9
ENDBRANCH   7   8
ENDBRANCH   1   2
BRANCH   1  19
ATOM     17  O   UNL     1      49.040   6.578  13.171  0.00  0.00    +0.000 OA
ATOM     18  C   UNL     1      48.161   6.340  13.995  0.00  0.00    +0.000 C 
ATOM     19  N   UNL     1      46.844   6.195  13.640  0.00  0.00    +0.000 N 
ATOM     20  H   UNL     1      46.140   6.163  14.370  0.00  0.00    +0.000 HD
BRANCH  18  21
ATOM     21  C   UNL     1      48.472   6.152  15.417  0.00  0.00    +0.000 A 
ATOM     22  C   UNL     1      49.038   7.190  16.144  0.00  0.00    +0.000 A 
ATOM     23  S   UNL     1      49.304   6.804  17.784  0.00  0.00    +0.000 S 
ATOM     24  C   UNL     1      48.639   5.247  17.584  0.00  0.00    +0.000 A 
ATOM     25  N   UNL     1      48.520   4.400  18.639  0.00  0.00    +0.000 NA
ATOM     26  C   UNL     1      47.966   3.270  18.351  0.00  0.00    +0.000 A 
ATOM     27  N   UNL     1      47.528   2.908  17.103  0.00  0.00    +0.000 N 
ATOM     28  C   UNL     1      47.670   3.716  15.999  0.00  0.00    +0.000 A 
ATOM     29  O   UNL     1      47.346   3.330  14.880  0.00  0.00    +0.000 OA
ATOM     30  C   UNL     1      48.256   5.012  16.277  0.00  0.00    +0.000 A 
ATOM     31  H   UNL     1      47.126   1.997  16.940  0.00  0.00    +0.000 HD
ENDBRANCH  18  21
ENDBRANCH   1  19
TORSDOF 6
ENDMDL
MODEL 2
REMARK VINA RESULT:    -8.748      1.338      2.220
REMARK INTER + INTRA:         -12.870
REMARK INTER:                 -11.857
REMARK INTRA:                  -1.013
REMARK UNBOUND:                -1.053
REMARK  Name = 
REMARK  6 active torsions:
REMARK  status: ('A' for Active; 'I' for Inactive)
REMARK    1  A    between atoms: C_2  and  C_19
REMARK    2  A    between atoms: N_3  and  C_4
REMARK    3  A    between atoms: C_4  and  C_5
REMARK    4  A    between atoms: C_10  and  C_11
REMARK    5  A    between atoms: C_11  and  N_12
REMARK    6  A    between atoms: N_12  and  C_13
REMARK                            x       y       z     vdW  Elec       q    Type
REMARK                         _______ _______ _______ _____ _____    ______ ____
ROOT
ATOM      1  C   UNL     1      46.610   5.042  12.514  0.00  0.00    +0.000 C 
ENDROOT
BRANCH   1   2
ATOM      2  C   UNL     1      45.141   5.098  12.197  0.00  0.00    +0.000 A 
ATOM      3  C   UNL     1      44.224   5.123  13.264  0.00  0.00    +0.000 A 
ATOM      4  C   UNL     1      42.858   5.171  13.017  0.00  0.00    +0.000 A 
ATOM      5  C   UNL     1      42.441   5.190  11.702  0.00  0.00    +0.000 A 
ATOM      6  N   UNL     1      43.284   5.195  10.648  0.00  0.00    +0.000 NA
ATOM      7  C   UNL     1      44.628   5.175  10.893  0.00  0.00    +0.000 A 
BRANCH   7   8
ATOM      8  C   UNL     1      45.511   5.223   9.652  0.00  0.00    +0.000 C 
BRANCH   8   9
ATOM      9  N   UNL     1      44.938   4.408   8.581  0.00  0.00    +0.000 N 
ATOM     10  H   UNL     1      44.466   4.991   7.889  0.00  0.00    +0.000 HD
BRANCH   9  11
ATOM     11  C   UNL     1      45.685   3.406   7.953  0.00  0.00    +0.000 A 
ATOM     12  C   UNL     1      46.544   3.614   6.868  0.00  0.00    +0.000 A 
ATOM     13  C   UNL     1      47.310   2.566   6.336  0.00  0.00    +0.000 A 
ATOM     14  C   UNL     1      47.251   1.296   6.902  0.00  0.00    +0.000 A 
ATOM     15  C   UNL     1      46.430   1.073   8.001  0.00  0.00    +0.000 A 
ATOM     16  C   UNL     1      45.659   2.120   8.518  0.00  0.00    +0.000 A 
ENDBRANCH   9  11
ENDBRANCH   8   9
ENDBRANCH   7   8
ENDBRANCH   1   2
BRANCH   1  19
ATOM     17  O   UNL     1      47.420   3.160  14.402  0.00  0.00    +0.000 OA
ATOM     18  C   UNL     1      47.320   4.333  14.750  0.00  0.00    +0.000 C 
ATOM     19  N   UNL     1      46.844   5.309  13.912  0.00  0.00    +0.000 N 
ATOM     20  H   UNL     1      46.936   6.281  14.187  0.00  0.00    +0.000 HD
BRANCH  18  21
ATOM     21  C   UNL     1      47.669   4.763  16.109  0.00  0.00    +0.000 A 
ATOM     22  C   UNL     1      47.082   4.143  17.204  0.00  0.00    +0.000 A 
ATOM     23  S   UNL     1      47.626   4.752  18.701  0.00  0.00    +0.000 S 
ATOM     24  C   UNL     1      48.691   5.841  17.937  0.00  0.00    +0.000 A 
ATOM     25  N   UNL     1      49.509   6.643  18.666  0.00  0.00    +0.000 NA
ATOM     26  C   UNL     1      50.288   7.389  17.958  0.00  0.00    +0.000 A 
ATOM     27  N   UNL     1      50.317   7.413  16.587  0.00  0.00    +0.000 N 
ATOM     28  C   UNL     1      49.476   6.652  15.810  0.00  0.00    +0.000 A 
ATOM     29  O   UNL     1      49.466   6.757  14.587  0.00  0.00    +0.000 OA
ATOM     30  C   UNL     1      48.604   5.769  16.559  0.00  0.00    +0.000 A 
ATOM     31  H   UNL     1      50.934   8.041  16.093  0.00  0.00    +0.000 HD
ENDBRANCH  18  21
ENDBRANCH   1  19
TORSDOF 6
ENDMDL
MODEL 3
REMARK VINA RESULT:    -8.432      1.958      2.712
REMARK INTER + INTRA:         -12.442
REMARK INTER:                 -11.568
REMARK INTRA:                  -0.874
REMARK UNBOUND:                -1.053
REMARK  Name = 
REMARK  6 active torsions:
REMARK  status: ('A' for Active; 'I' for Inactive)
REMARK    1  A    between atoms: C_2  and  C_19
REMARK    2  A    between atoms: N_3  and  C_4
REMARK    3  A    between atoms: C_4  and  C_5
REMARK    4  A    between atoms: C_10  and  C_11
REMARK    5  A    between atoms: C_11  and  N_12
REMARK    6  A    between atoms: N_12  and  C_13
REMARK                            x       y       z     vdW  Elec       q    Type
REMARK                         _______ _______ _______ _____ _____    ______ ____
ROOT
ATOM      1  C   UNL     1      46.332   4.387  13.996  0.00  0.00    +0.000 C 
ENDROOT
BRANCH   1   2
ATOM      2  C   UNL     1      45.897   5.534  13.127  0.00  0.00    +0.000 A 
ATOM      3  C   UNL     1      46.466   6.800  13.350  0.00  0.00    +0.000 A 
ATOM      4  C   UNL     1      46.090   7.889  12.573  0.00  0.00    +0.000 A 
ATOM      5  C   UNL     1      45.147   7.682  11.588  0.00  0.00    +0.000 A 
ATOM      6  N   UNL     1      44.594   6.480  11.320  0.00  0.00    +0.000 NA
ATOM      7  C   UNL     1      44.984   5.406  12.067  0.00  0.00    +0.000 A 
BRANCH   7   8
ATOM      8  C   UNL     1      44.345   4.079  11.675  0.00  0.00    +0.000 C 
BRANCH   8   9
ATOM      9  N   UNL     1      43.965   4.089  10.263  0.00  0.00    +0.000 N 
ATOM     10  H   UNL     1      43.618   5.008   9.983  0.00  0.00    +0.000 HD
BRANCH   9  11
ATOM     11  C   UNL     1      44.810   3.562   9.281  0.00  0.00    +0.000 A 
ATOM     12  C   UNL     1      45.544   4.327   8.367  0.00  0.00    +0.000 A 
ATOM     13  C   UNL     1      46.421   3.723   7.453  0.00  0.00    +0.000 A 
ATOM     14  C   UNL     1      46.602   2.343   7.461  0.00  0.00    +0.000 A 
ATOM     15  C   UNL     1      45.909   1.566   8.381  0.00  0.00    +0.000 A 
ATOM     16  C   UNL     1      45.025   2.174   9.280  0.00  0.00    +0.000 A 
ENDBRANCH   9  11
ENDBRANCH   8   9
ENDBRANCH   7   8
ENDBRANCH   1   2
BRANCH   1  19
ATOM     17  O   UNL     1      46.567   3.465  16.615  0.00  0.00    +0.000 OA
ATOM     18  C   UNL     1      47.418   4.241  16.189  0.00  0.00    +0.000 C 
ATOM     19  N   UNL     1      47.332   4.812  14.945  0.00  0.00    +0.000 N 
ATOM     20  H   UNL     1      48.134   5.311  14.577  0.00  0.00    +0.000 HD
BRANCH  18  21
ATOM     21  C   UNL     1      48.569   4.642  17.006  0.00  0.00    +0.000 A 
ATOM     22  C   UNL     1      48.589   5.892  17.609  0.00  0.00    +0.000 A 
ATOM     23  S   UNL     1      49.990   6.174  18.540  0.00  0.00    +0.000 S 
ATOM     24  C   UNL     1      50.602   4.621  18.196  0.00  0.00    +0.000 A 
ATOM     25  N   UNL     1      51.771   4.196  18.739  0.00  0.00    +0.000 NA
ATOM     26  C   UNL     1      52.094   2.987  18.424  0.00  0.00    +0.000 A 
ATOM     27  N   UNL     1      51.358   2.167  17.607  0.00  0.00    +0.000 N 
ATOM     28  C   UNL     1      50.192   2.571  17.000  0.00  0.00    +0.000 A 
ATOM     29  O   UNL     1      49.600   1.845  16.208  0.00  0.00    +0.000 OA
ATOM     30  C   UNL     1      49.768   3.911  17.351  0.00  0.00    +0.000 A 
ATOM     31  H   UNL     1      51.681   1.239  17.378  0.00  0.00    +0.000 HD
ENDBRANCH  18  21
ENDBRANCH   1  19
TORSDOF 6
ENDMDL
MODEL 4
REMARK VINA RESULT:    -7.760      3.258      4.866
REMARK INTER + INTRA:         -11.535
REMARK INTER:                 -11.002
REMARK INTRA:                  -0.533
REMARK UNBOUND:                -1.053
REMARK  Name = 
REMARK  6 active torsions:
REMARK  status: ('A' for Active; 'I' for Inactive)
REMARK    1  A    between atoms: C_2  and  C_19
REMARK    2  A    between atoms: N_3  and  C_4
REMARK    3  A    between atoms: C_4  and  C_5
REMARK    4  A    between atoms: C_10  and  C_11
REMARK    5  A    between atoms: C_11  and  N_12
REMARK    6  A    between atoms: N_12  and  C_13
REMARK                            x       y       z     vdW  Elec       q    Type
REMARK                         _______ _______ _______ _____ _____    ______ ____
ROOT
ATOM      1  C   UNL     1      46.592   5.495  12.519  0.00  0.00    +0.000 C 
ENDROOT
BRANCH   1   2
ATOM      2  C   UNL     1      45.150   5.274  12.155  0.00  0.00    +0.000 A 
ATOM      3  C   UNL     1      44.200   5.191  13.189  0.00  0.00    +0.000 A 
ATOM      4  C   UNL     1      42.858   4.984  12.897  0.00  0.00    +0.000 A 
ATOM      5  C   UNL     1      42.498   4.863  11.571  0.00  0.00    +0.000 A 
ATOM      6  N   UNL     1      43.369   4.964  10.545  0.00  0.00    +0.000 NA
ATOM      7  C   UNL     1      44.684   5.194  10.833  0.00  0.00    +0.000 A 
BRANCH   7   8
ATOM      8  C   UNL     1      45.595   5.336   9.619  0.00  0.00    +0.000 C 
BRANCH   8   9
ATOM      9  N   UNL     1      45.096   4.530   8.505  0.00  0.00    +0.000 N 
ATOM     10  H   UNL     1      44.824   5.120   7.718  0.00  0.00    +0.000 HD
BRANCH   9  11
ATOM     11  C   UNL     1      45.793   3.403   8.056  0.00  0.00    +0.000 A 
ATOM     12  C   UNL     1      45.646   2.114   8.582  0.00  0.00    +0.000 A 
ATOM     13  C   UNL     1      46.334   1.022   8.031  0.00  0.00    +0.000 A 
ATOM     14  C   UNL     1      47.159   1.198   6.924  0.00  0.00    +0.000 A 
ATOM     15  C   UNL     1      47.295   2.463   6.366  0.00  0.00    +0.000 A 
ATOM     16  C   UNL     1      46.617   3.549   6.928  0.00  0.00    +0.000 A 
ENDBRANCH   9  11
ENDBRANCH   8   9
ENDBRANCH   7   8
ENDBRANCH   1   2
BRANCH   1  19
ATOM     17  O   UNL     1      49.162   6.536  12.790  0.00  0.00    +0.000 OA
ATOM     18  C   UNL     1      48.256   7.293  12.455  0.00  0.00    +0.000 C 
ATOM     19  N   UNL     1      46.948   6.886  12.384  0.00  0.00    +0.000 N 
ATOM     20  H   UNL     1      46.267   7.497  11.947  0.00  0.00    +0.000 HD
BRANCH  18  21
ATOM     21  C   UNL     1      48.511   8.705  12.145  0.00  0.00    +0.000 A 
ATOM     22  C   UNL     1      49.783   9.113  11.766  0.00  0.00    +0.000 A 
ATOM     23  S   UNL     1      49.886  10.779  11.418  0.00  0.00    +0.000 S 
ATOM     24  C   UNL     1      48.226  11.006  11.730  0.00  0.00    +0.000 A 
ATOM     25  N   UNL     1      47.646  12.222  11.565  0.00  0.00    +0.000 NA
ATOM     26  C   UNL     1      46.377  12.241  11.800  0.00  0.00    +0.000 A 
ATOM     27  N   UNL     1      45.637  11.155  12.193  0.00  0.00    +0.000 N 
ATOM     28  C   UNL     1      46.191   9.917  12.415  0.00  0.00    +0.000 A 
ATOM     29  O   UNL     1      45.520   8.985  12.848  0.00  0.00    +0.000 OA
ATOM     30  C   UNL     1      47.610   9.835  12.131  0.00  0.00    +0.000 A 
ATOM     31  H   UNL     1      44.651  11.244  12.386  0.00  0.00    +0.000 HD
ENDBRANCH  18  21
ENDBRANCH   1  19
TORSDOF 6
ENDMDL
MODEL 5
REMARK VINA RESULT:    -7.468      3.281      4.973
REMARK INTER + INTRA:         -11.141
REMARK INTER:                 -10.511
REMARK INTRA:                  -0.630
REMARK UNBOUND:                -1.053
REMARK  Name = 
REMARK  6 active torsions:
REMARK  status: ('A' for Active; 'I' for Inactive)
REMARK    1  A    between atoms: C_2  and  C_19
REMARK    2  A    between atoms: N_3  and  C_4
REMARK    3  A    between atoms: C_4  and  C_5
REMARK    4  A    between atoms: C_10  and  C_11
REMARK    5  A    between atoms: C_11  and  N_12
REMARK    6  A    between atoms: N_12  and  C_13
REMARK                            x       y       z     vdW  Elec       q    Type
REMARK                         _______ _______ _______ _____ _____    ______ ____
ROOT
ATOM      1  C   UNL     1      46.651   5.528  12.483  0.00  0.00    +0.000 C 
ENDROOT
BRANCH   1   2
ATOM      2  C   UNL     1      45.197   5.355  12.138  0.00  0.00    +0.000 A 
ATOM      3  C   UNL     1      44.258   5.318  13.184  0.00  0.00    +0.000 A 
ATOM      4  C   UNL     1      42.905   5.155  12.910  0.00  0.00    +0.000 A 
ATOM      5  C   UNL     1      42.526   5.031  11.590  0.00  0.00    +0.000 A 
ATOM      6  N   UNL     1      43.388   5.088  10.553  0.00  0.00    +0.000 NA
ATOM      7  C   UNL     1      44.713   5.274  10.822  0.00  0.00    +0.000 A 
BRANCH   7   8
ATOM      8  C   UNL     1      45.614   5.368   9.597  0.00  0.00    +0.000 C 
BRANCH   8   9
ATOM      9  N   UNL     1      45.094   4.538   8.511  0.00  0.00    +0.000 N 
ATOM     10  H   UNL     1      44.779   5.112   7.728  0.00  0.00    +0.000 HD
BRANCH   9  11
ATOM     11  C   UNL     1      45.799   3.422   8.050  0.00  0.00    +0.000 A 
ATOM     12  C   UNL     1      45.667   2.127   8.565  0.00  0.00    +0.000 A 
ATOM     13  C   UNL     1      46.363   1.047   8.002  0.00  0.00    +0.000 A 
ATOM     14  C   UNL     1      47.181   1.239   6.892  0.00  0.00    +0.000 A 
ATOM     15  C   UNL     1      47.302   2.510   6.344  0.00  0.00    +0.000 A 
ATOM     16  C   UNL     1      46.616   3.586   6.919  0.00  0.00    +0.000 A 
ENDBRANCH   9  11
ENDBRANCH   8   9
ENDBRANCH   7   8
ENDBRANCH   1   2
BRANCH   1  19
ATOM     17  O   UNL     1      49.196   6.533  13.008  0.00  0.00    +0.000 OA
ATOM     18  C   UNL     1      48.354   7.290  12.535  0.00  0.00    +0.000 C 
ATOM     19  N   UNL     1      47.054   6.904  12.328  0.00  0.00    +0.000 N 
ATOM     20  H   UNL     1      46.443   7.506  11.786  0.00  0.00    +0.000 HD
BRANCH  18  21
ATOM     21  C   UNL     1      48.677   8.680  12.194  0.00  0.00    +0.000 A 
ATOM     22  C   UNL     1      47.817   9.704  12.568  0.00  0.00    +0.000 A 
ATOM     23  S   UNL     1      48.366  11.253  12.113  0.00  0.00    +0.000 S 
ATOM     24  C   UNL     1      49.790  10.611  11.431  0.00  0.00    +0.000 A 
ATOM     25  N   UNL     1      50.737  11.426  10.901  0.00  0.00    +0.000 NA
ATOM     26  C   UNL     1      51.779  10.809  10.454  0.00  0.00    +0.000 A 
ATOM     27  N   UNL     1      51.955   9.448  10.482  0.00  0.00    +0.000 N 
ATOM     28  C   UNL     1      51.003   8.583  10.968  0.00  0.00    +0.000 A 
ATOM     29  O   UNL     1      51.153   7.367  10.902  0.00  0.00    +0.000 OA
ATOM     30  C   UNL     1      49.828   9.231  11.514  0.00  0.00    +0.000 A 
ATOM     31  H   UNL     1      52.784   9.026  10.092  0.00  0.00    +0.000 HD
ENDBRANCH  18  21
ENDBRANCH   1  19
TORSDOF 6
ENDMDL
MODEL 6
REMARK VINA RESULT:    -7.450      2.275      3.535
REMARK INTER + INTRA:         -11.117
REMARK INTER:                 -10.188
REMARK INTRA:                  -0.929
REMARK UNBOUND:                -1.053
REMARK  Name = 
REMARK  6 active torsions:
REMARK  status: ('A' for Active; 'I' for Inactive)
REMARK    1  A    between atoms: C_2  and  C_19
REMARK    2  A    between atoms: N_3  and  C_4
REMARK    3  A    between atoms: C_4  and  C_5
REMARK    4  A    between atoms: C_10  and  C_11
REMARK    5  A    between atoms: C_11  and  N_12
REMARK    6  A    between atoms: N_12  and  C_13
REMARK                            x       y       z     vdW  Elec       q    Type
REMARK                         _______ _______ _______ _____ _____    ______ ____
ROOT
ATOM      1  C   UNL     1      46.652   6.376  11.668  0.00  0.00    +0.000 C 
ENDROOT
BRANCH   1   2
ATOM      2  C   UNL     1      45.274   5.777  11.719  0.00  0.00    +0.000 A 
ATOM      3  C   UNL     1      44.521   5.921  12.898  0.00  0.00    +0.000 A 
ATOM      4  C   UNL     1      43.244   5.380  12.989  0.00  0.00    +0.000 A 
ATOM      5  C   UNL     1      42.752   4.702  11.893  0.00  0.00    +0.000 A 
ATOM      6  N   UNL     1      43.427   4.562  10.732  0.00  0.00    +0.000 NA
ATOM      7  C   UNL     1      44.671   5.118  10.635  0.00  0.00    +0.000 A 
BRANCH   7   8
ATOM      8  C   UNL     1      45.348   4.951   9.280  0.00  0.00    +0.000 C 
BRANCH   8   9
ATOM      9  N   UNL     1      44.878   3.736   8.617  0.00  0.00    +0.000 N 
ATOM     10  H   UNL     1      43.992   3.899   8.137  0.00  0.00    +0.000 HD
BRANCH   9  11
ATOM     11  C   UNL     1      45.733   2.966   7.822  0.00  0.00    +0.000 A 
ATOM     12  C   UNL     1      46.382   3.428   6.671  0.00  0.00    +0.000 A 
ATOM     13  C   UNL     1      47.277   2.611   5.964  0.00  0.00    +0.000 A 
ATOM     14  C   UNL     1      47.562   1.325   6.416  0.00  0.00    +0.000 A 
ATOM     15  C   UNL     1      46.954   0.857   7.575  0.00  0.00    +0.000 A 
ATOM     16  C   UNL     1      46.052   1.672   8.267  0.00  0.00    +0.000 A 
ENDBRANCH   9  11
ENDBRANCH   8   9
ENDBRANCH   7   8
ENDBRANCH   1   2
BRANCH   1  19
ATOM     17  O   UNL     1      49.169   6.246  12.855  0.00  0.00    +0.000 OA
ATOM     18  C   UNL     1      48.295   6.909  13.406  0.00  0.00    +0.000 C 
ATOM     19  N   UNL     1      47.007   6.956  12.940  0.00  0.00    +0.000 N 
ATOM     20  H   UNL     1      46.368   7.641  13.329  0.00  0.00    +0.000 HD
BRANCH  18  21
ATOM     21  C   UNL     1      48.567   7.668  14.633  0.00  0.00    +0.000 A 
ATOM     22  C   UNL     1      48.837   6.996  15.818  0.00  0.00    +0.000 A 
ATOM     23  S   UNL     1      49.155   8.037  17.130  0.00  0.00    +0.000 S 
ATOM     24  C   UNL     1      48.977   9.421  16.151  0.00  0.00    +0.000 A 
ATOM     25  N   UNL     1      49.174  10.664  16.659  0.00  0.00    +0.000 NA
ATOM     26  C   UNL     1      49.043  11.616  15.798  0.00  0.00    +0.000 A 
ATOM     27  N   UNL     1      48.724  11.438  14.476  0.00  0.00    +0.000 N 
ATOM     28  C   UNL     1      48.472  10.201  13.930  0.00  0.00    +0.000 A 
ATOM     29  O   UNL     1      48.106  10.080  12.765  0.00  0.00    +0.000 OA
ATOM     30  C   UNL     1      48.641   9.094  14.850  0.00  0.00    +0.000 A 
ATOM     31  H   UNL     1      48.611  12.228  13.859  0.00  0.00    +0.000 HD
ENDBRANCH  18  21
ENDBRANCH   1  19
TORSDOF 6
ENDMDL
MODEL 7
REMARK VINA RESULT:    -7.358      1.564      2.465
REMARK INTER + INTRA:         -10.992
REMARK INTER:                 -10.011
REMARK INTRA:                  -0.981
REMARK UNBOUND:                -1.053
REMARK  Name = 
REMARK  6 active torsions:
REMARK  status: ('A' for Active; 'I' for Inactive)
REMARK    1  A    between atoms: C_2  and  C_19
REMARK    2  A    between atoms: N_3  and  C_4
REMARK    3  A    between atoms: C_4  and  C_5
REMARK    4  A    between atoms: C_10  and  C_11
REMARK    5  A    between atoms: C_11  and  N_12
REMARK    6  A    between atoms: N_12  and  C_13
REMARK                            x       y       z     vdW  Elec       q    Type
REMARK                         _______ _______ _______ _____ _____    ______ ____
ROOT
ATOM      1  C   UNL     1      47.233   5.953  12.892  0.00  0.00    +0.000 C 
ENDROOT
BRANCH   1   2
ATOM      2  C   UNL     1      46.304   7.030  12.406  0.00  0.00    +0.000 A 
ATOM      3  C   UNL     1      46.725   8.370  12.491  0.00  0.00    +0.000 A 
ATOM      4  C   UNL     1      45.897   9.398  12.057  0.00  0.00    +0.000 A 
ATOM      5  C   UNL     1      44.661   9.057  11.549  0.00  0.00    +0.000 A 
ATOM      6  N   UNL     1      44.225   7.785  11.423  0.00  0.00    +0.000 NA
ATOM      7  C   UNL     1      45.052   6.775  11.825  0.00  0.00    +0.000 A 
BRANCH   7   8
ATOM      8  C   UNL     1      44.504   5.369  11.612  0.00  0.00    +0.000 C 
BRANCH   8   9
ATOM      9  N   UNL     1      44.217   5.139  10.196  0.00  0.00    +0.000 N 
ATOM     10  H   UNL     1      44.213   6.016   9.675  0.00  0.00    +0.000 HD
BRANCH   9  11
ATOM     11  C   UNL     1      44.881   4.141   9.475  0.00  0.00    +0.000 A 
ATOM     12  C   UNL     1      44.698   2.766   9.662  0.00  0.00    +0.000 A 
ATOM     13  C   UNL     1      45.355   1.829   8.851  0.00  0.00    +0.000 A 
ATOM     14  C   UNL     1      46.185   2.253   7.817  0.00  0.00    +0.000 A 
ATOM     15  C   UNL     1      46.357   3.614   7.592  0.00  0.00    +0.000 A 
ATOM     16  C   UNL     1      45.709   4.543   8.413  0.00  0.00    +0.000 A 
ENDBRANCH   9  11
ENDBRANCH   8   9
ENDBRANCH   7   8
ENDBRANCH   1   2
BRANCH   1  19
ATOM     17  O   UNL     1      49.610   6.898  13.996  0.00  0.00    +0.000 OA
ATOM     18  C   UNL     1      48.672   6.652  14.749  0.00  0.00    +0.000 C 
ATOM     19  N   UNL     1      47.498   6.101  14.302  0.00  0.00    +0.000 N 
ATOM     20  H   UNL     1      46.701   6.070  14.928  0.00  0.00    +0.000 HD
BRANCH  18  21
ATOM     21  C   UNL     1      48.762   6.897  16.193  0.00  0.00    +0.000 A 
ATOM     22  C   UNL     1      48.872   8.196  16.670  0.00  0.00    +0.000 A 
ATOM     23  S   UNL     1      48.937   8.292  18.371  0.00  0.00    +0.000 S 
ATOM     24  C   UNL     1      48.786   6.602  18.530  0.00  0.00    +0.000 A 
ATOM     25  N   UNL     1      48.723   6.019  19.754  0.00  0.00    +0.000 NA
ATOM     26  C   UNL     1      48.571   4.738  19.725  0.00  0.00    +0.000 A 
ATOM     27  N   UNL     1      48.486   3.985  18.582  0.00  0.00    +0.000 N 
ATOM     28  C   UNL     1      48.589   4.527  17.323  0.00  0.00    +0.000 A 
ATOM     29  O   UNL     1      48.594   3.819  16.321  0.00  0.00    +0.000 OA
ATOM     30  C   UNL     1      48.726   5.970  17.301  0.00  0.00    +0.000 A 
ATOM     31  H   UNL     1      48.393   2.982  18.629  0.00  0.00    +0.000 HD
ENDBRANCH  18  21
ENDBRANCH   1  19
TORSDOF 6
ENDMDL
MODEL 8
REMARK VINA RESULT:    -7.320      3.054      8.214
REMARK INTER + INTRA:         -10.940
REMARK INTER:                  -9.741
REMARK INTRA:                  -1.199
REMARK UNBOUND:                -1.053
REMARK  Name = 
REMARK  6 active torsions:
REMARK  status: ('A' for Active; 'I' for Inactive)
REMARK    1  A    between atoms: C_2  and  C_19
REMARK    2  A    between atoms: N_3  and  C_4
REMARK    3  A    between atoms: C_4  and  C_5
REMARK    4  A    between atoms: C_10  and  C_11
REMARK    5  A    between atoms: C_11  and  N_12
REMARK    6  A    between atoms: N_12  and  C_13
REMARK                            x       y       z     vdW  Elec       q    Type
REMARK                         _______ _______ _______ _____ _____    ______ ____
ROOT
ATOM      1  C   UNL     1      47.964   4.293  16.144  0.00  0.00    +0.000 C 
ENDROOT
BRANCH   1   2
ATOM      2  C   UNL     1      48.073   5.177  17.355  0.00  0.00    +0.000 A 
ATOM      3  C   UNL     1      46.939   5.345  18.170  0.00  0.00    +0.000 A 
ATOM      4  C   UNL     1      46.995   6.156  19.297  0.00  0.00    +0.000 A 
ATOM      5  C   UNL     1      48.190   6.784  19.580  0.00  0.00    +0.000 A 
ATOM      6  N   UNL     1      49.311   6.632  18.842  0.00  0.00    +0.000 NA
ATOM      7  C   UNL     1      49.261   5.813  17.751  0.00  0.00    +0.000 A 
BRANCH   7   8
ATOM      8  C   UNL     1      50.577   5.662  16.997  0.00  0.00    +0.000 C 
BRANCH   8   9
ATOM      9  N   UNL     1      51.591   5.046  17.851  0.00  0.00    +0.000 N 
ATOM     10  H   UNL     1      51.521   5.389  18.810  0.00  0.00    +0.000 HD
BRANCH   9  11
ATOM     11  C   UNL     1      51.809   3.664  17.838  0.00  0.00    +0.000 A 
ATOM     12  C   UNL     1      50.878   2.715  17.399  0.00  0.00    +0.000 A 
ATOM     13  C   UNL     1      51.198   1.349  17.356  0.00  0.00    +0.000 A 
ATOM     14  C   UNL     1      52.468   0.914  17.723  0.00  0.00    +0.000 A 
ATOM     15  C   UNL     1      53.418   1.841  18.132  0.00  0.00    +0.000 A 
ATOM     16  C   UNL     1      53.088   3.200  18.185  0.00  0.00    +0.000 A 
ENDBRANCH   9  11
ENDBRANCH   8   9
ENDBRANCH   7   8
ENDBRANCH   1   2
BRANCH   1  19
ATOM     17  O   UNL     1      48.513   5.876  13.918  0.00  0.00    +0.000 OA
ATOM     18  C   UNL     1      47.356   5.511  14.106  0.00  0.00    +0.000 C 
ATOM     19  N   UNL     1      46.981   4.806  15.221  0.00  0.00    +0.000 N 
ATOM     20  H   UNL     1      46.058   4.389  15.250  0.00  0.00    +0.000 HD
BRANCH  18  21
ATOM     21  C   UNL     1      46.284   5.844  13.161  0.00  0.00    +0.000 A 
ATOM     22  C   UNL     1      46.013   7.173  12.860  0.00  0.00    +0.000 A 
ATOM     23  S   UNL     1      44.756   7.369  11.725  0.00  0.00    +0.000 S 
ATOM     24  C   UNL     1      44.553   5.684  11.572  0.00  0.00    +0.000 A 
ATOM     25  N   UNL     1      43.649   5.167  10.700  0.00  0.00    +0.000 NA
ATOM     26  C   UNL     1      43.629   3.877  10.660  0.00  0.00    +0.000 A 
ATOM     27  N   UNL     1      44.424   3.057  11.420  0.00  0.00    +0.000 N 
ATOM     28  C   UNL     1      45.320   3.536  12.346  0.00  0.00    +0.000 A 
ATOM     29  O   UNL     1      45.956   2.778  13.070  0.00  0.00    +0.000 OA
ATOM     30  C   UNL     1      45.406   4.982  12.404  0.00  0.00    +0.000 A 
ATOM     31  H   UNL     1      44.339   2.053  11.359  0.00  0.00    +0.000 HD
ENDBRANCH  18  21
ENDBRANCH   1  19
TORSDOF 6
ENDMDL
MODEL 9
REMARK VINA RESULT:    -7.137      3.134      8.810
REMARK INTER + INTRA:         -10.693
REMARK INTER:                  -9.438
REMARK INTRA:                  -1.255
REMARK UNBOUND:                -1.053
REMARK  Name = 
REMARK  6 active torsions:
REMARK  status: ('A' for Active; 'I' for Inactive)
REMARK    1  A    between atoms: C_2  and  C_19
REMARK    2  A    between atoms: N_3  and  C_4
REMARK    3  A    between atoms: C_4  and  C_5
REMARK    4  A    between atoms: C_10  and  C_11
REMARK    5  A    between atoms: C_11  and  N_12
REMARK    6  A    between atoms: N_12  and  C_13
REMARK                            x       y       z     vdW  Elec       q    Type
REMARK                         _______ _______ _______ _____ _____    ______ ____
ROOT
ATOM      1  C   UNL     1      48.808   6.382  15.709  0.00  0.00    +0.000 C 
ENDROOT
BRANCH   1   2
ATOM      2  C   UNL     1      48.721   5.298  16.747  0.00  0.00    +0.000 A 
ATOM      3  C   UNL     1      47.696   4.342  16.636  0.00  0.00    +0.000 A 
ATOM      4  C   UNL     1      47.576   3.325  17.576  0.00  0.00    +0.000 A 
ATOM      5  C   UNL     1      48.490   3.293  18.609  0.00  0.00    +0.000 A 
ATOM      6  N   UNL     1      49.505   4.172  18.741  0.00  0.00    +0.000 NA
ATOM      7  C   UNL     1      49.637   5.155  17.802  0.00  0.00    +0.000 A 
BRANCH   7   8
ATOM      8  C   UNL     1      50.831   6.081  17.998  0.00  0.00    +0.000 C 
BRANCH   8   9
ATOM      9  N   UNL     1      50.641   6.921  19.181  0.00  0.00    +0.000 N 
ATOM     10  H   UNL     1      51.455   7.513  19.345  0.00  0.00    +0.000 HD
BRANCH   9  11
ATOM     11  C   UNL     1      49.459   7.644  19.373  0.00  0.00    +0.000 A 
ATOM     12  C   UNL     1      48.553   7.427  20.418  0.00  0.00    +0.000 A 
ATOM     13  C   UNL     1      47.422   8.241  20.579  0.00  0.00    +0.000 A 
ATOM     14  C   UNL     1      47.195   9.308  19.714  0.00  0.00    +0.000 A 
ATOM     15  C   UNL     1      48.098   9.562  18.689  0.00  0.00    +0.000 A 
ATOM     16  C   UNL     1      49.217   8.738  18.526  0.00  0.00    +0.000 A 
ENDBRANCH   9  11
ENDBRANCH   8   9
ENDBRANCH   7   8
ENDBRANCH   1   2
BRANCH   1  19
ATOM     17  O   UNL     1      48.785   6.085  12.938  0.00  0.00    +0.000 OA
ATOM     18  C   UNL     1      47.711   6.156  13.528  0.00  0.00    +0.000 C 
ATOM     19  N   UNL     1      47.629   6.392  14.877  0.00  0.00    +0.000 N 
ATOM     20  H   UNL     1      46.735   6.278  15.342  0.00  0.00    +0.000 HD
BRANCH  18  21
ATOM     21  C   UNL     1      46.434   6.034  12.815  0.00  0.00    +0.000 A 
ATOM     22  C   UNL     1      45.840   7.160  12.260  0.00  0.00    +0.000 A 
ATOM     23  S   UNL     1      44.379   6.824  11.448  0.00  0.00    +0.000 S 
ATOM     24  C   UNL     1      44.508   5.158  11.781  0.00  0.00    +0.000 A 
ATOM     25  N   UNL     1      43.585   4.280  11.312  0.00  0.00    +0.000 NA
ATOM     26  C   UNL     1      43.828   3.047  11.607  0.00  0.00    +0.000 A 
ATOM     27  N   UNL     1      44.906   2.614  12.337  0.00  0.00    +0.000 N 
ATOM     28  C   UNL     1      45.839   3.472  12.868  0.00  0.00    +0.000 A 
ATOM     29  O   UNL     1      46.746   3.063  13.587  0.00  0.00    +0.000 OA
ATOM     30  C   UNL     1      45.630   4.866  12.534  0.00  0.00    +0.000 A 
ATOM     31  H   UNL     1      45.023   1.636  12.555  0.00  0.00    +0.000 HD
ENDBRANCH  18  21
ENDBRANCH   1  19
TORSDOF 6
ENDMDL
