MODEL 1
REMARK VINA RESULT:    -7.234      0.000      0.000
REMARK INTER + INTRA:          -9.716
REMARK INTER:                  -8.926
REMARK INTRA:                  -0.790
REMARK UNBOUND:                -0.790
REMARK  Name = 
REMARK  4 active torsions:
REMARK  status: ('A' for Active; 'I' for Inactive)
REMARK    1  A    between atoms: C_2  and  C_5
REMARK    2  A    between atoms: N_11  and  C_12
REMARK    3  A    between atoms: C_12  and  C_13
REMARK    4  A    between atoms: C_17  and  C_18
REMARK                            x       y       z     vdW  Elec       q    Type
REMARK                         _______ _______ _______ _____ _____    ______ ____
ROOT
ATOM      1  C   UNL     1      48.426   5.253  19.031  0.00  0.00    +0.000 A 
ATOM      2  N   UNL     1      48.664   3.989  18.581  0.00  0.00    +0.000 NA
ATOM      3  C   UNL     1      48.863   3.859  17.268  0.00  0.00    +0.000 A 
ATOM      4 CL   UNL     1      49.150   2.281  16.694  0.00  0.00    +0.000 Cl
ATOM      5  N   UNL     1      48.848   4.837  16.355  0.00  0.00    +0.000 NA
ATOM      6  C   UNL     1      48.599   6.079  16.806  0.00  0.00    +0.000 A 
ATOM      7  N   UNL     1      48.633   7.150  15.899  0.00  0.00    +0.000 N 
ATOM      8  C   UNL     1      48.379   6.337  18.168  0.00  0.00    +0.000 A 
ATOM      9 CL   UNL     1      48.068   7.948  18.715  0.00  0.00    +0.000 Cl
ATOM     10  H   UNL     1      47.842   7.774  16.037  0.00  0.00    +0.000 HD
ENDROOT
BRANCH   1  12
ATOM     11  F   UNL     1      49.071   6.363  21.071  0.00  0.00    +0.000 F 
ATOM     12  C   UNL     1      48.218   5.453  20.518  0.00  0.00    +0.000 C 
ATOM     13  F   UNL     1      48.399   4.309  21.240  0.00  0.00    +0.000 F 
ATOM     14  F   UNL     1      46.967   5.902  20.825  0.00  0.00    +0.000 F 
ENDBRANCH   1  12
BRANCH   7  15
ATOM     15  C   UNL     1      48.862   6.829  14.501  0.00  0.00    +0.000 C 
BRANCH  15  16
ATOM     16  C   UNL     1      47.577   7.058  13.735  0.00  0.00    +0.000 A 
ATOM     17  C   UNL     1      47.064   8.350  13.580  0.00  0.00    +0.000 A 
ATOM     18  C   UNL     1      45.882   8.554  12.873  0.00  0.00    +0.000 A 
ATOM     19  C   UNL     1      45.194   7.468  12.326  0.00  0.00    +0.000 A 
ATOM     20  C   UNL     1      45.653   6.149  12.486  0.00  0.00    +0.000 A 
ATOM     21  C   UNL     1      46.855   5.972  13.204  0.00  0.00    +0.000 A 
BRANCH  20  22
ATOM     22  C   UNL     1      44.904   4.992  11.936  0.00  0.00    +0.000 A 
ATOM     23  C   UNL     1      44.903   4.701  10.564  0.00  0.00    +0.000 A 
ATOM     24  C   UNL     1      44.211   3.593  10.098  0.00  0.00    +0.000 A 
ATOM     25  N   UNL     1      43.508   2.759  10.888  0.00  0.00    +0.000 NA
ATOM     26  C   UNL     1      43.499   3.049  12.203  0.00  0.00    +0.000 A 
ATOM     27  C   UNL     1      44.170   4.129  12.762  0.00  0.00    +0.000 A 
ENDBRANCH  20  22
ENDBRANCH  15  16
ENDBRANCH   7  15
TORSDOF 4
ENDMDL
MODEL 2
REMARK VINA RESULT:    -7.137      5.533      7.362
REMARK INTER + INTRA:          -9.596
REMARK INTER:                  -8.946
REMARK INTRA:                  -0.650
REMARK UNBOUND:                -0.790
REMARK  Name = 
REMARK  4 active torsions:
REMARK  status: ('A' for Active; 'I' for Inactive)
REMARK    1  A    between atoms: C_2  and  C_5
REMARK    2  A    between atoms: N_11  and  C_12
REMARK    3  A    between atoms: C_12  and  C_13
REMARK    4  A    between atoms: C_17  and  C_18
REMARK                            x       y       z     vdW  Elec       q    Type
REMARK                         _______ _______ _______ _____ _____    ______ ____
ROOT
ATOM      1  C   UNL     1      46.835  10.169  12.155  0.00  0.00    +0.000 A 
ATOM      2  N   UNL     1      45.835  11.017  11.782  0.00  0.00    +0.000 NA
ATOM      3  C   UNL     1      44.682  10.445  11.428  0.00  0.00    +0.000 A 
ATOM      4 CL   UNL     1      43.429  11.495  10.948  0.00  0.00    +0.000 Cl
ATOM      5  N   UNL     1      44.412   9.135  11.398  0.00  0.00    +0.000 NA
ATOM      6  C   UNL     1      45.410   8.306  11.755  0.00  0.00    +0.000 A 
ATOM      7  N   UNL     1      45.161   6.925  11.800  0.00  0.00    +0.000 N 
ATOM      8  C   UNL     1      46.665   8.793  12.151  0.00  0.00    +0.000 A 
ATOM      9 CL   UNL     1      47.923   7.699  12.610  0.00  0.00    +0.000 Cl
ATOM     10  H   UNL     1      45.917   6.401  11.367  0.00  0.00    +0.000 HD
ENDROOT
BRANCH   1  12
ATOM     11  F   UNL     1      48.130  12.134  12.677  0.00  0.00    +0.000 F 
ATOM     12  C   UNL     1      48.155  10.772  12.590  0.00  0.00    +0.000 C 
ATOM     13  F   UNL     1      49.178  10.487  11.733  0.00  0.00    +0.000 F 
ATOM     14  F   UNL     1      48.558  10.342  13.820  0.00  0.00    +0.000 F 
ENDBRANCH   1  12
BRANCH   7  15
ATOM     15  C   UNL     1      43.847   6.473  11.377  0.00  0.00    +0.000 C 
BRANCH  15  16
ATOM     16  C   UNL     1      43.928   5.002  11.030  0.00  0.00    +0.000 A 
ATOM     17  C   UNL     1      43.258   4.052  11.807  0.00  0.00    +0.000 A 
ATOM     18  C   UNL     1      43.337   2.701  11.483  0.00  0.00    +0.000 A 
ATOM     19  C   UNL     1      44.097   2.284  10.386  0.00  0.00    +0.000 A 
ATOM     20  C   UNL     1      44.815   3.200   9.598  0.00  0.00    +0.000 A 
ATOM     21  C   UNL     1      44.715   4.563   9.948  0.00  0.00    +0.000 A 
BRANCH  20  22
ATOM     22  C   UNL     1      45.651   2.754   8.456  0.00  0.00    +0.000 A 
ATOM     23  C   UNL     1      46.140   1.442   8.370  0.00  0.00    +0.000 A 
ATOM     24  C   UNL     1      46.895   1.062   7.270  0.00  0.00    +0.000 A 
ATOM     25  N   UNL     1      47.214   1.889   6.255  0.00  0.00    +0.000 NA
ATOM     26  C   UNL     1      46.755   3.151   6.348  0.00  0.00    +0.000 A 
ATOM     27  C   UNL     1      45.984   3.619   7.405  0.00  0.00    +0.000 A 
ENDBRANCH  20  22
ENDBRANCH  15  16
ENDBRANCH   7  15
TORSDOF 4
ENDMDL
MODEL 3
REMARK VINA RESULT:    -7.102      2.895      4.613
REMARK INTER + INTRA:          -9.553
REMARK INTER:                  -8.878
REMARK INTRA:                  -0.675
REMARK UNBOUND:                -0.790
REMARK  Name = 
REMARK  4 active torsions:
REMARK  status: ('A' for Active; 'I' for Inactive)
REMARK    1  A    between atoms: C_2  and  C_5
REMARK    2  A    between atoms: N_11  and  C_12
REMARK    3  A    between atoms: C_12  and  C_13
REMARK    4  A    between atoms: C_17  and  C_18
REMARK                            x       y       z     vdW  Elec       q    Type
REMARK                         _______ _______ _______ _____ _____    ______ ____
ROOT
ATOM      1  C   UNL     1      48.946   5.683  15.954  0.00  0.00    +0.000 A 
ATOM      2  N   UNL     1      49.546   6.649  15.204  0.00  0.00    +0.000 NA
ATOM      3  C   UNL     1      48.886   7.039  14.111  0.00  0.00    +0.000 A 
ATOM      4 CL   UNL     1      49.632   8.239  13.159  0.00  0.00    +0.000 Cl
ATOM      5  N   UNL     1      47.708   6.576  13.678  0.00  0.00    +0.000 NA
ATOM      6  C   UNL     1      47.131   5.612  14.418  0.00  0.00    +0.000 A 
ATOM      7  N   UNL     1      45.864   5.136  14.043  0.00  0.00    +0.000 N 
ATOM      8  C   UNL     1      47.729   5.127  15.591  0.00  0.00    +0.000 A 
ATOM      9 CL   UNL     1      46.956   3.892  16.522  0.00  0.00    +0.000 Cl
ATOM     10  H   UNL     1      45.826   4.121  14.088  0.00  0.00    +0.000 HD
ENDROOT
BRANCH   1  12
ATOM     11  F   UNL     1      49.880   3.882  17.257  0.00  0.00    +0.000 F 
ATOM     12  C   UNL     1      49.645   5.226  17.218  0.00  0.00    +0.000 C 
ATOM     13  F   UNL     1      48.932   5.497  18.349  0.00  0.00    +0.000 F 
ATOM     14  F   UNL     1      50.867   5.808  17.391  0.00  0.00    +0.000 F 
ENDBRANCH   1  12
BRANCH   7  15
ATOM     15  C   UNL     1      45.290   5.668  12.819  0.00  0.00    +0.000 C 
BRANCH  15  16
ATOM     16  C   UNL     1      44.806   4.514  11.969  0.00  0.00    +0.000 A 
ATOM     17  C   UNL     1      43.744   3.713  12.399  0.00  0.00    +0.000 A 
ATOM     18  C   UNL     1      43.302   2.652  11.613  0.00  0.00    +0.000 A 
ATOM     19  C   UNL     1      43.926   2.375  10.393  0.00  0.00    +0.000 A 
ATOM     20  C   UNL     1      45.018   3.132   9.936  0.00  0.00    +0.000 A 
ATOM     21  C   UNL     1      45.443   4.201  10.752  0.00  0.00    +0.000 A 
BRANCH  20  22
ATOM     22  C   UNL     1      45.704   2.815   8.659  0.00  0.00    +0.000 A 
ATOM     23  C   UNL     1      45.923   3.795   7.679  0.00  0.00    +0.000 A 
ATOM     24  C   UNL     1      46.593   3.460   6.511  0.00  0.00    +0.000 A 
ATOM     25  N   UNL     1      47.050   2.223   6.235  0.00  0.00    +0.000 NA
ATOM     26  C   UNL     1      46.826   1.282   7.172  0.00  0.00    +0.000 A 
ATOM     27  C   UNL     1      46.175   1.526   8.374  0.00  0.00    +0.000 A 
ENDBRANCH  20  22
ENDBRANCH  15  16
ENDBRANCH   7  15
TORSDOF 4
ENDMDL
MODEL 4
REMARK VINA RESULT:    -7.024      3.142      4.381
REMARK INTER + INTRA:          -9.456
REMARK INTER:                  -8.853
REMARK INTRA:                  -0.603
REMARK UNBOUND:                -0.790
REMARK  Name = 
REMARK  4 active torsions:
REMARK  status: ('A' for Active; 'I' for Inactive)
REMARK    1  A    between atoms: C_2  and  C_5
REMARK    2  A    between atoms: N_11  and  C_12
REMARK    3  A    between atoms: C_12  and  C_13
REMARK    4  A    between atoms: C_17  and  C_18
REMARK                            x       y       z     vdW  Elec       q    Type
REMARK                         _______ _______ _______ _____ _____    ______ ____
ROOT
ATOM      1  C   UNL     1      48.738   5.723  16.198  0.00  0.00    +0.000 A 
ATOM      2  N   UNL     1      48.441   4.714  17.064  0.00  0.00    +0.000 NA
ATOM      3  C   UNL     1      47.498   3.857  16.667  0.00  0.00    +0.000 A 
ATOM      4 CL   UNL     1      47.110   2.597  17.746  0.00  0.00    +0.000 Cl
ATOM      5  N   UNL     1      46.817   3.892  15.516  0.00  0.00    +0.000 NA
ATOM      6  C   UNL     1      47.107   4.900  14.674  0.00  0.00    +0.000 A 
ATOM      7  N   UNL     1      46.466   4.948  13.426  0.00  0.00    +0.000 N 
ATOM      8  C   UNL     1      48.085   5.858  14.983  0.00  0.00    +0.000 A 
ATOM      9 CL   UNL     1      48.438   7.138  13.874  0.00  0.00    +0.000 Cl
ATOM     10  H   UNL     1      46.145   5.889  13.214  0.00  0.00    +0.000 HD
ENDROOT
BRANCH   1  12
ATOM     11  F   UNL     1      50.852   6.771  15.705  0.00  0.00    +0.000 F 
ATOM     12  C   UNL     1      49.820   6.707  16.595  0.00  0.00    +0.000 C 
ATOM     13  F   UNL     1      50.399   6.406  17.793  0.00  0.00    +0.000 F 
ATOM     14  F   UNL     1      49.361   7.987  16.706  0.00  0.00    +0.000 F 
ENDBRANCH   1  12
BRANCH   7  15
ATOM     15  C   UNL     1      45.460   3.935  13.157  0.00  0.00    +0.000 C 
BRANCH  15  16
ATOM     16  C   UNL     1      44.990   4.086  11.726  0.00  0.00    +0.000 A 
ATOM     17  C   UNL     1      43.872   4.871  11.426  0.00  0.00    +0.000 A 
ATOM     18  C   UNL     1      43.445   5.007  10.108  0.00  0.00    +0.000 A 
ATOM     19  C   UNL     1      44.123   4.350   9.079  0.00  0.00    +0.000 A 
ATOM     20  C   UNL     1      45.230   3.523   9.337  0.00  0.00    +0.000 A 
ATOM     21  C   UNL     1      45.642   3.405  10.681  0.00  0.00    +0.000 A 
BRANCH  20  22
ATOM     22  C   UNL     1      45.928   2.795   8.248  0.00  0.00    +0.000 A 
ATOM     23  C   UNL     1      46.368   3.451   7.088  0.00  0.00    +0.000 A 
ATOM     24  C   UNL     1      47.041   2.736   6.108  0.00  0.00    +0.000 A 
ATOM     25  N   UNL     1      47.298   1.416   6.185  0.00  0.00    +0.000 NA
ATOM     26  C   UNL     1      46.863   0.786   7.292  0.00  0.00    +0.000 A 
ATOM     27  C   UNL     1      46.190   1.420   8.330  0.00  0.00    +0.000 A 
ENDBRANCH  20  22
ENDBRANCH  15  16
ENDBRANCH   7  15
TORSDOF 4
ENDMDL
MODEL 5
REMARK VINA RESULT:    -6.584      2.055      2.647
REMARK INTER + INTRA:          -8.913
REMARK INTER:                  -8.291
REMARK INTRA:                  -0.623
REMARK UNBOUND:                -0.790
REMARK  Name = 
REMARK  4 active torsions:
REMARK  status: ('A' for Active; 'I' for Inactive)
REMARK    1  A    between atoms: C_2  and  C_5
REMARK    2  A    between atoms: N_11  and  C_12
REMARK    3  A    between atoms: C_12  and  C_13
REMARK    4  A    between atoms: C_17  and  C_18
REMARK                            x       y       z     vdW  Elec       q    Type
REMARK                         _______ _______ _______ _____ _____    ______ ____
ROOT
ATOM      1  C   UNL     1      49.894   5.179  17.458  0.00  0.00    +0.000 A 
ATOM      2  N   UNL     1      51.056   5.858  17.242  0.00  0.00    +0.000 NA
ATOM      3  C   UNL     1      51.064   6.692  16.201  0.00  0.00    +0.000 A 
ATOM      4 CL   UNL     1      52.515   7.539  15.916  0.00  0.00    +0.000 Cl
ATOM      5  N   UNL     1      50.057   6.924  15.351  0.00  0.00    +0.000 NA
ATOM      6  C   UNL     1      48.920   6.238  15.563  0.00  0.00    +0.000 A 
ATOM      7  N   UNL     1      47.812   6.489  14.738  0.00  0.00    +0.000 N 
ATOM      8  C   UNL     1      48.793   5.336  16.631  0.00  0.00    +0.000 A 
ATOM      9 CL   UNL     1      47.313   4.476  16.879  0.00  0.00    +0.000 Cl
ATOM     10  H   UNL     1      47.370   5.622  14.442  0.00  0.00    +0.000 HD
ENDROOT
BRANCH   1  12
ATOM     11  F   UNL     1      48.850   4.556  19.539  0.00  0.00    +0.000 F 
ATOM     12  C   UNL     1      49.829   4.238  18.643  0.00  0.00    +0.000 C 
ATOM     13  F   UNL     1      50.984   4.214  19.369  0.00  0.00    +0.000 F 
ATOM     14  F   UNL     1      49.579   2.945  18.284  0.00  0.00    +0.000 F 
ENDBRANCH   1  12
BRANCH   7  15
ATOM     15  C   UNL     1      47.997   7.429  13.646  0.00  0.00    +0.000 C 
BRANCH  15  16
ATOM     16  C   UNL     1      46.780   7.375  12.748  0.00  0.00    +0.000 A 
ATOM     17  C   UNL     1      45.891   8.453  12.693  0.00  0.00    +0.000 A 
ATOM     18  C   UNL     1      44.773   8.398  11.865  0.00  0.00    +0.000 A 
ATOM     19  C   UNL     1      44.526   7.258  11.093  0.00  0.00    +0.000 A 
ATOM     20  C   UNL     1      45.373   6.138  11.143  0.00  0.00    +0.000 A 
ATOM     21  C   UNL     1      46.499   6.223  11.989  0.00  0.00    +0.000 A 
BRANCH  20  22
ATOM     22  C   UNL     1      45.091   4.914  10.352  0.00  0.00    +0.000 A 
ATOM     23  C   UNL     1      45.489   4.797   9.012  0.00  0.00    +0.000 A 
ATOM     24  C   UNL     1      45.229   3.623   8.319  0.00  0.00    +0.000 A 
ATOM     25  N   UNL     1      44.591   2.562   8.851  0.00  0.00    +0.000 NA
ATOM     26  C   UNL     1      44.199   2.683  10.133  0.00  0.00    +0.000 A 
ATOM     27  C   UNL     1      44.424   3.814  10.908  0.00  0.00    +0.000 A 
ENDBRANCH  20  22
ENDBRANCH  15  16
ENDBRANCH   7  15
TORSDOF 4
ENDMDL
MODEL 6
REMARK VINA RESULT:    -6.486      5.945      7.554
REMARK INTER + INTRA:          -8.793
REMARK INTER:                  -8.121
REMARK INTRA:                  -0.672
REMARK UNBOUND:                -0.790
REMARK  Name = 
REMARK  4 active torsions:
REMARK  status: ('A' for Active; 'I' for Inactive)
REMARK    1  A    between atoms: C_2  and  C_5
REMARK    2  A    between atoms: N_11  and  C_12
REMARK    3  A    between atoms: C_12  and  C_13
REMARK    4  A    between atoms: C_17  and  C_18
REMARK                            x       y       z     vdW  Elec       q    Type
REMARK                         _______ _______ _______ _____ _____    ______ ____
ROOT
ATOM      1  C   UNL     1      45.602   4.326  12.513  0.00  0.00    +0.000 A 
ATOM      2  N   UNL     1      45.943   3.921  13.769  0.00  0.00    +0.000 NA
ATOM      3  C   UNL     1      46.909   4.620  14.368  0.00  0.00    +0.000 A 
ATOM      4 CL   UNL     1      47.352   4.116  15.934  0.00  0.00    +0.000 Cl
ATOM      5  N   UNL     1      47.575   5.665  13.863  0.00  0.00    +0.000 NA
ATOM      6  C   UNL     1      47.240   6.047  12.618  0.00  0.00    +0.000 A 
ATOM      7  N   UNL     1      47.864   7.177  12.064  0.00  0.00    +0.000 N 
ATOM      8  C   UNL     1      46.235   5.391  11.892  0.00  0.00    +0.000 A 
ATOM      9 CL   UNL     1      45.825   5.913  10.295  0.00  0.00    +0.000 Cl
ATOM     10  H   UNL     1      48.151   7.004  11.104  0.00  0.00    +0.000 HD
ENDROOT
BRANCH   1  12
ATOM     11  F   UNL     1      43.899   2.621  12.570  0.00  0.00    +0.000 F 
ATOM     12  C   UNL     1      44.492   3.579  11.801  0.00  0.00    +0.000 C 
ATOM     13  F   UNL     1      44.922   2.924  10.684  0.00  0.00    +0.000 F 
ATOM     14  F   UNL     1      43.476   4.394  11.396  0.00  0.00    +0.000 F 
ENDBRANCH   1  12
BRANCH   7  15
ATOM     15  C   UNL     1      48.900   7.818  12.856  0.00  0.00    +0.000 C 
BRANCH  15  16
ATOM     16  C   UNL     1      49.962   8.355  11.921  0.00  0.00    +0.000 A 
ATOM     17  C   UNL     1      50.124   9.733  11.748  0.00  0.00    +0.000 A 
ATOM     18  C   UNL     1      51.103  10.221  10.887  0.00  0.00    +0.000 A 
ATOM     19  C   UNL     1      51.922   9.335  10.181  0.00  0.00    +0.000 A 
ATOM     20  C   UNL     1      51.773   7.943  10.297  0.00  0.00    +0.000 A 
ATOM     21  C   UNL     1      50.774   7.477  11.178  0.00  0.00    +0.000 A 
BRANCH  20  22
ATOM     22  C   UNL     1      52.618   7.002   9.519  0.00  0.00    +0.000 A 
ATOM     23  C   UNL     1      52.465   6.850   8.133  0.00  0.00    +0.000 A 
ATOM     24  C   UNL     1      53.296   5.979   7.443  0.00  0.00    +0.000 A 
ATOM     25  N   UNL     1      54.258   5.238   8.025  0.00  0.00    +0.000 NA
ATOM     26  C   UNL     1      54.393   5.377   9.358  0.00  0.00    +0.000 A 
ATOM     27  C   UNL     1      53.616   6.230  10.130  0.00  0.00    +0.000 A 
ENDBRANCH  20  22
ENDBRANCH  15  16
ENDBRANCH   7  15
TORSDOF 4
ENDMDL
MODEL 7
REMARK VINA RESULT:    -6.447      5.278      8.065
REMARK INTER + INTRA:          -8.744
REMARK INTER:                  -8.040
REMARK INTRA:                  -0.704
REMARK UNBOUND:                -0.790
REMARK  Name = 
REMARK  4 active torsions:
REMARK  status: ('A' for Active; 'I' for Inactive)
REMARK    1  A    between atoms: C_2  and  C_5
REMARK    2  A    between atoms: N_11  and  C_12
REMARK    3  A    between atoms: C_12  and  C_13
REMARK    4  A    between atoms: C_17  and  C_18
REMARK                            x       y       z     vdW  Elec       q    Type
REMARK                         _______ _______ _______ _____ _____    ______ ____
ROOT
ATOM      1  C   UNL     1      44.812   3.276   9.864  0.00  0.00    +0.000 A 
ATOM      2  N   UNL     1      44.130   2.977  11.005  0.00  0.00    +0.000 NA
ATOM      3  C   UNL     1      44.088   3.935  11.933  0.00  0.00    +0.000 A 
ATOM      4 CL   UNL     1      43.248   3.568  13.369  0.00  0.00    +0.000 Cl
ATOM      5  N   UNL     1      44.648   5.148  11.859  0.00  0.00    +0.000 NA
ATOM      6  C   UNL     1      45.330   5.429  10.734  0.00  0.00    +0.000 A 
ATOM      7  N   UNL     1      45.885   6.709  10.579  0.00  0.00    +0.000 N 
ATOM      8  C   UNL     1      45.438   4.500   9.688  0.00  0.00    +0.000 A 
ATOM      9 CL   UNL     1      46.317   4.896   8.252  0.00  0.00    +0.000 Cl
ATOM     10  H   UNL     1      46.836   6.657  10.224  0.00  0.00    +0.000 HD
ENDROOT
BRANCH   1  12
ATOM     11  F   UNL     1      44.155   1.100   9.061  0.00  0.00    +0.000 F 
ATOM     12  C   UNL     1      44.865   2.228   8.771  0.00  0.00    +0.000 C 
ATOM     13  F   UNL     1      46.133   1.795   8.510  0.00  0.00    +0.000 F 
ATOM     14  F   UNL     1      44.364   2.672   7.582  0.00  0.00    +0.000 F 
ENDBRANCH   1  12
BRANCH   7  15
ATOM     15  C   UNL     1      45.748   7.632  11.693  0.00  0.00    +0.000 C 
BRANCH  15  16
ATOM     16  C   UNL     1      46.994   7.547  12.548  0.00  0.00    +0.000 A 
ATOM     17  C   UNL     1      48.133   8.287  12.216  0.00  0.00    +0.000 A 
ATOM     18  C   UNL     1      49.277   8.205  13.007  0.00  0.00    +0.000 A 
ATOM     19  C   UNL     1      49.296   7.373  14.130  0.00  0.00    +0.000 A 
ATOM     20  C   UNL     1      48.187   6.585  14.481  0.00  0.00    +0.000 A 
ATOM     21  C   UNL     1      47.042   6.689  13.664  0.00  0.00    +0.000 A 
BRANCH  20  22
ATOM     22  C   UNL     1      48.220   5.674  15.652  0.00  0.00    +0.000 A 
ATOM     23  C   UNL     1      47.441   4.507  15.699  0.00  0.00    +0.000 A 
ATOM     24  C   UNL     1      47.525   3.670  16.802  0.00  0.00    +0.000 A 
ATOM     25  N   UNL     1      48.312   3.909  17.869  0.00  0.00    +0.000 NA
ATOM     26  C   UNL     1      49.048   5.036  17.827  0.00  0.00    +0.000 A 
ATOM     27  C   UNL     1      49.038   5.928  16.762  0.00  0.00    +0.000 A 
ENDBRANCH  20  22
ENDBRANCH  15  16
ENDBRANCH   7  15
TORSDOF 4
ENDMDL
MODEL 8
REMARK VINA RESULT:    -6.266      4.495      8.161
REMARK INTER + INTRA:          -8.521
REMARK INTER:                  -7.826
REMARK INTRA:                  -0.695
REMARK UNBOUND:                -0.790
REMARK  Name = 
REMARK  4 active torsions:
REMARK  status: ('A' for Active; 'I' for Inactive)
REMARK    1  A    between atoms: C_2  and  C_5
REMARK    2  A    between atoms: N_11  and  C_12
REMARK    3  A    between atoms: C_12  and  C_13
REMARK    4  A    between atoms: C_17  and  C_18
REMARK                            x       y       z     vdW  Elec       q    Type
REMARK                         _______ _______ _______ _____ _____    ______ ____
ROOT
ATOM      1  C   UNL     1      44.991   7.742  12.001  0.00  0.00    +0.000 A 
ATOM      2  N   UNL     1      44.171   6.811  11.436  0.00  0.00    +0.000 NA
ATOM      3  C   UNL     1      44.336   5.553  11.851  0.00  0.00    +0.000 A 
ATOM      4 CL   UNL     1      43.324   4.380  11.142  0.00  0.00    +0.000 Cl
ATOM      5  N   UNL     1      45.220   5.117  12.755  0.00  0.00    +0.000 NA
ATOM      6  C   UNL     1      46.034   6.041  13.297  0.00  0.00    +0.000 A 
ATOM      7  N   UNL     1      46.938   5.647  14.296  0.00  0.00    +0.000 N 
ATOM      8  C   UNL     1      45.949   7.395  12.941  0.00  0.00    +0.000 A 
ATOM      9 CL   UNL     1      47.006   8.558  13.662  0.00  0.00    +0.000 Cl
ATOM     10  H   UNL     1      47.859   6.048  14.137  0.00  0.00    +0.000 HD
ENDROOT
BRANCH   1  12
ATOM     11  F   UNL     1      44.359   9.996  12.574  0.00  0.00    +0.000 F 
ATOM     12  C   UNL     1      44.824   9.187  11.579  0.00  0.00    +0.000 C 
ATOM     13  F   UNL     1      43.942   9.343  10.550  0.00  0.00    +0.000 F 
ATOM     14  F   UNL     1      45.992   9.760  11.168  0.00  0.00    +0.000 F 
ENDBRANCH   1  12
BRANCH   7  15
ATOM     15  C   UNL     1      46.988   4.232  14.625  0.00  0.00    +0.000 C 
BRANCH  15  16
ATOM     16  C   UNL     1      47.531   4.081  16.030  0.00  0.00    +0.000 A 
ATOM     17  C   UNL     1      48.137   2.886  16.431  0.00  0.00    +0.000 A 
ATOM     18  C   UNL     1      48.634   2.753  17.725  0.00  0.00    +0.000 A 
ATOM     19  C   UNL     1      48.520   3.809  18.633  0.00  0.00    +0.000 A 
ATOM     20  C   UNL     1      47.888   5.015  18.285  0.00  0.00    +0.000 A 
ATOM     21  C   UNL     1      47.396   5.123  16.967  0.00  0.00    +0.000 A 
BRANCH  20  22
ATOM     22  C   UNL     1      47.734   6.122  19.261  0.00  0.00    +0.000 A 
ATOM     23  C   UNL     1      47.730   7.465  18.855  0.00  0.00    +0.000 A 
ATOM     24  C   UNL     1      47.555   8.467  19.799  0.00  0.00    +0.000 A 
ATOM     25  N   UNL     1      47.397   8.238  21.117  0.00  0.00    +0.000 NA
ATOM     26  C   UNL     1      47.415   6.949  21.505  0.00  0.00    +0.000 A 
ATOM     27  C   UNL     1      47.574   5.879  20.632  0.00  0.00    +0.000 A 
ENDBRANCH  20  22
ENDBRANCH  15  16
ENDBRANCH   7  15
TORSDOF 4
ENDMDL
MODEL 9
REMARK VINA RESULT:    -6.212      3.968      7.350
REMARK INTER + INTRA:          -8.454
REMARK INTER:                  -7.999
REMARK INTRA:                  -0.455
REMARK UNBOUND:                -0.790
REMARK  Name = 
REMARK  4 active torsions:
REMARK  status: ('A' for Active; 'I' for Inactive)
REMARK    1  A    between atoms: C_2  and  C_5
REMARK    2  A    between atoms: N_11  and  C_12
REMARK    3  A    between atoms: C_12  and  C_13
REMARK    4  A    between atoms: C_17  and  C_18
REMARK                            x       y       z     vdW  Elec       q    Type
REMARK                         _______ _______ _______ _____ _____    ______ ____
ROOT
ATOM      1  C   UNL     1      46.044   4.825  13.239  0.00  0.00    +0.000 A 
ATOM      2  N   UNL     1      46.363   3.892  14.179  0.00  0.00    +0.000 NA
ATOM      3  C   UNL     1      47.351   4.215  15.016  0.00  0.00    +0.000 A 
ATOM      4 CL   UNL     1      47.766   3.050  16.189  0.00  0.00    +0.000 Cl
ATOM      5  N   UNL     1      48.057   5.351  15.023  0.00  0.00    +0.000 NA
ATOM      6  C   UNL     1      47.744   6.260  14.082  0.00  0.00    +0.000 A 
ATOM      7  N   UNL     1      48.412   7.495  14.083  0.00  0.00    +0.000 N 
ATOM      8  C   UNL     1      46.719   6.033  13.151  0.00  0.00    +0.000 A 
ATOM      9 CL   UNL     1      46.338   7.226  11.959  0.00  0.00    +0.000 Cl
ATOM     10  H   UNL     1      48.697   7.759  13.144  0.00  0.00    +0.000 HD
ENDROOT
BRANCH   1  12
ATOM     11  F   UNL     1      43.882   5.406  12.345  0.00  0.00    +0.000 F 
ATOM     12  C   UNL     1      44.911   4.514  12.282  0.00  0.00    +0.000 C 
ATOM     13  F   UNL     1      44.343   3.294  12.509  0.00  0.00    +0.000 F 
ATOM     14  F   UNL     1      45.304   4.512  10.975  0.00  0.00    +0.000 F 
ENDBRANCH   1  12
BRANCH   7  15
ATOM     15  C   UNL     1      49.466   7.679  15.066  0.00  0.00    +0.000 C 
BRANCH  15  16
ATOM     16  C   UNL     1      48.839   8.110  16.374  0.00  0.00    +0.000 A 
ATOM     17  C   UNL     1      48.328   9.402  16.524  0.00  0.00    +0.000 A 
ATOM     18  C   UNL     1      47.752   9.793  17.730  0.00  0.00    +0.000 A 
ATOM     19  C   UNL     1      47.693   8.898  18.803  0.00  0.00    +0.000 A 
ATOM     20  C   UNL     1      48.225   7.601  18.709  0.00  0.00    +0.000 A 
ATOM     21  C   UNL     1      48.801   7.232  17.475  0.00  0.00    +0.000 A 
BRANCH  20  22
ATOM     22  C   UNL     1      48.196   6.663  19.859  0.00  0.00    +0.000 A 
ATOM     23  C   UNL     1      47.422   6.922  21.000  0.00  0.00    +0.000 A 
ATOM     24  C   UNL     1      47.403   6.004  22.039  0.00  0.00    +0.000 A 
ATOM     25  N   UNL     1      48.106   4.854  22.039  0.00  0.00    +0.000 NA
ATOM     26  C   UNL     1      48.858   4.615  20.949  0.00  0.00    +0.000 A 
ATOM     27  C   UNL     1      48.932   5.470  19.856  0.00  0.00    +0.000 A 
ENDBRANCH  20  22
ENDBRANCH  15  16
ENDBRANCH   7  15
TORSDOF 4
ENDMDL
