MODEL 1
REMARK VINA RESULT:    -8.618      0.000      0.000
REMARK INTER + INTRA:         -11.316
REMARK INTER:                 -10.633
REMARK INTRA:                  -0.683
REMARK UNBOUND:                -0.683
REMARK  Name = 
REMARK  4 active torsions:
REMARK  status: ('A' for Active; 'I' for Inactive)
REMARK    1  A    between atoms: C_2  and  C_5
REMARK    2  A    between atoms: N_9  and  C_10
REMARK    3  A    between atoms: C_10  and  C_11
REMARK    4  A    between atoms: C_15  and  C_16
REMARK                            x       y       z     vdW  Elec       q    Type
REMARK                         _______ _______ _______ _____ _____    ______ ____
ROOT
ATOM      1  C   UNL     1      43.858   5.441  11.003  0.00  0.00    +0.000 C 
ENDROOT
BRANCH   1   6
ATOM      2  C   UNL     1      46.256   2.669   7.643  0.00  0.00    +0.000 A 
ATOM      3  C   UNL     1      45.598   1.880   8.551  0.00  0.00    +0.000 A 
ATOM      4  N   UNL     1      44.758   2.363   9.491  0.00  0.00    +0.000 NA
ATOM      5  C   UNL     1      44.558   3.686   9.519  0.00  0.00    +0.000 A 
ATOM      6  N   UNL     1      43.639   4.121  10.455  0.00  0.00    +0.000 N 
ATOM      7  N   UNL     1      45.172   4.542   8.693  0.00  0.00    +0.000 NA
ATOM      8  C   UNL     1      46.006   4.015   7.766  0.00  0.00    +0.000 A 
ATOM      9  H   UNL     1      43.542   3.375  11.135  0.00  0.00    +0.000 HD
BRANCH   2  11
ATOM     10  F   UNL     1      46.921   2.619   5.359  0.00  0.00    +0.000 F 
ATOM     11  C   UNL     1      47.157   2.116   6.602  0.00  0.00    +0.000 C 
ATOM     12  F   UNL     1      47.052   0.765   6.481  0.00  0.00    +0.000 F 
ATOM     13  F   UNL     1      48.470   2.367   6.859  0.00  0.00    +0.000 F 
ENDBRANCH   2  11
ENDBRANCH   1   6
BRANCH   1  14
ATOM     14  C   UNL     1      44.953   5.376  12.039  0.00  0.00    +0.000 A 
ATOM     15  C   UNL     1      44.877   4.504  13.116  0.00  0.00    +0.000 A 
ATOM     16  N   UNL     1      45.841   4.378  14.052  0.00  0.00    +0.000 NA
ATOM     17  C   UNL     1      46.939   5.163  13.911  0.00  0.00    +0.000 A 
ATOM     18  C   UNL     1      47.138   6.095  12.890  0.00  0.00    +0.000 A 
ATOM     19  C   UNL     1      46.104   6.177  11.942  0.00  0.00    +0.000 A 
BRANCH  18  20
ATOM     20  C   UNL     1      48.347   6.942  12.815  0.00  0.00    +0.000 A 
ATOM     21  C   UNL     1      48.710   7.636  11.650  0.00  0.00    +0.000 A 
ATOM     22  C   UNL     1      49.846   8.447  11.624  0.00  0.00    +0.000 A 
ATOM     23  C   UNL     1      50.613   8.542  12.769  0.00  0.00    +0.000 A 
ATOM     24  N   UNL     1      50.321   7.893  13.912  0.00  0.00    +0.000 NA
ATOM     25  C   UNL     1      49.204   7.121  13.906  0.00  0.00    +0.000 A 
ENDBRANCH  18  20
ENDBRANCH   1  14
TORSDOF 4
ENDMDL
MODEL 2
REMARK VINA RESULT:    -7.864      1.805      3.053
REMARK INTER + INTRA:         -10.386
REMARK INTER:                  -9.861
REMARK INTRA:                  -0.526
REMARK UNBOUND:                -0.683
REMARK  Name = 
REMARK  4 active torsions:
REMARK  status: ('A' for Active; 'I' for Inactive)
REMARK    1  A    between atoms: C_2  and  C_5
REMARK    2  A    between atoms: N_9  and  C_10
REMARK    3  A    between atoms: C_10  and  C_11
REMARK    4  A    between atoms: C_15  and  C_16
REMARK                            x       y       z     vdW  Elec       q    Type
REMARK                         _______ _______ _______ _____ _____    ______ ____
ROOT
ATOM      1  C   UNL     1      43.374   5.283  11.172  0.00  0.00    +0.000 C 
ENDROOT
BRANCH   1   6
ATOM      2  C   UNL     1      45.998   2.747   7.795  0.00  0.00    +0.000 A 
ATOM      3  C   UNL     1      45.748   1.977   8.901  0.00  0.00    +0.000 A 
ATOM      4  N   UNL     1      44.944   2.363   9.914  0.00  0.00    +0.000 NA
ATOM      5  C   UNL     1      44.357   3.562   9.814  0.00  0.00    +0.000 A 
ATOM      6  N   UNL     1      43.492   3.880  10.844  0.00  0.00    +0.000 N 
ATOM      7  N   UNL     1      44.557   4.398   8.787  0.00  0.00    +0.000 NA
ATOM      8  C   UNL     1      45.370   3.971   7.794  0.00  0.00    +0.000 A 
ATOM      9  H   UNL     1      43.724   3.267  11.618  0.00  0.00    +0.000 HD
BRANCH   2  11
ATOM     10  F   UNL     1      46.940   0.941   6.566  0.00  0.00    +0.000 F 
ATOM     11  C   UNL     1      46.867   2.295   6.680  0.00  0.00    +0.000 C 
ATOM     12  F   UNL     1      48.151   2.726   6.809  0.00  0.00    +0.000 F 
ATOM     13  F   UNL     1      46.442   2.747   5.469  0.00  0.00    +0.000 F 
ENDBRANCH   2  11
ENDBRANCH   1   6
BRANCH   1  14
ATOM     14  C   UNL     1      44.663   5.759  11.797  0.00  0.00    +0.000 A 
ATOM     15  C   UNL     1      45.283   6.926  11.374  0.00  0.00    +0.000 A 
ATOM     16  N   UNL     1      46.416   7.417  11.919  0.00  0.00    +0.000 NA
ATOM     17  C   UNL     1      46.964   6.708  12.937  0.00  0.00    +0.000 A 
ATOM     18  C   UNL     1      46.459   5.510  13.449  0.00  0.00    +0.000 A 
ATOM     19  C   UNL     1      45.275   5.053  12.847  0.00  0.00    +0.000 A 
BRANCH  18  20
ATOM     20  C   UNL     1      47.127   4.771  14.542  0.00  0.00    +0.000 A 
ATOM     21  C   UNL     1      47.599   5.406  15.701  0.00  0.00    +0.000 A 
ATOM     22  C   UNL     1      48.202   4.673  16.724  0.00  0.00    +0.000 A 
ATOM     23  C   UNL     1      48.335   3.307  16.563  0.00  0.00    +0.000 A 
ATOM     24  N   UNL     1      47.912   2.645  15.470  0.00  0.00    +0.000 NA
ATOM     25  C   UNL     1      47.321   3.387  14.500  0.00  0.00    +0.000 A 
ENDBRANCH  18  20
ENDBRANCH   1  14
TORSDOF 4
ENDMDL
MODEL 3
REMARK VINA RESULT:    -7.406      3.618      6.886
REMARK INTER + INTRA:          -9.821
REMARK INTER:                  -9.535
REMARK INTRA:                  -0.286
REMARK UNBOUND:                -0.683
REMARK  Name = 
REMARK  4 active torsions:
REMARK  status: ('A' for Active; 'I' for Inactive)
REMARK    1  A    between atoms: C_2  and  C_5
REMARK    2  A    between atoms: N_9  and  C_10
REMARK    3  A    between atoms: C_10  and  C_11
REMARK    4  A    between atoms: C_15  and  C_16
REMARK                            x       y       z     vdW  Elec       q    Type
REMARK                         _______ _______ _______ _____ _____    ______ ____
ROOT
ATOM      1  C   UNL     1      43.603   6.535  11.132  0.00  0.00    +0.000 C 
ENDROOT
BRANCH   1   6
ATOM      2  C   UNL     1      48.138   8.080  12.460  0.00  0.00    +0.000 A 
ATOM      3  C   UNL     1      47.191   8.516  13.350  0.00  0.00    +0.000 A 
ATOM      4  N   UNL     1      45.897   8.133  13.312  0.00  0.00    +0.000 NA
ATOM      5  C   UNL     1      45.536   7.272  12.353  0.00  0.00    +0.000 A 
ATOM      6  N   UNL     1      44.217   6.861  12.399  0.00  0.00    +0.000 N 
ATOM      7  N   UNL     1      46.380   6.808  11.422  0.00  0.00    +0.000 NA
ATOM      8  C   UNL     1      47.667   7.217  11.498  0.00  0.00    +0.000 A 
ATOM      9  H   UNL     1      43.721   7.541  12.964  0.00  0.00    +0.000 HD
BRANCH   2  11
ATOM     10  F   UNL     1      49.993   8.726  13.803  0.00  0.00    +0.000 F 
ATOM     11  C   UNL     1      49.561   8.493  12.533  0.00  0.00    +0.000 C 
ATOM     12  F   UNL     1      49.810   9.639  11.842  0.00  0.00    +0.000 F 
ATOM     13  F   UNL     1      50.406   7.557  12.020  0.00  0.00    +0.000 F 
ENDBRANCH   2  11
ENDBRANCH   1   6
BRANCH   1  14
ATOM     14  C   UNL     1      43.783   5.062  10.854  0.00  0.00    +0.000 A 
ATOM     15  C   UNL     1      43.140   4.100  11.620  0.00  0.00    +0.000 A 
ATOM     16  N   UNL     1      43.236   2.772  11.396  0.00  0.00    +0.000 NA
ATOM     17  C   UNL     1      44.016   2.381  10.357  0.00  0.00    +0.000 A 
ATOM     18  C   UNL     1      44.733   3.238   9.519  0.00  0.00    +0.000 A 
ATOM     19  C   UNL     1      44.589   4.607   9.797  0.00  0.00    +0.000 A 
BRANCH  18  20
ATOM     20  C   UNL     1      45.591   2.739   8.423  0.00  0.00    +0.000 A 
ATOM     21  C   UNL     1      46.025   3.563   7.373  0.00  0.00    +0.000 A 
ATOM     22  C   UNL     1      46.855   3.064   6.368  0.00  0.00    +0.000 A 
ATOM     23  C   UNL     1      47.231   1.736   6.425  0.00  0.00    +0.000 A 
ATOM     24  N   UNL     1      46.838   0.895   7.400  0.00  0.00    +0.000 NA
ATOM     25  C   UNL     1      46.040   1.415   8.367  0.00  0.00    +0.000 A 
ENDBRANCH  18  20
ENDBRANCH   1  14
TORSDOF 4
ENDMDL
MODEL 4
REMARK VINA RESULT:    -7.230      5.240      8.279
REMARK INTER + INTRA:          -9.604
REMARK INTER:                  -9.194
REMARK INTRA:                  -0.410
REMARK UNBOUND:                -0.683
REMARK  Name = 
REMARK  4 active torsions:
REMARK  status: ('A' for Active; 'I' for Inactive)
REMARK    1  A    between atoms: C_2  and  C_5
REMARK    2  A    between atoms: N_9  and  C_10
REMARK    3  A    between atoms: C_10  and  C_11
REMARK    4  A    between atoms: C_15  and  C_16
REMARK                            x       y       z     vdW  Elec       q    Type
REMARK                         _______ _______ _______ _____ _____    ______ ____
ROOT
ATOM      1  C   UNL     1      45.952   5.348  13.617  0.00  0.00    +0.000 C 
ENDROOT
BRANCH   1   6
ATOM      2  C   UNL     1      48.607   4.468  17.728  0.00  0.00    +0.000 A 
ATOM      3  C   UNL     1      47.648   3.504  17.546  0.00  0.00    +0.000 A 
ATOM      4  N   UNL     1      46.875   3.417  16.444  0.00  0.00    +0.000 NA
ATOM      5  C   UNL     1      47.073   4.322  15.478  0.00  0.00    +0.000 A 
ATOM      6  N   UNL     1      46.303   4.148  14.343  0.00  0.00    +0.000 N 
ATOM      7  N   UNL     1      47.965   5.316  15.570  0.00  0.00    +0.000 NA
ATOM      8  C   UNL     1      48.720   5.366  16.692  0.00  0.00    +0.000 A 
ATOM      9  H   UNL     1      45.525   3.554  14.609  0.00  0.00    +0.000 HD
BRANCH   2  11
ATOM     10  F   UNL     1      49.770   5.804  19.316  0.00  0.00    +0.000 F 
ATOM     11  C   UNL     1      49.464   4.533  18.937  0.00  0.00    +0.000 C 
ATOM     12  F   UNL     1      50.656   3.899  18.768  0.00  0.00    +0.000 F 
ATOM     13  F   UNL     1      48.883   3.952  20.022  0.00  0.00    +0.000 F 
ENDBRANCH   2  11
ENDBRANCH   1   6
BRANCH   1  14
ATOM     14  C   UNL     1      45.133   4.976  12.405  0.00  0.00    +0.000 A 
ATOM     15  C   UNL     1      43.773   5.246  12.342  0.00  0.00    +0.000 A 
ATOM     16  N   UNL     1      42.999   4.968  11.272  0.00  0.00    +0.000 NA
ATOM     17  C   UNL     1      43.609   4.386  10.209  0.00  0.00    +0.000 A 
ATOM     18  C   UNL     1      44.961   4.041  10.144  0.00  0.00    +0.000 A 
ATOM     19  C   UNL     1      45.716   4.361  11.284  0.00  0.00    +0.000 A 
BRANCH  18  20
ATOM     20  C   UNL     1      45.554   3.379   8.963  0.00  0.00    +0.000 A 
ATOM     21  C   UNL     1      45.989   4.096   7.837  0.00  0.00    +0.000 A 
ATOM     22  C   UNL     1      46.567   3.439   6.750  0.00  0.00    +0.000 A 
ATOM     23  C   UNL     1      46.690   2.064   6.802  0.00  0.00    +0.000 A 
ATOM     24  N   UNL     1      46.282   1.323   7.849  0.00  0.00    +0.000 NA
ATOM     25  C   UNL     1      45.734   1.994   8.893  0.00  0.00    +0.000 A 
ENDBRANCH  18  20
ENDBRANCH   1  14
TORSDOF 4
ENDMDL
MODEL 5
REMARK VINA RESULT:    -6.881      4.753      7.574
REMARK INTER + INTRA:          -9.174
REMARK INTER:                  -8.656
REMARK INTRA:                  -0.518
REMARK UNBOUND:                -0.683
REMARK  Name = 
REMARK  4 active torsions:
REMARK  status: ('A' for Active; 'I' for Inactive)
REMARK    1  A    between atoms: C_2  and  C_5
REMARK    2  A    between atoms: N_9  and  C_10
REMARK    3  A    between atoms: C_10  and  C_11
REMARK    4  A    between atoms: C_15  and  C_16
REMARK                            x       y       z     vdW  Elec       q    Type
REMARK                         _______ _______ _______ _____ _____    ______ ____
ROOT
ATOM      1  C   UNL     1      44.430   5.904  12.531  0.00  0.00    +0.000 C 
ENDROOT
BRANCH   1   6
ATOM      2  C   UNL     1      45.850  10.603  11.738  0.00  0.00    +0.000 A 
ATOM      3  C   UNL     1      46.891   9.850  12.219  0.00  0.00    +0.000 A 
ATOM      4  N   UNL     1      46.827   8.514  12.394  0.00  0.00    +0.000 NA
ATOM      5  C   UNL     1      45.683   7.901  12.067  0.00  0.00    +0.000 A 
ATOM      6  N   UNL     1      45.693   6.526  12.202  0.00  0.00    +0.000 N 
ATOM      7  N   UNL     1      44.603   8.550  11.614  0.00  0.00    +0.000 NA
ATOM      8  C   UNL     1      44.710   9.889  11.453  0.00  0.00    +0.000 A 
ATOM      9  H   UNL     1      46.466   6.301  12.819  0.00  0.00    +0.000 HD
BRANCH   2  11
ATOM     10  F   UNL     1      44.792  12.733  11.807  0.00  0.00    +0.000 F 
ATOM     11  C   UNL     1      45.947  12.069  11.530  0.00  0.00    +0.000 C 
ATOM     12  F   UNL     1      46.263  12.396  10.247  0.00  0.00    +0.000 F 
ATOM     13  F   UNL     1      46.902  12.647  12.308  0.00  0.00    +0.000 F 
ENDBRANCH   2  11
ENDBRANCH   1   6
BRANCH   1  14
ATOM     14  C   UNL     1      44.284   4.624  11.746  0.00  0.00    +0.000 A 
ATOM     15  C   UNL     1      43.395   3.634  12.138  0.00  0.00    +0.000 A 
ATOM     16  N   UNL     1      43.197   2.486  11.457  0.00  0.00    +0.000 NA
ATOM     17  C   UNL     1      43.927   2.311  10.326  0.00  0.00    +0.000 A 
ATOM     18  C   UNL     1      44.870   3.213   9.827  0.00  0.00    +0.000 A 
ATOM     19  C   UNL     1      45.026   4.392  10.575  0.00  0.00    +0.000 A 
BRANCH  18  20
ATOM     20  C   UNL     1      45.654   2.944   8.603  0.00  0.00    +0.000 A 
ATOM     21  C   UNL     1      46.176   1.675   8.308  0.00  0.00    +0.000 A 
ATOM     22  C   UNL     1      46.891   1.451   7.131  0.00  0.00    +0.000 A 
ATOM     23  C   UNL     1      47.083   2.512   6.266  0.00  0.00    +0.000 A 
ATOM     24  N   UNL     1      46.615   3.752   6.500  0.00  0.00    +0.000 NA
ATOM     25  C   UNL     1      45.916   3.933   7.649  0.00  0.00    +0.000 A 
ENDBRANCH  18  20
ENDBRANCH   1  14
TORSDOF 4
ENDMDL
MODEL 6
REMARK VINA RESULT:    -6.792      4.495      7.708
REMARK INTER + INTRA:          -9.064
REMARK INTER:                  -8.862
REMARK INTRA:                  -0.202
REMARK UNBOUND:                -0.683
REMARK  Name = 
REMARK  4 active torsions:
REMARK  status: ('A' for Active; 'I' for Inactive)
REMARK    1  A    between atoms: C_2  and  C_5
REMARK    2  A    between atoms: N_9  and  C_10
REMARK    3  A    between atoms: C_10  and  C_11
REMARK    4  A    between atoms: C_15  and  C_16
REMARK                            x       y       z     vdW  Elec       q    Type
REMARK                         _______ _______ _______ _____ _____    ______ ____
ROOT
ATOM      1  C   UNL     1      48.422   7.549  13.223  0.00  0.00    +0.000 C 
ENDROOT
BRANCH   1   6
ATOM      2  C   UNL     1      48.090   4.072  16.761  0.00  0.00    +0.000 A 
ATOM      3  C   UNL     1      48.585   5.245  17.270  0.00  0.00    +0.000 A 
ATOM      4  N   UNL     1      48.654   6.394  16.567  0.00  0.00    +0.000 NA
ATOM      5  C   UNL     1      48.201   6.377  15.308  0.00  0.00    +0.000 A 
ATOM      6  N   UNL     1      48.232   7.594  14.655  0.00  0.00    +0.000 N 
ATOM      7  N   UNL     1      47.722   5.277  14.712  0.00  0.00    +0.000 NA
ATOM      8  C   UNL     1      47.670   4.147  15.454  0.00  0.00    +0.000 A 
ATOM      9  H   UNL     1      48.884   8.181  15.166  0.00  0.00    +0.000 HD
BRANCH   2  11
ATOM     10  F   UNL     1      48.503   2.947  18.817  0.00  0.00    +0.000 F 
ATOM     11  C   UNL     1      48.000   2.824  17.558  0.00  0.00    +0.000 C 
ATOM     12  F   UNL     1      48.677   1.789  16.989  0.00  0.00    +0.000 F 
ATOM     13  F   UNL     1      46.719   2.391  17.712  0.00  0.00    +0.000 F 
ENDBRANCH   2  11
ENDBRANCH   1   6
BRANCH   1  14
ATOM     14  C   UNL     1      47.080   7.418  12.545  0.00  0.00    +0.000 A 
ATOM     15  C   UNL     1      46.119   8.413  12.648  0.00  0.00    +0.000 A 
ATOM     16  N   UNL     1      44.917   8.366  12.036  0.00  0.00    +0.000 NA
ATOM     17  C   UNL     1      44.656   7.267  11.284  0.00  0.00    +0.000 A 
ATOM     18  C   UNL     1      45.521   6.183  11.110  0.00  0.00    +0.000 A 
ATOM     19  C   UNL     1      46.758   6.294  11.765  0.00  0.00    +0.000 A 
BRANCH  18  20
ATOM     20  C   UNL     1      45.157   5.001  10.300  0.00  0.00    +0.000 A 
ATOM     21  C   UNL     1      45.610   4.822   8.984  0.00  0.00    +0.000 A 
ATOM     22  C   UNL     1      45.267   3.681   8.258  0.00  0.00    +0.000 A 
ATOM     23  C   UNL     1      44.460   2.735   8.862  0.00  0.00    +0.000 A 
ATOM     24  N   UNL     1      43.987   2.857  10.116  0.00  0.00    +0.000 NA
ATOM     25  C   UNL     1      44.348   3.974  10.797  0.00  0.00    +0.000 A 
ENDBRANCH  18  20
ENDBRANCH   1  14
TORSDOF 4
ENDMDL
MODEL 7
REMARK VINA RESULT:    -6.662      4.959      6.483
REMARK INTER + INTRA:          -8.903
REMARK INTER:                  -8.466
REMARK INTRA:                  -0.437
REMARK UNBOUND:                -0.683
REMARK  Name = 
REMARK  4 active torsions:
REMARK  status: ('A' for Active; 'I' for Inactive)
REMARK    1  A    between atoms: C_2  and  C_5
REMARK    2  A    between atoms: N_9  and  C_10
REMARK    3  A    between atoms: C_10  and  C_11
REMARK    4  A    between atoms: C_15  and  C_16
REMARK                            x       y       z     vdW  Elec       q    Type
REMARK                         _______ _______ _______ _____ _____    ______ ____
ROOT
ATOM      1  C   UNL     1      47.095   4.077  16.112  0.00  0.00    +0.000 C 
ENDROOT
BRANCH   1   6
ATOM      2  C   UNL     1      45.067   4.421  11.584  0.00  0.00    +0.000 A 
ATOM      3  C   UNL     1      45.404   5.660  12.067  0.00  0.00    +0.000 A 
ATOM      4  N   UNL     1      46.093   5.854  13.211  0.00  0.00    +0.000 NA
ATOM      5  C   UNL     1      46.471   4.768  13.897  0.00  0.00    +0.000 A 
ATOM      6  N   UNL     1      47.230   5.020  15.024  0.00  0.00    +0.000 N 
ATOM      7  N   UNL     1      46.169   3.518  13.523  0.00  0.00    +0.000 NA
ATOM      8  C   UNL     1      45.478   3.369  12.369  0.00  0.00    +0.000 A 
ATOM      9  H   UNL     1      47.076   5.993  15.266  0.00  0.00    +0.000 HD
BRANCH   2  11
ATOM     10  F   UNL     1      45.048   4.584   9.211  0.00  0.00    +0.000 F 
ATOM     11  C   UNL     1      44.330   4.228  10.312  0.00  0.00    +0.000 C 
ATOM     12  F   UNL     1      43.181   4.954  10.256  0.00  0.00    +0.000 F 
ATOM     13  F   UNL     1      43.963   2.933  10.111  0.00  0.00    +0.000 F 
ENDBRANCH   2  11
ENDBRANCH   1   6
BRANCH   1  14
ATOM     14  C   UNL     1      48.239   4.263  17.078  0.00  0.00    +0.000 A 
ATOM     15  C   UNL     1      48.184   5.213  18.087  0.00  0.00    +0.000 A 
ATOM     16  N   UNL     1      49.161   5.399  19.000  0.00  0.00    +0.000 NA
ATOM     17  C   UNL     1      50.252   4.600  18.901  0.00  0.00    +0.000 A 
ATOM     18  C   UNL     1      50.448   3.618  17.927  0.00  0.00    +0.000 A 
ATOM     19  C   UNL     1      49.395   3.466  17.009  0.00  0.00    +0.000 A 
BRANCH  18  20
ATOM     20  C   UNL     1      51.679   2.803  17.859  0.00  0.00    +0.000 A 
ATOM     21  C   UNL     1      51.666   1.448  17.494  0.00  0.00    +0.000 A 
ATOM     22  C   UNL     1      52.851   0.715  17.416  0.00  0.00    +0.000 A 
ATOM     23  C   UNL     1      54.039   1.352  17.720  0.00  0.00    +0.000 A 
ATOM     24  N   UNL     1      54.113   2.645  18.087  0.00  0.00    +0.000 NA
ATOM     25  C   UNL     1      52.943   3.331  18.142  0.00  0.00    +0.000 A 
ENDBRANCH  18  20
ENDBRANCH   1  14
TORSDOF 4
ENDMDL
MODEL 8
REMARK VINA RESULT:    -6.609      4.728      6.281
REMARK INTER + INTRA:          -8.838
REMARK INTER:                  -8.341
REMARK INTRA:                  -0.496
REMARK UNBOUND:                -0.683
REMARK  Name = 
REMARK  4 active torsions:
REMARK  status: ('A' for Active; 'I' for Inactive)
REMARK    1  A    between atoms: C_2  and  C_5
REMARK    2  A    between atoms: N_9  and  C_10
REMARK    3  A    between atoms: C_10  and  C_11
REMARK    4  A    between atoms: C_15  and  C_16
REMARK                            x       y       z     vdW  Elec       q    Type
REMARK                         _______ _______ _______ _____ _____    ______ ____
ROOT
ATOM      1  C   UNL     1      47.059   4.214  16.254  0.00  0.00    +0.000 C 
ENDROOT
BRANCH   1   6
ATOM      2  C   UNL     1      45.159   4.564  11.672  0.00  0.00    +0.000 A 
ATOM      3  C   UNL     1      45.571   5.790  12.128  0.00  0.00    +0.000 A 
ATOM      4  N   UNL     1      46.246   5.970  13.282  0.00  0.00    +0.000 NA
ATOM      5  C   UNL     1      46.533   4.882  14.007  0.00  0.00    +0.000 A 
ATOM      6  N   UNL     1      47.283   5.113  15.144  0.00  0.00    +0.000 N 
ATOM      7  N   UNL     1      46.153   3.645  13.660  0.00  0.00    +0.000 NA
ATOM      8  C   UNL     1      45.478   3.510  12.496  0.00  0.00    +0.000 A 
ATOM      9  H   UNL     1      47.192   6.101  15.355  0.00  0.00    +0.000 HD
BRANCH   2  11
ATOM     10  F   UNL     1      44.108   3.089  10.130  0.00  0.00    +0.000 F 
ATOM     11  C   UNL     1      44.438   4.384  10.388  0.00  0.00    +0.000 C 
ATOM     12  F   UNL     1      45.165   4.802   9.316  0.00  0.00    +0.000 F 
ATOM     13  F   UNL     1      43.270   5.080  10.341  0.00  0.00    +0.000 F 
ENDBRANCH   2  11
ENDBRANCH   1   6
BRANCH   1  14
ATOM     14  C   UNL     1      48.353   3.519  16.601  0.00  0.00    +0.000 A 
ATOM     15  C   UNL     1      48.625   2.235  16.152  0.00  0.00    +0.000 A 
ATOM     16  N   UNL     1      49.778   1.579  16.401  0.00  0.00    +0.000 NA
ATOM     17  C   UNL     1      50.708   2.233  17.141  0.00  0.00    +0.000 A 
ATOM     18  C   UNL     1      50.559   3.517  17.673  0.00  0.00    +0.000 A 
ATOM     19  C   UNL     1      49.342   4.151  17.374  0.00  0.00    +0.000 A 
BRANCH  18  20
ATOM     20  C   UNL     1      51.603   4.158  18.500  0.00  0.00    +0.000 A 
ATOM     21  C   UNL     1      52.959   4.151  18.138  0.00  0.00    +0.000 A 
ATOM     22  C   UNL     1      53.915   4.789  18.930  0.00  0.00    +0.000 A 
ATOM     23  C   UNL     1      53.496   5.418  20.087  0.00  0.00    +0.000 A 
ATOM     24  N   UNL     1      52.213   5.449  20.490  0.00  0.00    +0.000 NA
ATOM     25  C   UNL     1      51.308   4.828  19.692  0.00  0.00    +0.000 A 
ENDBRANCH  18  20
ENDBRANCH   1  14
TORSDOF 4
ENDMDL
MODEL 9
REMARK VINA RESULT:    -6.459      4.993      6.460
REMARK INTER + INTRA:          -8.653
REMARK INTER:                  -8.214
REMARK INTRA:                  -0.439
REMARK UNBOUND:                -0.683
REMARK  Name = 
REMARK  4 active torsions:
REMARK  status: ('A' for Active; 'I' for Inactive)
REMARK    1  A    between atoms: C_2  and  C_5
REMARK    2  A    between atoms: N_9  and  C_10
REMARK    3  A    between atoms: C_10  and  C_11
REMARK    4  A    between atoms: C_15  and  C_16
REMARK                            x       y       z     vdW  Elec       q    Type
REMARK                         _______ _______ _______ _____ _____    ______ ____
ROOT
ATOM      1  C   UNL     1      47.097   4.000  16.157  0.00  0.00    +0.000 C 
ENDROOT
BRANCH   1   6
ATOM      2  C   UNL     1      45.080   4.427  11.632  0.00  0.00    +0.000 A 
ATOM      3  C   UNL     1      45.362   5.660  12.162  0.00  0.00    +0.000 A 
ATOM      4  N   UNL     1      46.036   5.840  13.317  0.00  0.00    +0.000 NA
ATOM      5  C   UNL     1      46.456   4.746  13.965  0.00  0.00    +0.000 A 
ATOM      6  N   UNL     1      47.198   4.987  15.105  0.00  0.00    +0.000 N 
ATOM      7  N   UNL     1      46.209   3.500  13.543  0.00  0.00    +0.000 NA
ATOM      8  C   UNL     1      45.530   3.365  12.380  0.00  0.00    +0.000 A 
ATOM      9  H   UNL     1      47.003   5.943  15.382  0.00  0.00    +0.000 HD
BRANCH   2  11
ATOM     10  F   UNL     1      43.213   4.982  10.266  0.00  0.00    +0.000 F 
ATOM     11  C   UNL     1      44.358   4.250  10.348  0.00  0.00    +0.000 C 
ATOM     12  F   UNL     1      43.988   2.959  10.129  0.00  0.00    +0.000 F 
ATOM     13  F   UNL     1      45.107   4.611   9.271  0.00  0.00    +0.000 F 
ENDBRANCH   2  11
ENDBRANCH   1   6
BRANCH   1  14
ATOM     14  C   UNL     1      47.847   4.488  17.372  0.00  0.00    +0.000 A 
ATOM     15  C   UNL     1      49.001   3.854  17.811  0.00  0.00    +0.000 A 
ATOM     16  N   UNL     1      49.731   4.267  18.869  0.00  0.00    +0.000 NA
ATOM     17  C   UNL     1      49.286   5.366  19.528  0.00  0.00    +0.000 A 
ATOM     18  C   UNL     1      48.133   6.087  19.209  0.00  0.00    +0.000 A 
ATOM     19  C   UNL     1      47.420   5.615  18.095  0.00  0.00    +0.000 A 
BRANCH  18  20
ATOM     20  C   UNL     1      47.690   7.260  19.992  0.00  0.00    +0.000 A 
ATOM     21  C   UNL     1      47.436   8.507  19.402  0.00  0.00    +0.000 A 
ATOM     22  C   UNL     1      46.994   9.586  20.169  0.00  0.00    +0.000 A 
ATOM     23  C   UNL     1      46.825   9.401  21.528  0.00  0.00    +0.000 A 
ATOM     24  N   UNL     1      47.063   8.232  22.152  0.00  0.00    +0.000 NA
ATOM     25  C   UNL     1      47.481   7.201  21.374  0.00  0.00    +0.000 A 
ENDBRANCH  18  20
ENDBRANCH   1  14
TORSDOF 4
ENDMDL
