MODEL 1
REMARK VINA RESULT:    -8.422      0.000      0.000
REMARK INTER + INTRA:         -13.500
REMARK INTER:                 -12.361
REMARK INTRA:                  -1.139
REMARK UNBOUND:                -1.139
REMARK  Name = 
REMARK  11 active torsions:
REMARK  status: ('A' for Active; 'I' for Inactive)
REMARK    1  A    between atoms: C_1  and  O_2
REMARK    2  A    between atoms: O_2  and  C_3
REMARK    3  A    between atoms: C_5  and  C_6
REMARK    4  A    between atoms: C_8  and  C_9
REMARK    5  A    between atoms: C_9  and  C_10
REMARK    6  A    between atoms: C_9  and  C_11
REMARK    7  A    between atoms: C_11  and  N_12
REMARK    8  A    between atoms: N_12  and  C_13
REMARK    9  A    between atoms: C_16  and  C_17
REMARK   10  A    between atoms: C_24  and  O_25
REMARK   11  A    between atoms: O_25  and  C_26
REMARK                            x       y       z     vdW  Elec       q    Type
REMARK                         _______ _______ _______ _____ _____    ______ ____
ROOT
ATOM      1  C   UNL     1      45.192   4.946  12.139  0.00  0.00    +0.000 C 
ATOM      2  C   UNL     1      43.887   4.937  12.953  0.00  0.00    +0.000 C 
ENDROOT
BRANCH   1   5
ATOM      3  C   UNL     1      47.648   5.200  15.086  0.00  0.00    +0.000 A 
ATOM      4  C   UNL     1      46.579   4.792  14.285  0.00  0.00    +0.000 A 
ATOM      5  C   UNL     1      46.360   5.363  13.027  0.00  0.00    +0.000 A 
ATOM      6  C   UNL     1      47.270   6.341  12.611  0.00  0.00    +0.000 A 
ATOM      7  C   UNL     1      48.326   6.676  13.446  0.00  0.00    +0.000 A 
ATOM      8  N   UNL     1      48.531   6.130  14.662  0.00  0.00    +0.000 NA
BRANCH   3  11
ATOM      9  C   UNL     1      48.682   4.780  18.668  0.00  0.00    +0.000 A 
ATOM     10  C   UNL     1      48.338   5.395  17.476  0.00  0.00    +0.000 A 
ATOM     11  C   UNL     1      47.906   4.602  16.405  0.00  0.00    +0.000 A 
ATOM     12  C   UNL     1      47.776   3.224  16.636  0.00  0.00    +0.000 A 
ATOM     13  C   UNL     1      48.116   2.707  17.874  0.00  0.00    +0.000 A 
ATOM     14  N   UNL     1      48.580   3.453  18.894  0.00  0.00    +0.000 NA
BRANCH   9  16
ATOM     15  C   UNL     1      49.461   6.906  19.174  0.00  0.00    +0.000 C 
ATOM     16  O   UNL     1      49.167   5.602  19.665  0.00  0.00    +0.000 OA
ENDBRANCH   9  16
ENDBRANCH   3  11
BRANCH   7  17
ATOM     17  O   UNL     1      49.217   7.618  12.969  0.00  0.00    +0.000 OA
ATOM     18  C   UNL     1      49.281   7.637  11.544  0.00  0.00    +0.000 C 
ENDBRANCH   7  17
ENDBRANCH   1   5
BRANCH   1  19
ATOM     19  C   UNL     1      44.946   5.823  10.883  0.00  0.00    +0.000 C 
BRANCH  19  20
ATOM     20  N   UNL     1      44.179   5.116   9.846  0.00  0.00    +0.000 N 
ATOM     21  H   UNL     1      43.668   5.753   9.237  0.00  0.00    +0.000 HD
BRANCH  20  22
ATOM     22  C   UNL     1      44.979   4.256   9.062  0.00  0.00    +0.000 A 
ATOM     23  N   UNL     1      45.835   4.811   8.175  0.00  0.00    +0.000 NA
ATOM     24  C   UNL     1      46.622   3.992   7.431  0.00  0.00    +0.000 A 
ATOM     25  C   UNL     1      46.612   2.613   7.524  0.00  0.00    +0.000 A 
ATOM     26  C   UNL     1      45.760   2.043   8.471  0.00  0.00    +0.000 A 
ATOM     27  C   UNL     1      44.951   2.867   9.259  0.00  0.00    +0.000 A 
ATOM     28 CL   UNL     1      43.890   2.137  10.409  0.00  0.00    +0.000 Cl
BRANCH  25  29
ATOM     29  C   UNL     1      47.439   1.735   6.664  0.00  0.00    +0.000 C 
ATOM     30  N   UNL     1      48.440   2.285   5.914  0.00  0.00    +0.000 N 
ATOM     31  O   UNL     1      47.225   0.530   6.611  0.00  0.00    +0.000 OA
ATOM     32  H   UNL     1      48.675   3.264   5.848  0.00  0.00    +0.000 HD
ATOM     33  H   UNL     1      48.960   1.649   5.320  0.00  0.00    +0.000 HD
ENDBRANCH  25  29
ENDBRANCH  20  22
ENDBRANCH  19  20
ENDBRANCH   1  19
TORSDOF 8
ENDMDL
MODEL 2
REMARK VINA RESULT:    -8.263      1.941      4.788
REMARK INTER + INTRA:         -13.268
REMARK INTER:                 -12.077
REMARK INTRA:                  -1.190
REMARK UNBOUND:                -1.139
REMARK  Name = 
REMARK  11 active torsions:
REMARK  status: ('A' for Active; 'I' for Inactive)
REMARK    1  A    between atoms: C_1  and  O_2
REMARK    2  A    between atoms: O_2  and  C_3
REMARK    3  A    between atoms: C_5  and  C_6
REMARK    4  A    between atoms: C_8  and  C_9
REMARK    5  A    between atoms: C_9  and  C_10
REMARK    6  A    between atoms: C_9  and  C_11
REMARK    7  A    between atoms: C_11  and  N_12
REMARK    8  A    between atoms: N_12  and  C_13
REMARK    9  A    between atoms: C_16  and  C_17
REMARK   10  A    between atoms: C_24  and  O_25
REMARK   11  A    between atoms: O_25  and  C_26
REMARK                            x       y       z     vdW  Elec       q    Type
REMARK                         _______ _______ _______ _____ _____    ______ ____
ROOT
ATOM      1  C   UNL     1      44.947   4.778  12.041  0.00  0.00    +0.000 C 
ATOM      2  C   UNL     1      43.849   4.540  13.092  0.00  0.00    +0.000 C 
ENDROOT
BRANCH   1   5
ATOM      3  C   UNL     1      48.134   6.812  12.731  0.00  0.00    +0.000 A 
ATOM      4  C   UNL     1      46.985   6.325  12.106  0.00  0.00    +0.000 A 
ATOM      5  C   UNL     1      46.199   5.338  12.709  0.00  0.00    +0.000 A 
ATOM      6  C   UNL     1      46.610   4.885  13.967  0.00  0.00    +0.000 A 
ATOM      7  C   UNL     1      47.746   5.435  14.542  0.00  0.00    +0.000 A 
ATOM      8  N   UNL     1      48.508   6.381  13.955  0.00  0.00    +0.000 NA
BRANCH   3  11
ATOM      9  C   UNL     1      51.076   8.632  11.279  0.00  0.00    +0.000 A 
ATOM     10  C   UNL     1      50.288   7.592  11.740  0.00  0.00    +0.000 A 
ATOM     11  C   UNL     1      48.968   7.861  12.122  0.00  0.00    +0.000 A 
ATOM     12  C   UNL     1      48.499   9.171  11.939  0.00  0.00    +0.000 A 
ATOM     13  C   UNL     1      49.357  10.137  11.440  0.00  0.00    +0.000 A 
ATOM     14  N   UNL     1      50.642   9.900  11.118  0.00  0.00    +0.000 NA
BRANCH   9  16
ATOM     15  C   UNL     1      52.740   8.731   9.665  0.00  0.00    +0.000 C 
ATOM     16  O   UNL     1      52.389   8.323  10.983  0.00  0.00    +0.000 OA
ENDBRANCH   9  16
ENDBRANCH   3  11
BRANCH   7  17
ATOM     17  O   UNL     1      48.085   4.980  15.802  0.00  0.00    +0.000 OA
ATOM     18  C   UNL     1      47.579   3.673  16.064  0.00  0.00    +0.000 C 
ENDBRANCH   7  17
ENDBRANCH   1   5
BRANCH   1  19
ATOM     19  C   UNL     1      44.327   5.652  10.918  0.00  0.00    +0.000 C 
BRANCH  19  20
ATOM     20  N   UNL     1      43.711   4.844   9.854  0.00  0.00    +0.000 N 
ATOM     21  H   UNL     1      43.163   5.408   9.206  0.00  0.00    +0.000 HD
BRANCH  20  22
ATOM     22  C   UNL     1      44.652   4.077   9.133  0.00  0.00    +0.000 A 
ATOM     23  N   UNL     1      45.497   4.721   8.297  0.00  0.00    +0.000 NA
ATOM     24  C   UNL     1      46.417   3.992   7.615  0.00  0.00    +0.000 A 
ATOM     25  C   UNL     1      46.554   2.622   7.721  0.00  0.00    +0.000 A 
ATOM     26  C   UNL     1      45.711   1.963   8.617  0.00  0.00    +0.000 A 
ATOM     27  C   UNL     1      44.766   2.693   9.342  0.00  0.00    +0.000 A 
ATOM     28 CL   UNL     1      43.719   1.853  10.429  0.00  0.00    +0.000 Cl
BRANCH  25  29
ATOM     29  C   UNL     1      47.529   1.839   6.926  0.00  0.00    +0.000 C 
ATOM     30  N   UNL     1      48.569   2.485   6.318  0.00  0.00    +0.000 N 
ATOM     31  O   UNL     1      47.403   0.627   6.799  0.00  0.00    +0.000 OA
ATOM     32  H   UNL     1      48.743   3.479   6.320  0.00  0.00    +0.000 HD
ATOM     33  H   UNL     1      49.193   1.912   5.762  0.00  0.00    +0.000 HD
ENDBRANCH  25  29
ENDBRANCH  20  22
ENDBRANCH  19  20
ENDBRANCH   1  19
TORSDOF 8
ENDMDL
MODEL 3
REMARK VINA RESULT:    -7.724      3.485      6.152
REMARK INTER + INTRA:         -12.476
REMARK INTER:                 -11.721
REMARK INTRA:                  -0.755
REMARK UNBOUND:                -1.139
REMARK  Name = 
REMARK  11 active torsions:
REMARK  status: ('A' for Active; 'I' for Inactive)
REMARK    1  A    between atoms: C_1  and  O_2
REMARK    2  A    between atoms: O_2  and  C_3
REMARK    3  A    between atoms: C_5  and  C_6
REMARK    4  A    between atoms: C_8  and  C_9
REMARK    5  A    between atoms: C_9  and  C_10
REMARK    6  A    between atoms: C_9  and  C_11
REMARK    7  A    between atoms: C_11  and  N_12
REMARK    8  A    between atoms: N_12  and  C_13
REMARK    9  A    between atoms: C_16  and  C_17
REMARK   10  A    between atoms: C_24  and  O_25
REMARK   11  A    between atoms: O_25  and  C_26
REMARK                            x       y       z     vdW  Elec       q    Type
REMARK                         _______ _______ _______ _____ _____    ______ ____
ROOT
ATOM      1  C   UNL     1      45.495   5.133  11.693  0.00  0.00    +0.000 C 
ATOM      2  C   UNL     1      45.805   4.182  12.861  0.00  0.00    +0.000 C 
ENDROOT
BRANCH   1   5
ATOM      3  C   UNL     1      45.587   8.966  11.979  0.00  0.00    +0.000 A 
ATOM      4  C   UNL     1      45.175   7.673  11.650  0.00  0.00    +0.000 A 
ATOM      5  C   UNL     1      45.915   6.556  12.052  0.00  0.00    +0.000 A 
ATOM      6  C   UNL     1      47.067   6.800  12.807  0.00  0.00    +0.000 A 
ATOM      7  C   UNL     1      47.399   8.109  13.122  0.00  0.00    +0.000 A 
ATOM      8  N   UNL     1      46.689   9.186  12.727  0.00  0.00    +0.000 NA
BRANCH   3  11
ATOM      9  C   UNL     1      42.900  11.153  10.539  0.00  0.00    +0.000 A 
ATOM     10  C   UNL     1      43.546  10.021  11.006  0.00  0.00    +0.000 A 
ATOM     11  C   UNL     1      44.816  10.154  11.581  0.00  0.00    +0.000 A 
ATOM     12  C   UNL     1      45.328  11.454  11.716  0.00  0.00    +0.000 A 
ATOM     13  C   UNL     1      44.592  12.527  11.244  0.00  0.00    +0.000 A 
ATOM     14  N   UNL     1      43.393  12.405  10.644  0.00  0.00    +0.000 NA
BRANCH   9  16
ATOM     15  C   UNL     1      40.739  10.351  10.797  0.00  0.00    +0.000 C 
ATOM     16  O   UNL     1      41.683  10.954   9.918  0.00  0.00    +0.000 OA
ENDBRANCH   9  16
ENDBRANCH   3  11
BRANCH   7  17
ATOM     17  O   UNL     1      48.524   8.291  13.904  0.00  0.00    +0.000 OA
ATOM     18  C   UNL     1      49.640   8.766  13.154  0.00  0.00    +0.000 C 
ENDBRANCH   7  17
ENDBRANCH   1   5
BRANCH   1  19
ATOM     19  C   UNL     1      44.000   4.939  11.325  0.00  0.00    +0.000 C 
BRANCH  19  20
ATOM     20  N   UNL     1      43.775   4.949   9.870  0.00  0.00    +0.000 N 
ATOM     21  H   UNL     1      43.833   5.886   9.475  0.00  0.00    +0.000 HD
BRANCH  20  22
ATOM     22  C   UNL     1      44.652   4.089   9.174  0.00  0.00    +0.000 A 
ATOM     23  N   UNL     1      45.488   4.630   8.260  0.00  0.00    +0.000 NA
ATOM     24  C   UNL     1      46.347   3.811   7.600  0.00  0.00    +0.000 A 
ATOM     25  C   UNL     1      46.429   2.447   7.805  0.00  0.00    +0.000 A 
ATOM     26  C   UNL     1      45.597   1.896   8.780  0.00  0.00    +0.000 A 
ATOM     27  C   UNL     1      44.715   2.721   9.483  0.00  0.00    +0.000 A 
ATOM     28 CL   UNL     1      43.679   2.012  10.670  0.00  0.00    +0.000 Cl
BRANCH  25  29
ATOM     29  C   UNL     1      47.336   1.563   7.035  0.00  0.00    +0.000 C 
ATOM     30  N   UNL     1      48.488   2.080   6.512  0.00  0.00    +0.000 N 
ATOM     31  O   UNL     1      47.055   0.384   6.854  0.00  0.00    +0.000 OA
ATOM     32  H   UNL     1      48.794   3.039   6.562  0.00  0.00    +0.000 HD
ATOM     33  H   UNL     1      49.061   1.444   5.969  0.00  0.00    +0.000 HD
ENDBRANCH  25  29
ENDBRANCH  20  22
ENDBRANCH  19  20
ENDBRANCH   1  19
TORSDOF 8
ENDMDL
MODEL 4
REMARK VINA RESULT:    -7.477      3.184      8.147
REMARK INTER + INTRA:         -12.113
REMARK INTER:                 -10.888
REMARK INTRA:                  -1.225
REMARK UNBOUND:                -1.139
REMARK  Name = 
REMARK  11 active torsions:
REMARK  status: ('A' for Active; 'I' for Inactive)
REMARK    1  A    between atoms: C_1  and  O_2
REMARK    2  A    between atoms: O_2  and  C_3
REMARK    3  A    between atoms: C_5  and  C_6
REMARK    4  A    between atoms: C_8  and  C_9
REMARK    5  A    between atoms: C_9  and  C_10
REMARK    6  A    between atoms: C_9  and  C_11
REMARK    7  A    between atoms: C_11  and  N_12
REMARK    8  A    between atoms: N_12  and  C_13
REMARK    9  A    between atoms: C_16  and  C_17
REMARK   10  A    between atoms: C_24  and  O_25
REMARK   11  A    between atoms: O_25  and  C_26
REMARK                            x       y       z     vdW  Elec       q    Type
REMARK                         _______ _______ _______ _____ _____    ______ ____
ROOT
ATOM      1  C   UNL     1      49.128   7.995  11.951  0.00  0.00    +0.000 C 
ATOM      2  C   UNL     1      49.534   9.479  11.935  0.00  0.00    +0.000 C 
ENDROOT
BRANCH   1   5
ATOM      3  C   UNL     1      45.582   6.550  11.613  0.00  0.00    +0.000 A 
ATOM      4  C   UNL     1      46.974   6.640  11.678  0.00  0.00    +0.000 A 
ATOM      5  C   UNL     1      47.609   7.868  11.890  0.00  0.00    +0.000 A 
ATOM      6  C   UNL     1      46.784   8.986  12.050  0.00  0.00    +0.000 A 
ATOM      7  C   UNL     1      45.407   8.818  12.003  0.00  0.00    +0.000 A 
ATOM      8  N   UNL     1      44.797   7.634  11.791  0.00  0.00    +0.000 NA
BRANCH   3  11
ATOM      9  C   UNL     1      44.300   3.411  10.008  0.00  0.00    +0.000 A 
ATOM     10  C   UNL     1      45.053   4.554  10.212  0.00  0.00    +0.000 A 
ATOM     11  C   UNL     1      44.892   5.266  11.407  0.00  0.00    +0.000 A 
ATOM     12  C   UNL     1      44.021   4.727  12.365  0.00  0.00    +0.000 A 
ATOM     13  C   UNL     1      43.334   3.560  12.080  0.00  0.00    +0.000 A 
ATOM     14  N   UNL     1      43.443   2.895  10.915  0.00  0.00    +0.000 NA
BRANCH   9  16
ATOM     15  C   UNL     1      45.575   1.919   8.771  0.00  0.00    +0.000 C 
ATOM     16  O   UNL     1      44.447   2.788   8.784  0.00  0.00    +0.000 OA
ENDBRANCH   9  16
ENDBRANCH   3  11
BRANCH   7  17
ATOM     17  O   UNL     1      44.638   9.948  12.207  0.00  0.00    +0.000 OA
ATOM     18  C   UNL     1      43.826  10.266  11.079  0.00  0.00    +0.000 C 
ENDBRANCH   7  17
ENDBRANCH   1   5
BRANCH   1  19
ATOM     19  C   UNL     1      49.816   7.342  13.180  0.00  0.00    +0.000 C 
BRANCH  19  20
ATOM     20  N   UNL     1      49.248   7.811  14.454  0.00  0.00    +0.000 N 
ATOM     21  H   UNL     1      48.467   8.451  14.320  0.00  0.00    +0.000 HD
BRANCH  20  22
ATOM     22  C   UNL     1      48.850   6.751  15.299  0.00  0.00    +0.000 A 
ATOM     23  N   UNL     1      47.998   5.825  14.805  0.00  0.00    +0.000 NA
ATOM     24  C   UNL     1      47.626   4.793  15.605  0.00  0.00    +0.000 A 
ATOM     25  C   UNL     1      48.067   4.620  16.903  0.00  0.00    +0.000 A 
ATOM     26  C   UNL     1      48.980   5.553  17.397  0.00  0.00    +0.000 A 
ATOM     27  C   UNL     1      49.390   6.615  16.587  0.00  0.00    +0.000 A 
ATOM     28 CL   UNL     1      50.504   7.769  17.229  0.00  0.00    +0.000 Cl
BRANCH  25  29
ATOM     29  C   UNL     1      47.605   3.517  17.777  0.00  0.00    +0.000 C 
ATOM     30  N   UNL     1      48.328   3.200  18.893  0.00  0.00    +0.000 N 
ATOM     31  O   UNL     1      46.594   2.881  17.502  0.00  0.00    +0.000 OA
ATOM     32  H   UNL     1      49.193   3.626  19.190  0.00  0.00    +0.000 HD
ATOM     33  H   UNL     1      47.989   2.420  19.444  0.00  0.00    +0.000 HD
ENDBRANCH  25  29
ENDBRANCH  20  22
ENDBRANCH  19  20
ENDBRANCH   1  19
TORSDOF 8
ENDMDL
MODEL 5
REMARK VINA RESULT:    -7.419      3.047      8.167
REMARK INTER + INTRA:         -12.028
REMARK INTER:                 -10.853
REMARK INTRA:                  -1.175
REMARK UNBOUND:                -1.139
REMARK  Name = 
REMARK  11 active torsions:
REMARK  status: ('A' for Active; 'I' for Inactive)
REMARK    1  A    between atoms: C_1  and  O_2
REMARK    2  A    between atoms: O_2  and  C_3
REMARK    3  A    between atoms: C_5  and  C_6
REMARK    4  A    between atoms: C_8  and  C_9
REMARK    5  A    between atoms: C_9  and  C_10
REMARK    6  A    between atoms: C_9  and  C_11
REMARK    7  A    between atoms: C_11  and  N_12
REMARK    8  A    between atoms: N_12  and  C_13
REMARK    9  A    between atoms: C_16  and  C_17
REMARK   10  A    between atoms: C_24  and  O_25
REMARK   11  A    between atoms: O_25  and  C_26
REMARK                            x       y       z     vdW  Elec       q    Type
REMARK                         _______ _______ _______ _____ _____    ______ ____
ROOT
ATOM      1  C   UNL     1      48.933   6.965  14.348  0.00  0.00    +0.000 C 
ATOM      2  C   UNL     1      49.969   7.807  13.584  0.00  0.00    +0.000 C 
ENDROOT
BRANCH   1   5
ATOM      3  C   UNL     1      45.684   5.986  12.542  0.00  0.00    +0.000 A 
ATOM      4  C   UNL     1      46.915   5.893  13.193  0.00  0.00    +0.000 A 
ATOM      5  C   UNL     1      47.580   7.037  13.646  0.00  0.00    +0.000 A 
ATOM      6  C   UNL     1      46.943   8.264  13.432  0.00  0.00    +0.000 A 
ATOM      7  C   UNL     1      45.706   8.278  12.803  0.00  0.00    +0.000 A 
ATOM      8  N   UNL     1      45.070   7.175  12.360  0.00  0.00    +0.000 NA
BRANCH   3  11
ATOM      9  C   UNL     1      44.374   3.255  10.327  0.00  0.00    +0.000 A 
ATOM     10  C   UNL     1      45.157   4.306  10.773  0.00  0.00    +0.000 A 
ATOM     11  C   UNL     1      44.960   4.794  12.070  0.00  0.00    +0.000 A 
ATOM     12  C   UNL     1      44.019   4.129  12.872  0.00  0.00    +0.000 A 
ATOM     13  C   UNL     1      43.306   3.067  12.345  0.00  0.00    +0.000 A 
ATOM     14  N   UNL     1      43.452   2.622  11.083  0.00  0.00    +0.000 NA
BRANCH   9  16
ATOM     15  C   UNL     1      45.127   3.906   8.231  0.00  0.00    +0.000 C 
ATOM     16  O   UNL     1      44.563   2.861   9.017  0.00  0.00    +0.000 OA
ENDBRANCH   9  16
ENDBRANCH   3  11
BRANCH   7  17
ATOM     17  O   UNL     1      45.103   9.513  12.652  0.00  0.00    +0.000 OA
ATOM     18  C   UNL     1      45.849  10.384  11.804  0.00  0.00    +0.000 C 
ENDBRANCH   7  17
ENDBRANCH   1   5
BRANCH   1  19
ATOM     19  C   UNL     1      48.957   7.435  15.827  0.00  0.00    +0.000 C 
BRANCH  19  20
ATOM     20  N   UNL     1      48.337   6.457  16.736  0.00  0.00    +0.000 N 
ATOM     21  H   UNL     1      47.426   6.143  16.407  0.00  0.00    +0.000 HD
BRANCH  20  22
ATOM     22  C   UNL     1      49.162   5.337  16.981  0.00  0.00    +0.000 A 
ATOM     23  N   UNL     1      50.474   5.550  17.224  0.00  0.00    +0.000 NA
ATOM     24  C   UNL     1      51.270   4.480  17.479  0.00  0.00    +0.000 A 
ATOM     25  C   UNL     1      50.824   3.173  17.512  0.00  0.00    +0.000 A 
ATOM     26  C   UNL     1      49.460   2.958  17.304  0.00  0.00    +0.000 A 
ATOM     27  C   UNL     1      48.619   4.045  17.055  0.00  0.00    +0.000 A 
ATOM     28 CL   UNL     1      46.939   3.751  16.779  0.00  0.00    +0.000 Cl
BRANCH  25  29
ATOM     29  C   UNL     1      51.719   2.014  17.738  0.00  0.00    +0.000 C 
ATOM     30  N   UNL     1      52.760   2.135  18.615  0.00  0.00    +0.000 N 
ATOM     31  O   UNL     1      51.542   0.960  17.138  0.00  0.00    +0.000 OA
ATOM     32  H   UNL     1      53.023   2.963  19.127  0.00  0.00    +0.000 HD
ATOM     33  H   UNL     1      53.362   1.325  18.715  0.00  0.00    +0.000 HD
ENDBRANCH  25  29
ENDBRANCH  20  22
ENDBRANCH  19  20
ENDBRANCH   1  19
TORSDOF 8
ENDMDL
MODEL 6
REMARK VINA RESULT:    -7.304      2.198      2.788
REMARK INTER + INTRA:         -11.860
REMARK INTER:                 -11.373
REMARK INTRA:                  -0.487
REMARK UNBOUND:                -1.139
REMARK  Name = 
REMARK  11 active torsions:
REMARK  status: ('A' for Active; 'I' for Inactive)
REMARK    1  A    between atoms: C_1  and  O_2
REMARK    2  A    between atoms: O_2  and  C_3
REMARK    3  A    between atoms: C_5  and  C_6
REMARK    4  A    between atoms: C_8  and  C_9
REMARK    5  A    between atoms: C_9  and  C_10
REMARK    6  A    between atoms: C_9  and  C_11
REMARK    7  A    between atoms: C_11  and  N_12
REMARK    8  A    between atoms: N_12  and  C_13
REMARK    9  A    between atoms: C_16  and  C_17
REMARK   10  A    between atoms: C_24  and  O_25
REMARK   11  A    between atoms: O_25  and  C_26
REMARK                            x       y       z     vdW  Elec       q    Type
REMARK                         _______ _______ _______ _____ _____    ______ ____
ROOT
ATOM      1  C   UNL     1      45.610   4.788  11.719  0.00  0.00    +0.000 C 
ATOM      2  C   UNL     1      45.757   3.557  12.630  0.00  0.00    +0.000 C 
ENDROOT
BRANCH   1   5
ATOM      3  C   UNL     1      47.816   7.031  13.929  0.00  0.00    +0.000 A 
ATOM      4  C   UNL     1      47.268   5.899  13.322  0.00  0.00    +0.000 A 
ATOM      5  C   UNL     1      46.235   6.010  12.386  0.00  0.00    +0.000 A 
ATOM      6  C   UNL     1      45.796   7.302  12.080  0.00  0.00    +0.000 A 
ATOM      7  C   UNL     1      46.406   8.383  12.700  0.00  0.00    +0.000 A 
ATOM      8  N   UNL     1      47.397   8.274  13.609  0.00  0.00    +0.000 NA
BRANCH   3  11
ATOM      9  C   UNL     1      51.196   7.330  15.528  0.00  0.00    +0.000 A 
ATOM     10  C   UNL     1      50.153   7.536  14.642  0.00  0.00    +0.000 A 
ATOM     11  C   UNL     1      48.914   6.939  14.904  0.00  0.00    +0.000 A 
ATOM     12  C   UNL     1      48.786   6.221  16.103  0.00  0.00    +0.000 A 
ATOM     13  C   UNL     1      49.881   6.097  16.941  0.00  0.00    +0.000 A 
ATOM     14  N   UNL     1      51.090   6.624  16.674  0.00  0.00    +0.000 NA
BRANCH   9  16
ATOM     15  C   UNL     1      53.500   7.070  15.613  0.00  0.00    +0.000 C 
ATOM     16  O   UNL     1      52.413   7.883  15.184  0.00  0.00    +0.000 OA
ENDBRANCH   9  16
ENDBRANCH   3  11
BRANCH   7  17
ATOM     17  O   UNL     1      45.962   9.639  12.332  0.00  0.00    +0.000 OA
ATOM     18  C   UNL     1      44.704   9.598  11.660  0.00  0.00    +0.000 C 
ENDBRANCH   7  17
ENDBRANCH   1   5
BRANCH   1  19
ATOM     19  C   UNL     1      44.108   4.911  11.349  0.00  0.00    +0.000 C 
BRANCH  19  20
ATOM     20  N   UNL     1      43.895   5.019   9.897  0.00  0.00    +0.000 N 
ATOM     21  H   UNL     1      43.955   5.981   9.566  0.00  0.00    +0.000 HD
BRANCH  20  22
ATOM     22  C   UNL     1      44.779   4.209   9.151  0.00  0.00    +0.000 A 
ATOM     23  N   UNL     1      45.674   4.815   8.341  0.00  0.00    +0.000 NA
ATOM     24  C   UNL     1      46.540   4.043   7.636  0.00  0.00    +0.000 A 
ATOM     25  C   UNL     1      46.573   2.663   7.694  0.00  0.00    +0.000 A 
ATOM     26  C   UNL     1      45.677   2.039   8.565  0.00  0.00    +0.000 A 
ATOM     27  C   UNL     1      44.787   2.814   9.312  0.00  0.00    +0.000 A 
ATOM     28 CL   UNL     1      43.674   2.018  10.366  0.00  0.00    +0.000 Cl
BRANCH  25  29
ATOM     29  C   UNL     1      47.489   1.836   6.874  0.00  0.00    +0.000 C 
ATOM     30  N   UNL     1      48.598   2.414   6.323  0.00  0.00    +0.000 N 
ATOM     31  O   UNL     1      47.254   0.650   6.677  0.00  0.00    +0.000 OA
ATOM     32  H   UNL     1      48.864   3.386   6.384  0.00  0.00    +0.000 HD
ATOM     33  H   UNL     1      49.180   1.816   5.747  0.00  0.00    +0.000 HD
ENDBRANCH  25  29
ENDBRANCH  20  22
ENDBRANCH  19  20
ENDBRANCH   1  19
TORSDOF 8
ENDMDL
MODEL 7
REMARK VINA RESULT:    -6.919      2.236      4.940
REMARK INTER + INTRA:         -11.295
REMARK INTER:                 -10.467
REMARK INTRA:                  -0.828
REMARK UNBOUND:                -1.139
REMARK  Name = 
REMARK  11 active torsions:
REMARK  status: ('A' for Active; 'I' for Inactive)
REMARK    1  A    between atoms: C_1  and  O_2
REMARK    2  A    between atoms: O_2  and  C_3
REMARK    3  A    between atoms: C_5  and  C_6
REMARK    4  A    between atoms: C_8  and  C_9
REMARK    5  A    between atoms: C_9  and  C_10
REMARK    6  A    between atoms: C_9  and  C_11
REMARK    7  A    between atoms: C_11  and  N_12
REMARK    8  A    between atoms: N_12  and  C_13
REMARK    9  A    between atoms: C_16  and  C_17
REMARK   10  A    between atoms: C_24  and  O_25
REMARK   11  A    between atoms: O_25  and  C_26
REMARK                            x       y       z     vdW  Elec       q    Type
REMARK                         _______ _______ _______ _____ _____    ______ ____
ROOT
ATOM      1  C   UNL     1      44.911   4.608  12.212  0.00  0.00    +0.000 C 
ATOM      2  C   UNL     1      43.814   4.351  13.259  0.00  0.00    +0.000 C 
ENDROOT
BRANCH   1   5
ATOM      3  C   UNL     1      48.025   6.744  12.937  0.00  0.00    +0.000 A 
ATOM      4  C   UNL     1      46.886   6.234  12.309  0.00  0.00    +0.000 A 
ATOM      5  C   UNL     1      46.150   5.193  12.884  0.00  0.00    +0.000 A 
ATOM      6  C   UNL     1      46.599   4.709  14.117  0.00  0.00    +0.000 A 
ATOM      7  C   UNL     1      47.721   5.283  14.697  0.00  0.00    +0.000 A 
ATOM      8  N   UNL     1      48.434   6.281  14.138  0.00  0.00    +0.000 NA
BRANCH   3  11
ATOM      9  C   UNL     1      48.988  10.129  11.640  0.00  0.00    +0.000 A 
ATOM     10  C   UNL     1      48.273   9.142  12.295  0.00  0.00    +0.000 A 
ATOM     11  C   UNL     1      48.805   7.849  12.358  0.00  0.00    +0.000 A 
ATOM     12  C   UNL     1      50.082   7.651  11.811  0.00  0.00    +0.000 A 
ATOM     13  C   UNL     1      50.733   8.710  11.202  0.00  0.00    +0.000 A 
ATOM     14  N   UNL     1      50.208   9.945  11.091  0.00  0.00    +0.000 NA
BRANCH   9  16
ATOM     15  C   UNL     1      48.182  11.753  10.192  0.00  0.00    +0.000 C 
ATOM     16  O   UNL     1      48.384  11.368  11.547  0.00  0.00    +0.000 OA
ENDBRANCH   9  16
ENDBRANCH   3  11
BRANCH   7  17
ATOM     17  O   UNL     1      48.097   4.793  15.934  0.00  0.00    +0.000 OA
ATOM     18  C   UNL     1      47.503   3.530  16.224  0.00  0.00    +0.000 C 
ENDBRANCH   7  17
ENDBRANCH   1   5
BRANCH   1  19
ATOM     19  C   UNL     1      44.280   5.469  11.085  0.00  0.00    +0.000 C 
BRANCH  19  20
ATOM     20  N   UNL     1      43.594   4.651  10.072  0.00  0.00    +0.000 N 
ATOM     21  H   UNL     1      43.124   5.217   9.368  0.00  0.00    +0.000 HD
BRANCH  20  22
ATOM     22  C   UNL     1      44.454   3.728   9.438  0.00  0.00    +0.000 A 
ATOM     23  N   UNL     1      44.084   2.429   9.401  0.00  0.00    +0.000 NA
ATOM     24  C   UNL     1      44.897   1.539   8.776  0.00  0.00    +0.000 A 
ATOM     25  C   UNL     1      46.089   1.875   8.164  0.00  0.00    +0.000 A 
ATOM     26  C   UNL     1      46.449   3.224   8.163  0.00  0.00    +0.000 A 
ATOM     27  C   UNL     1      45.621   4.161   8.787  0.00  0.00    +0.000 A 
ATOM     28 CL   UNL     1      46.098   5.821   8.793  0.00  0.00    +0.000 Cl
BRANCH  25  29
ATOM     29  C   UNL     1      46.989   0.880   7.535  0.00  0.00    +0.000 C 
ATOM     30  N   UNL     1      48.064   1.314   6.812  0.00  0.00    +0.000 N 
ATOM     31  O   UNL     1      46.768  -0.321   7.646  0.00  0.00    +0.000 OA
ATOM     32  H   UNL     1      48.314   2.272   6.620  0.00  0.00    +0.000 HD
ATOM     33  H   UNL     1      48.634   0.597   6.377  0.00  0.00    +0.000 HD
ENDBRANCH  25  29
ENDBRANCH  20  22
ENDBRANCH  19  20
ENDBRANCH   1  19
TORSDOF 8
ENDMDL
MODEL 8
REMARK VINA RESULT:    -6.749      2.758      8.761
REMARK INTER + INTRA:         -11.045
REMARK INTER:                 -10.099
REMARK INTRA:                  -0.946
REMARK UNBOUND:                -1.139
REMARK  Name = 
REMARK  11 active torsions:
REMARK  status: ('A' for Active; 'I' for Inactive)
REMARK    1  A    between atoms: C_1  and  O_2
REMARK    2  A    between atoms: O_2  and  C_3
REMARK    3  A    between atoms: C_5  and  C_6
REMARK    4  A    between atoms: C_8  and  C_9
REMARK    5  A    between atoms: C_9  and  C_10
REMARK    6  A    between atoms: C_9  and  C_11
REMARK    7  A    between atoms: C_11  and  N_12
REMARK    8  A    between atoms: N_12  and  C_13
REMARK    9  A    between atoms: C_16  and  C_17
REMARK   10  A    between atoms: C_24  and  O_25
REMARK   11  A    between atoms: O_25  and  C_26
REMARK                            x       y       z     vdW  Elec       q    Type
REMARK                         _______ _______ _______ _____ _____    ______ ____
ROOT
ATOM      1  C   UNL     1      49.228   7.426  13.146  0.00  0.00    +0.000 C 
ATOM      2  C   UNL     1      49.907   8.733  12.702  0.00  0.00    +0.000 C 
ENDROOT
BRANCH   1   5
ATOM      3  C   UNL     1      45.751   6.253  12.001  0.00  0.00    +0.000 A 
ATOM      4  C   UNL     1      47.084   6.233  12.415  0.00  0.00    +0.000 A 
ATOM      5  C   UNL     1      47.767   7.419  12.705  0.00  0.00    +0.000 A 
ATOM      6  C   UNL     1      47.046   8.610  12.578  0.00  0.00    +0.000 A 
ATOM      7  C   UNL     1      45.715   8.552  12.189  0.00  0.00    +0.000 A 
ATOM      8  N   UNL     1      45.060   7.409  11.902  0.00  0.00    +0.000 NA
BRANCH   3  11
ATOM      9  C   UNL     1      44.289   3.326  10.165  0.00  0.00    +0.000 A 
ATOM     10  C   UNL     1      45.090   4.420  10.442  0.00  0.00    +0.000 A 
ATOM     11  C   UNL     1      45.008   5.017  11.706  0.00  0.00    +0.000 A 
ATOM     12  C   UNL     1      44.162   4.413  12.649  0.00  0.00    +0.000 A 
ATOM     13  C   UNL     1      43.423   3.301  12.286  0.00  0.00    +0.000 A 
ATOM     14  N   UNL     1      43.456   2.750  11.058  0.00  0.00    +0.000 NA
BRANCH   9  16
ATOM     15  C   UNL     1      45.407   1.866   8.750  0.00  0.00    +0.000 C 
ATOM     16  O   UNL     1      44.359   2.821   8.882  0.00  0.00    +0.000 OA
ENDBRANCH   9  16
ENDBRANCH   3  11
BRANCH   7  17
ATOM     17  O   UNL     1      45.038   9.755  12.118  0.00  0.00    +0.000 OA
ATOM     18  C   UNL     1      44.064   9.772  11.076  0.00  0.00    +0.000 C 
ENDBRANCH   7  17
ENDBRANCH   1   5
BRANCH   1  19
ATOM     19  C   UNL     1      49.478   7.272  14.670  0.00  0.00    +0.000 C 
BRANCH  19  20
ATOM     20  N   UNL     1      48.265   6.871  15.400  0.00  0.00    +0.000 N 
ATOM     21  H   UNL     1      47.681   6.233  14.862  0.00  0.00    +0.000 HD
BRANCH  20  22
ATOM     22  C   UNL     1      48.547   6.302  16.661  0.00  0.00    +0.000 A 
ATOM     23  N   UNL     1      49.218   7.050  17.565  0.00  0.00    +0.000 NA
ATOM     24  C   UNL     1      49.477   6.516  18.786  0.00  0.00    +0.000 A 
ATOM     25  C   UNL     1      49.091   5.248  19.175  0.00  0.00    +0.000 A 
ATOM     26  C   UNL     1      48.359   4.493  18.258  0.00  0.00    +0.000 A 
ATOM     27  C   UNL     1      48.068   5.026  16.999  0.00  0.00    +0.000 A 
ATOM     28 CL   UNL     1      47.180   4.064  15.873  0.00  0.00    +0.000 Cl
BRANCH  25  29
ATOM     29  C   UNL     1      49.431   4.664  20.494  0.00  0.00    +0.000 C 
ATOM     30  N   UNL     1      50.741   4.596  20.878  0.00  0.00    +0.000 N 
ATOM     31  O   UNL     1      48.553   4.233  21.233  0.00  0.00    +0.000 OA
ATOM     32  H   UNL     1      51.543   4.879  20.334  0.00  0.00    +0.000 HD
ATOM     33  H   UNL     1      50.927   4.163  21.775  0.00  0.00    +0.000 HD
ENDBRANCH  25  29
ENDBRANCH  20  22
ENDBRANCH  19  20
ENDBRANCH   1  19
TORSDOF 8
ENDMDL
MODEL 9
REMARK VINA RESULT:    -6.681      3.934      7.632
REMARK INTER + INTRA:         -10.945
REMARK INTER:                  -9.751
REMARK INTRA:                  -1.194
REMARK UNBOUND:                -1.139
REMARK  Name = 
REMARK  11 active torsions:
REMARK  status: ('A' for Active; 'I' for Inactive)
REMARK    1  A    between atoms: C_1  and  O_2
REMARK    2  A    between atoms: O_2  and  C_3
REMARK    3  A    between atoms: C_5  and  C_6
REMARK    4  A    between atoms: C_8  and  C_9
REMARK    5  A    between atoms: C_9  and  C_10
REMARK    6  A    between atoms: C_9  and  C_11
REMARK    7  A    between atoms: C_11  and  N_12
REMARK    8  A    between atoms: N_12  and  C_13
REMARK    9  A    between atoms: C_16  and  C_17
REMARK   10  A    between atoms: C_24  and  O_25
REMARK   11  A    between atoms: O_25  and  C_26
REMARK                            x       y       z     vdW  Elec       q    Type
REMARK                         _______ _______ _______ _____ _____    ______ ____
ROOT
ATOM      1  C   UNL     1      48.769   7.948  13.688  0.00  0.00    +0.000 C 
ATOM      2  C   UNL     1      49.478   7.802  12.331  0.00  0.00    +0.000 C 
ENDROOT
BRANCH   1   5
ATOM      3  C   UNL     1      46.153   5.132  13.590  0.00  0.00    +0.000 A 
ATOM      4  C   UNL     1      46.862   6.292  13.269  0.00  0.00    +0.000 A 
ATOM      5  C   UNL     1      47.985   6.678  14.008  0.00  0.00    +0.000 A 
ATOM      6  C   UNL     1      48.367   5.840  15.061  0.00  0.00    +0.000 A 
ATOM      7  C   UNL     1      47.633   4.689  15.304  0.00  0.00    +0.000 A 
ATOM      8  N   UNL     1      46.545   4.322  14.596  0.00  0.00    +0.000 NA
BRANCH   3  11
ATOM      9  C   UNL     1      43.990   3.375  11.078  0.00  0.00    +0.000 A 
ATOM     10  C   UNL     1      45.087   3.676  11.867  0.00  0.00    +0.000 A 
ATOM     11  C   UNL     1      44.979   4.699  12.816  0.00  0.00    +0.000 A 
ATOM     12  C   UNL     1      43.724   5.311  12.962  0.00  0.00    +0.000 A 
ATOM     13  C   UNL     1      42.677   4.919  12.146  0.00  0.00    +0.000 A 
ATOM     14  N   UNL     1      42.785   3.973  11.195  0.00  0.00    +0.000 NA
BRANCH   9  16
ATOM     15  C   UNL     1      45.085   2.838   9.104  0.00  0.00    +0.000 C 
ATOM     16  O   UNL     1      44.175   2.407  10.111  0.00  0.00    +0.000 OA
ENDBRANCH   9  16
ENDBRANCH   3  11
BRANCH   7  17
ATOM     17  O   UNL     1      48.076   3.877  16.330  0.00  0.00    +0.000 OA
ATOM     18  C   UNL     1      47.205   3.899  17.460  0.00  0.00    +0.000 C 
ENDBRANCH   7  17
ENDBRANCH   1   5
BRANCH   1  19
ATOM     19  C   UNL     1      47.944   9.261  13.638  0.00  0.00    +0.000 C 
BRANCH  19  20
ATOM     20  N   UNL     1      47.767   9.761  12.265  0.00  0.00    +0.000 N 
ATOM     21  H   UNL     1      48.232   9.173  11.575  0.00  0.00    +0.000 HD
BRANCH  20  22
ATOM     22  C   UNL     1      46.410   9.921  11.910  0.00  0.00    +0.000 A 
ATOM     23  N   UNL     1      45.635   8.817  11.828  0.00  0.00    +0.000 NA
ATOM     24  C   UNL     1      44.325   8.965  11.506  0.00  0.00    +0.000 A 
ATOM     25  C   UNL     1      43.720  10.182  11.259  0.00  0.00    +0.000 A 
ATOM     26  C   UNL     1      44.510  11.326  11.386  0.00  0.00    +0.000 A 
ATOM     27  C   UNL     1      45.858  11.200  11.731  0.00  0.00    +0.000 A 
ATOM     28 CL   UNL     1      46.821  12.628  11.862  0.00  0.00    +0.000 Cl
BRANCH  25  29
ATOM     29  C   UNL     1      42.301  10.317  10.855  0.00  0.00    +0.000 C 
ATOM     30  N   UNL     1      41.410   9.343  11.208  0.00  0.00    +0.000 N 
ATOM     31  O   UNL     1      41.926  11.282  10.199  0.00  0.00    +0.000 OA
ATOM     32  H   UNL     1      41.616   8.491  11.706  0.00  0.00    +0.000 HD
ATOM     33  H   UNL     1      40.456   9.465  10.885  0.00  0.00    +0.000 HD
ENDBRANCH  25  29
ENDBRANCH  20  22
ENDBRANCH  19  20
ENDBRANCH   1  19
TORSDOF 8
ENDMDL
