MODEL 1
REMARK VINA RESULT:    -8.949      0.000      0.000
REMARK INTER + INTRA:         -12.937
REMARK INTER:                 -12.088
REMARK INTRA:                  -0.849
REMARK UNBOUND:                -0.849
REMARK  Name = 
REMARK  6 active torsions:
REMARK  status: ('A' for Active; 'I' for Inactive)
REMARK    1  A    between atoms: C_4  and  C_5
REMARK    2  A    between atoms: C_9  and  N_10
REMARK    3  A    between atoms: N_10  and  C_11
REMARK    4  A    between atoms: C_11  and  C_12
REMARK    5  A    between atoms: C_16  and  C_17
REMARK    6  A    between atoms: C_24  and  C_25
REMARK                            x       y       z     vdW  Elec       q    Type
REMARK                         _______ _______ _______ _____ _____    ______ ____
ROOT
ATOM      1  C   UNL     1      46.231   6.162  12.812  0.00  0.00    +0.000 A 
ATOM      2  C   UNL     1      47.229   5.760  13.699  0.00  0.00    +0.000 A 
ATOM      3  N   UNL     1      47.472   4.481  14.069  0.00  0.00    +0.000 NA
ATOM      4  C   UNL     1      46.662   3.538  13.536  0.00  0.00    +0.000 A 
ATOM      5  C   UNL     1      45.596   3.789  12.674  0.00  0.00    +0.000 A 
ATOM      6  C   UNL     1      45.423   5.128  12.299  0.00  0.00    +0.000 A 
ENDROOT
BRANCH   1  10
ATOM      7  F   UNL     1      47.777  10.781  12.544  0.00  0.00    +0.000 F 
ATOM      8  C   UNL     1      46.820   9.878  12.292  0.00  0.00    +0.000 A 
ATOM      9  C   UNL     1      47.022   8.550  12.660  0.00  0.00    +0.000 A 
ATOM     10  C   UNL     1      46.035   7.577  12.423  0.00  0.00    +0.000 A 
ATOM     11  C   UNL     1      44.849   8.007  11.795  0.00  0.00    +0.000 A 
ATOM     12  C   UNL     1      44.644   9.347  11.410  0.00  0.00    +0.000 A 
ATOM     13  C   UNL     1      45.648  10.285  11.672  0.00  0.00    +0.000 A 
BRANCH  12  14
ATOM     14  C   UNL     1      43.369   9.776  10.729  0.00  0.00    +0.000 C 
ATOM     15  F   UNL     1      43.559  10.223   9.455  0.00  0.00    +0.000 F 
ATOM     16  F   UNL     1      42.463   8.765  10.638  0.00  0.00    +0.000 F 
ATOM     17  F   UNL     1      42.740  10.787  11.388  0.00  0.00    +0.000 F 
ENDBRANCH  12  14
ENDBRANCH   1  10
BRANCH   5  18
ATOM     18  N   UNL     1      44.851   2.742  12.137  0.00  0.00    +0.000 N 
ATOM     19  H   UNL     1      44.442   2.116  12.825  0.00  0.00    +0.000 HD
BRANCH  18  20
ATOM     20  C   UNL     1      43.993   2.940  10.971  0.00  0.00    +0.000 C 
BRANCH  20  21
ATOM     21  C   UNL     1      44.814   3.144   9.718  0.00  0.00    +0.000 A 
ATOM     22  C   UNL     1      45.005   4.435   9.209  0.00  0.00    +0.000 A 
ATOM     23  C   UNL     1      45.806   4.648   8.085  0.00  0.00    +0.000 A 
ATOM     24  C   UNL     1      46.443   3.573   7.464  0.00  0.00    +0.000 A 
ATOM     25  C   UNL     1      46.287   2.274   7.962  0.00  0.00    +0.000 A 
ATOM     26  C   UNL     1      45.468   2.072   9.085  0.00  0.00    +0.000 A 
BRANCH  25  27
ATOM     27  C   UNL     1      46.990   1.096   7.337  0.00  0.00    +0.000 C 
ATOM     28  F   UNL     1      46.635   0.873   6.041  0.00  0.00    +0.000 F 
ATOM     29  F   UNL     1      48.346   1.250   7.327  0.00  0.00    +0.000 F 
ATOM     30  F   UNL     1      46.752  -0.072   7.995  0.00  0.00    +0.000 F 
ENDBRANCH  25  27
ENDBRANCH  20  21
ENDBRANCH  18  20
ENDBRANCH   5  18
TORSDOF 6
ENDMDL
MODEL 2
REMARK VINA RESULT:    -8.678      1.019      2.739
REMARK INTER + INTRA:         -12.571
REMARK INTER:                 -11.737
REMARK INTRA:                  -0.834
REMARK UNBOUND:                -0.849
REMARK  Name = 
REMARK  6 active torsions:
REMARK  status: ('A' for Active; 'I' for Inactive)
REMARK    1  A    between atoms: C_4  and  C_5
REMARK    2  A    between atoms: C_9  and  N_10
REMARK    3  A    between atoms: N_10  and  C_11
REMARK    4  A    between atoms: C_11  and  C_12
REMARK    5  A    between atoms: C_16  and  C_17
REMARK    6  A    between atoms: C_24  and  C_25
REMARK                            x       y       z     vdW  Elec       q    Type
REMARK                         _______ _______ _______ _____ _____    ______ ____
ROOT
ATOM      1  C   UNL     1      46.474   6.055  12.912  0.00  0.00    +0.000 A 
ATOM      2  C   UNL     1      47.394   5.537  13.823  0.00  0.00    +0.000 A 
ATOM      3  N   UNL     1      47.497   4.232  14.167  0.00  0.00    +0.000 NA
ATOM      4  C   UNL     1      46.620   3.386  13.580  0.00  0.00    +0.000 A 
ATOM      5  C   UNL     1      45.616   3.760  12.688  0.00  0.00    +0.000 A 
ATOM      6  C   UNL     1      45.589   5.118  12.343  0.00  0.00    +0.000 A 
ENDROOT
BRANCH   1  10
ATOM      7  F   UNL     1      44.036  10.224  12.218  0.00  0.00    +0.000 F 
ATOM      8  C   UNL     1      45.204   9.566  12.216  0.00  0.00    +0.000 A 
ATOM      9  C   UNL     1      45.227   8.216  12.558  0.00  0.00    +0.000 A 
ATOM     10  C   UNL     1      46.431   7.492  12.555  0.00  0.00    +0.000 A 
ATOM     11  C   UNL     1      47.600   8.193  12.198  0.00  0.00    +0.000 A 
ATOM     12  C   UNL     1      47.585   9.561  11.862  0.00  0.00    +0.000 A 
ATOM     13  C   UNL     1      46.363  10.243  11.870  0.00  0.00    +0.000 A 
BRANCH  12  14
ATOM     14  C   UNL     1      48.853  10.289  11.496  0.00  0.00    +0.000 C 
ATOM     15  F   UNL     1      49.344  11.065  12.503  0.00  0.00    +0.000 F 
ATOM     16  F   UNL     1      49.860   9.439  11.156  0.00  0.00    +0.000 F 
ATOM     17  F   UNL     1      48.688  11.122  10.432  0.00  0.00    +0.000 F 
ENDBRANCH  12  14
ENDBRANCH   1  10
BRANCH   5  18
ATOM     18  N   UNL     1      44.794   2.804  12.097  0.00  0.00    +0.000 N 
ATOM     19  H   UNL     1      44.328   2.182  12.752  0.00  0.00    +0.000 HD
BRANCH  18  20
ATOM     20  C   UNL     1      43.968   3.126  10.936  0.00  0.00    +0.000 C 
BRANCH  20  21
ATOM     21  C   UNL     1      44.808   3.257   9.687  0.00  0.00    +0.000 A 
ATOM     22  C   UNL     1      45.083   4.526   9.160  0.00  0.00    +0.000 A 
ATOM     23  C   UNL     1      45.904   4.669   8.038  0.00  0.00    +0.000 A 
ATOM     24  C   UNL     1      46.477   3.546   7.440  0.00  0.00    +0.000 A 
ATOM     25  C   UNL     1      46.235   2.268   7.957  0.00  0.00    +0.000 A 
ATOM     26  C   UNL     1      45.398   2.137   9.076  0.00  0.00    +0.000 A 
BRANCH  25  27
ATOM     27  C   UNL     1      46.868   1.038   7.356  0.00  0.00    +0.000 C 
ATOM     28  F   UNL     1      46.434  -0.126   7.913  0.00  0.00    +0.000 F 
ATOM     29  F   UNL     1      46.613   0.927   6.021  0.00  0.00    +0.000 F 
ATOM     30  F   UNL     1      48.224   1.028   7.480  0.00  0.00    +0.000 F 
ENDBRANCH  25  27
ENDBRANCH  20  21
ENDBRANCH  18  20
ENDBRANCH   5  18
TORSDOF 6
ENDMDL
MODEL 3
REMARK VINA RESULT:    -8.237      3.935      7.566
REMARK INTER + INTRA:         -11.975
REMARK INTER:                 -10.843
REMARK INTRA:                  -1.132
REMARK UNBOUND:                -0.849
REMARK  Name = 
REMARK  6 active torsions:
REMARK  status: ('A' for Active; 'I' for Inactive)
REMARK    1  A    between atoms: C_4  and  C_5
REMARK    2  A    between atoms: C_9  and  N_10
REMARK    3  A    between atoms: N_10  and  C_11
REMARK    4  A    between atoms: C_11  and  C_12
REMARK    5  A    between atoms: C_16  and  C_17
REMARK    6  A    between atoms: C_24  and  C_25
REMARK                            x       y       z     vdW  Elec       q    Type
REMARK                         _______ _______ _______ _____ _____    ______ ____
ROOT
ATOM      1  C   UNL     1      45.023   6.824  11.578  0.00  0.00    +0.000 A 
ATOM      2  C   UNL     1      44.325   7.941  11.122  0.00  0.00    +0.000 A 
ATOM      3  N   UNL     1      44.485   9.202  11.588  0.00  0.00    +0.000 NA
ATOM      4  C   UNL     1      45.387   9.364  12.582  0.00  0.00    +0.000 A 
ATOM      5  C   UNL     1      46.126   8.338  13.172  0.00  0.00    +0.000 A 
ATOM      6  C   UNL     1      45.943   7.065  12.618  0.00  0.00    +0.000 A 
ENDROOT
BRANCH   1  10
ATOM      7  F   UNL     1      43.025   2.375  11.702  0.00  0.00    +0.000 F 
ATOM      8  C   UNL     1      43.816   3.257  11.077  0.00  0.00    +0.000 A 
ATOM      9  C   UNL     1      43.991   4.525  11.627  0.00  0.00    +0.000 A 
ATOM     10  C   UNL     1      44.822   5.473  11.006  0.00  0.00    +0.000 A 
ATOM     11  C   UNL     1      45.458   5.082   9.810  0.00  0.00    +0.000 A 
ATOM     12  C   UNL     1      45.276   3.805   9.243  0.00  0.00    +0.000 A 
ATOM     13  C   UNL     1      44.446   2.889   9.898  0.00  0.00    +0.000 A 
BRANCH  12  14
ATOM     14  C   UNL     1      45.959   3.418   7.956  0.00  0.00    +0.000 C 
ATOM     15  F   UNL     1      46.926   4.297   7.570  0.00  0.00    +0.000 F 
ATOM     16  F   UNL     1      46.569   2.204   8.036  0.00  0.00    +0.000 F 
ATOM     17  F   UNL     1      45.092   3.335   6.910  0.00  0.00    +0.000 F 
ENDBRANCH  12  14
ENDBRANCH   1  10
BRANCH   5  18
ATOM     18  N   UNL     1      47.070   8.616  14.157  0.00  0.00    +0.000 N 
ATOM     19  H   UNL     1      46.683   8.778  15.083  0.00  0.00    +0.000 HD
BRANCH  18  20
ATOM     20  C   UNL     1      48.355   7.920  14.195  0.00  0.00    +0.000 C 
BRANCH  20  21
ATOM     21  C   UNL     1      48.481   7.074  15.440  0.00  0.00    +0.000 A 
ATOM     22  C   UNL     1      48.827   7.671  16.659  0.00  0.00    +0.000 A 
ATOM     23  C   UNL     1      48.894   6.913  17.831  0.00  0.00    +0.000 A 
ATOM     24  C   UNL     1      48.597   5.550  17.803  0.00  0.00    +0.000 A 
ATOM     25  C   UNL     1      48.229   4.931  16.603  0.00  0.00    +0.000 A 
ATOM     26  C   UNL     1      48.179   5.701  15.430  0.00  0.00    +0.000 A 
BRANCH  25  27
ATOM     27  C   UNL     1      47.867   3.468  16.545  0.00  0.00    +0.000 C 
ATOM     28  F   UNL     1      46.830   3.130  17.361  0.00  0.00    +0.000 F 
ATOM     29  F   UNL     1      47.494   3.077  15.293  0.00  0.00    +0.000 F 
ATOM     30  F   UNL     1      48.900   2.654  16.898  0.00  0.00    +0.000 F 
ENDBRANCH  25  27
ENDBRANCH  20  21
ENDBRANCH  18  20
ENDBRANCH   5  18
TORSDOF 6
ENDMDL
MODEL 4
REMARK VINA RESULT:    -7.999      3.795      5.485
REMARK INTER + INTRA:         -11.654
REMARK INTER:                 -11.459
REMARK INTRA:                  -0.195
REMARK UNBOUND:                -0.849
REMARK  Name = 
REMARK  6 active torsions:
REMARK  status: ('A' for Active; 'I' for Inactive)
REMARK    1  A    between atoms: C_4  and  C_5
REMARK    2  A    between atoms: C_9  and  N_10
REMARK    3  A    between atoms: N_10  and  C_11
REMARK    4  A    between atoms: C_11  and  C_12
REMARK    5  A    between atoms: C_16  and  C_17
REMARK    6  A    between atoms: C_24  and  C_25
REMARK                            x       y       z     vdW  Elec       q    Type
REMARK                         _______ _______ _______ _____ _____    ______ ____
ROOT
ATOM      1  C   UNL     1      46.557   5.344  13.904  0.00  0.00    +0.000 A 
ATOM      2  C   UNL     1      46.015   6.485  13.314  0.00  0.00    +0.000 A 
ATOM      3  N   UNL     1      45.061   6.486  12.355  0.00  0.00    +0.000 NA
ATOM      4  C   UNL     1      44.624   5.275  11.942  0.00  0.00    +0.000 A 
ATOM      5  C   UNL     1      45.101   4.048  12.403  0.00  0.00    +0.000 A 
ATOM      6  C   UNL     1      46.059   4.117  13.423  0.00  0.00    +0.000 A 
ENDROOT
BRANCH   1  10
ATOM      7  F   UNL     1      50.342   7.523  16.078  0.00  0.00    +0.000 F 
ATOM      8  C   UNL     1      49.466   6.510  16.050  0.00  0.00    +0.000 A 
ATOM      9  C   UNL     1      48.507   6.464  15.041  0.00  0.00    +0.000 A 
ATOM     10  C   UNL     1      47.580   5.410  14.973  0.00  0.00    +0.000 A 
ATOM     11  C   UNL     1      47.665   4.417  15.969  0.00  0.00    +0.000 A 
ATOM     12  C   UNL     1      48.625   4.464  16.999  0.00  0.00    +0.000 A 
ATOM     13  C   UNL     1      49.534   5.527  17.025  0.00  0.00    +0.000 A 
BRANCH  12  14
ATOM     14  C   UNL     1      48.685   3.393  18.059  0.00  0.00    +0.000 C 
ATOM     15  F   UNL     1      49.698   2.501  17.873  0.00  0.00    +0.000 F 
ATOM     16  F   UNL     1      48.865   3.907  19.307  0.00  0.00    +0.000 F 
ATOM     17  F   UNL     1      47.543   2.654  18.119  0.00  0.00    +0.000 F 
ENDBRANCH  12  14
ENDBRANCH   1  10
BRANCH   5  18
ATOM     18  N   UNL     1      44.549   2.853  11.951  0.00  0.00    +0.000 N 
ATOM     19  H   UNL     1      44.151   2.267  12.679  0.00  0.00    +0.000 HD
BRANCH  18  20
ATOM     20  C   UNL     1      43.798   2.789  10.699  0.00  0.00    +0.000 C 
BRANCH  20  21
ATOM     21  C   UNL     1      44.701   3.008   9.508  0.00  0.00    +0.000 A 
ATOM     22  C   UNL     1      44.930   4.306   9.033  0.00  0.00    +0.000 A 
ATOM     23  C   UNL     1      45.806   4.532   7.968  0.00  0.00    +0.000 A 
ATOM     24  C   UNL     1      46.481   3.463   7.376  0.00  0.00    +0.000 A 
ATOM     25  C   UNL     1      46.288   2.158   7.844  0.00  0.00    +0.000 A 
ATOM     26  C   UNL     1      45.394   1.943   8.905  0.00  0.00    +0.000 A 
BRANCH  25  27
ATOM     27  C   UNL     1      47.029   0.987   7.250  0.00  0.00    +0.000 C 
ATOM     28  F   UNL     1      46.722  -0.205   7.833  0.00  0.00    +0.000 F 
ATOM     29  F   UNL     1      46.764   0.828   5.922  0.00  0.00    +0.000 F 
ATOM     30  F   UNL     1      48.381   1.113   7.349  0.00  0.00    +0.000 F 
ENDBRANCH  25  27
ENDBRANCH  20  21
ENDBRANCH  18  20
ENDBRANCH   5  18
TORSDOF 6
ENDMDL
MODEL 5
REMARK VINA RESULT:    -7.923      1.518      2.209
REMARK INTER + INTRA:         -11.551
REMARK INTER:                 -10.591
REMARK INTRA:                  -0.960
REMARK UNBOUND:                -0.849
REMARK  Name = 
REMARK  6 active torsions:
REMARK  status: ('A' for Active; 'I' for Inactive)
REMARK    1  A    between atoms: C_4  and  C_5
REMARK    2  A    between atoms: C_9  and  N_10
REMARK    3  A    between atoms: N_10  and  C_11
REMARK    4  A    between atoms: C_11  and  C_12
REMARK    5  A    between atoms: C_16  and  C_17
REMARK    6  A    between atoms: C_24  and  C_25
REMARK                            x       y       z     vdW  Elec       q    Type
REMARK                         _______ _______ _______ _____ _____    ______ ____
ROOT
ATOM      1  C   UNL     1      46.772   5.877  13.155  0.00  0.00    +0.000 A 
ATOM      2  C   UNL     1      47.294   4.785  13.846  0.00  0.00    +0.000 A 
ATOM      3  N   UNL     1      46.771   3.537  13.839  0.00  0.00    +0.000 NA
ATOM      4  C   UNL     1      45.647   3.362  13.108  0.00  0.00    +0.000 A 
ATOM      5  C   UNL     1      44.983   4.365  12.402  0.00  0.00    +0.000 A 
ATOM      6  C   UNL     1      45.598   5.623  12.418  0.00  0.00    +0.000 A 
ENDROOT
BRANCH   1  10
ATOM      7  F   UNL     1      50.317   8.903  14.594  0.00  0.00    +0.000 F 
ATOM      8  C   UNL     1      49.186   8.712  13.902  0.00  0.00    +0.000 A 
ATOM      9  C   UNL     1      48.602   7.448  13.884  0.00  0.00    +0.000 A 
ATOM     10  C   UNL     1      47.409   7.213  13.180  0.00  0.00    +0.000 A 
ATOM     11  C   UNL     1      46.845   8.307  12.493  0.00  0.00    +0.000 A 
ATOM     12  C   UNL     1      47.438   9.585  12.497  0.00  0.00    +0.000 A 
ATOM     13  C   UNL     1      48.621   9.777  13.218  0.00  0.00    +0.000 A 
BRANCH  12  14
ATOM     14  C   UNL     1      46.818  10.735  11.743  0.00  0.00    +0.000 C 
ATOM     15  F   UNL     1      47.466  11.035  10.583  0.00  0.00    +0.000 F 
ATOM     16  F   UNL     1      45.525  10.491  11.396  0.00  0.00    +0.000 F 
ATOM     17  F   UNL     1      46.801  11.886  12.469  0.00  0.00    +0.000 F 
ENDBRANCH  12  14
ENDBRANCH   1  10
BRANCH   5  18
ATOM     18  N   UNL     1      43.858   4.072  11.637  0.00  0.00    +0.000 N 
ATOM     19  H   UNL     1      43.385   4.884  11.249  0.00  0.00    +0.000 HD
BRANCH  18  20
ATOM     20  C   UNL     1      43.828   2.918  10.741  0.00  0.00    +0.000 C 
BRANCH  20  21
ATOM     21  C   UNL     1      44.733   3.128   9.549  0.00  0.00    +0.000 A 
ATOM     22  C   UNL     1      44.991   4.426   9.087  0.00  0.00    +0.000 A 
ATOM     23  C   UNL     1      45.868   4.642   8.022  0.00  0.00    +0.000 A 
ATOM     24  C   UNL     1      46.515   3.565   7.416  0.00  0.00    +0.000 A 
ATOM     25  C   UNL     1      46.292   2.260   7.869  0.00  0.00    +0.000 A 
ATOM     26  C   UNL     1      45.398   2.054   8.931  0.00  0.00    +0.000 A 
BRANCH  25  27
ATOM     27  C   UNL     1      47.003   1.078   7.259  0.00  0.00    +0.000 C 
ATOM     28  F   UNL     1      46.700  -0.108   7.855  0.00  0.00    +0.000 F 
ATOM     29  F   UNL     1      46.699   0.917   5.940  0.00  0.00    +0.000 F 
ATOM     30  F   UNL     1      48.359   1.190   7.318  0.00  0.00    +0.000 F 
ENDBRANCH  25  27
ENDBRANCH  20  21
ENDBRANCH  18  20
ENDBRANCH   5  18
TORSDOF 6
ENDMDL
MODEL 6
REMARK VINA RESULT:    -7.727      4.345      7.477
REMARK INTER + INTRA:         -11.286
REMARK INTER:                 -10.049
REMARK INTRA:                  -1.236
REMARK UNBOUND:                -0.849
REMARK  Name = 
REMARK  6 active torsions:
REMARK  status: ('A' for Active; 'I' for Inactive)
REMARK    1  A    between atoms: C_4  and  C_5
REMARK    2  A    between atoms: C_9  and  N_10
REMARK    3  A    between atoms: N_10  and  C_11
REMARK    4  A    between atoms: C_11  and  C_12
REMARK    5  A    between atoms: C_16  and  C_17
REMARK    6  A    between atoms: C_24  and  C_25
REMARK                            x       y       z     vdW  Elec       q    Type
REMARK                         _______ _______ _______ _____ _____    ______ ____
ROOT
ATOM      1  C   UNL     1      46.775   7.323  12.652  0.00  0.00    +0.000 A 
ATOM      2  C   UNL     1      46.762   8.695  12.404  0.00  0.00    +0.000 A 
ATOM      3  N   UNL     1      47.681   9.577  12.862  0.00  0.00    +0.000 NA
ATOM      4  C   UNL     1      48.670   9.068  13.630  0.00  0.00    +0.000 A 
ATOM      5  C   UNL     1      48.791   7.729  14.002  0.00  0.00    +0.000 A 
ATOM      6  C   UNL     1      47.832   6.863  13.462  0.00  0.00    +0.000 A 
ENDROOT
BRANCH   1  10
ATOM      7  F   UNL     1      42.472   5.038  12.914  0.00  0.00    +0.000 F 
ATOM      8  C   UNL     1      43.604   5.274  12.237  0.00  0.00    +0.000 A 
ATOM      9  C   UNL     1      44.551   6.144  12.772  0.00  0.00    +0.000 A 
ATOM     10  C   UNL     1      45.755   6.405  12.096  0.00  0.00    +0.000 A 
ATOM     11  C   UNL     1      45.950   5.754  10.860  0.00  0.00    +0.000 A 
ATOM     12  C   UNL     1      44.991   4.883  10.308  0.00  0.00    +0.000 A 
ATOM     13  C   UNL     1      43.809   4.644  11.019  0.00  0.00    +0.000 A 
BRANCH  12  14
ATOM     14  C   UNL     1      45.221   4.211   8.979  0.00  0.00    +0.000 C 
ATOM     15  F   UNL     1      45.498   2.880   9.084  0.00  0.00    +0.000 F 
ATOM     16  F   UNL     1      44.140   4.301   8.157  0.00  0.00    +0.000 F 
ATOM     17  F   UNL     1      46.263   4.755   8.292  0.00  0.00    +0.000 F 
ENDBRANCH  12  14
ENDBRANCH   1  10
BRANCH   5  18
ATOM     18  N   UNL     1      49.878   7.294  14.755  0.00  0.00    +0.000 N 
ATOM     19  H   UNL     1      50.770   7.320  14.269  0.00  0.00    +0.000 HD
BRANCH  18  20
ATOM     20  C   UNL     1      49.997   7.620  16.175  0.00  0.00    +0.000 C 
BRANCH  20  21
ATOM     21  C   UNL     1      49.122   6.721  17.017  0.00  0.00    +0.000 A 
ATOM     22  C   UNL     1      48.397   7.257  18.091  0.00  0.00    +0.000 A 
ATOM     23  C   UNL     1      47.541   6.451  18.845  0.00  0.00    +0.000 A 
ATOM     24  C   UNL     1      47.381   5.103  18.524  0.00  0.00    +0.000 A 
ATOM     25  C   UNL     1      48.077   4.545  17.445  0.00  0.00    +0.000 A 
ATOM     26  C   UNL     1      48.945   5.362  16.704  0.00  0.00    +0.000 A 
BRANCH  25  27
ATOM     27  C   UNL     1      47.899   3.101  17.050  0.00  0.00    +0.000 C 
ATOM     28  F   UNL     1      46.859   2.487  17.679  0.00  0.00    +0.000 F 
ATOM     29  F   UNL     1      47.660   2.956  15.715  0.00  0.00    +0.000 F 
ATOM     30  F   UNL     1      48.997   2.342  17.317  0.00  0.00    +0.000 F 
ENDBRANCH  25  27
ENDBRANCH  20  21
ENDBRANCH  18  20
ENDBRANCH   5  18
TORSDOF 6
ENDMDL
MODEL 7
REMARK VINA RESULT:    -7.566      4.037      8.377
REMARK INTER + INTRA:         -11.068
REMARK INTER:                 -10.074
REMARK INTRA:                  -0.994
REMARK UNBOUND:                -0.849
REMARK  Name = 
REMARK  6 active torsions:
REMARK  status: ('A' for Active; 'I' for Inactive)
REMARK    1  A    between atoms: C_4  and  C_5
REMARK    2  A    between atoms: C_9  and  N_10
REMARK    3  A    between atoms: N_10  and  C_11
REMARK    4  A    between atoms: C_11  and  C_12
REMARK    5  A    between atoms: C_16  and  C_17
REMARK    6  A    between atoms: C_24  and  C_25
REMARK                            x       y       z     vdW  Elec       q    Type
REMARK                         _______ _______ _______ _____ _____    ______ ____
ROOT
ATOM      1  C   UNL     1      45.427   6.545  11.739  0.00  0.00    +0.000 A 
ATOM      2  C   UNL     1      44.831   7.765  11.420  0.00  0.00    +0.000 A 
ATOM      3  N   UNL     1      45.129   8.951  11.999  0.00  0.00    +0.000 NA
ATOM      4  C   UNL     1      46.071   8.925  12.969  0.00  0.00    +0.000 A 
ATOM      5  C   UNL     1      46.721   7.780  13.428  0.00  0.00    +0.000 A 
ATOM      6  C   UNL     1      46.396   6.592  12.761  0.00  0.00    +0.000 A 
ENDROOT
BRANCH   1  10
ATOM      7  F   UNL     1      42.970   2.338  11.490  0.00  0.00    +0.000 F 
ATOM      8  C   UNL     1      43.842   3.189  10.933  0.00  0.00    +0.000 A 
ATOM      9  C   UNL     1      44.157   4.373  11.594  0.00  0.00    +0.000 A 
ATOM     10  C   UNL     1      45.077   5.284  11.047  0.00  0.00    +0.000 A 
ATOM     11  C   UNL     1      45.652   4.945   9.805  0.00  0.00    +0.000 A 
ATOM     12  C   UNL     1      45.328   3.754   9.125  0.00  0.00    +0.000 A 
ATOM     13  C   UNL     1      44.414   2.872   9.710  0.00  0.00    +0.000 A 
BRANCH  12  14
ATOM     14  C   UNL     1      45.949   3.424   7.792  0.00  0.00    +0.000 C 
ATOM     15  F   UNL     1      45.042   3.328   6.779  0.00  0.00    +0.000 F 
ATOM     16  F   UNL     1      46.855   4.359   7.395  0.00  0.00    +0.000 F 
ATOM     17  F   UNL     1      46.617   2.237   7.807  0.00  0.00    +0.000 F 
ENDBRANCH  12  14
ENDBRANCH   1  10
BRANCH   5  18
ATOM     18  N   UNL     1      47.715   7.865  14.398  0.00  0.00    +0.000 N 
ATOM     19  H   UNL     1      47.431   8.325  15.259  0.00  0.00    +0.000 HD
BRANCH  18  20
ATOM     20  C   UNL     1      48.650   6.765  14.626  0.00  0.00    +0.000 C 
BRANCH  20  21
ATOM     21  C   UNL     1      48.226   5.925  15.808  0.00  0.00    +0.000 A 
ATOM     22  C   UNL     1      47.579   4.699  15.599  0.00  0.00    +0.000 A 
ATOM     23  C   UNL     1      47.231   3.884  16.678  0.00  0.00    +0.000 A 
ATOM     24  C   UNL     1      47.542   4.273  17.981  0.00  0.00    +0.000 A 
ATOM     25  C   UNL     1      48.207   5.482  18.219  0.00  0.00    +0.000 A 
ATOM     26  C   UNL     1      48.539   6.299  17.127  0.00  0.00    +0.000 A 
BRANCH  25  27
ATOM     27  C   UNL     1      48.590   5.914  19.612  0.00  0.00    +0.000 C 
ATOM     28  F   UNL     1      48.093   5.106  20.590  0.00  0.00    +0.000 F 
ATOM     29  F   UNL     1      49.941   5.926  19.795  0.00  0.00    +0.000 F 
ATOM     30  F   UNL     1      48.160   7.170  19.912  0.00  0.00    +0.000 F 
ENDBRANCH  25  27
ENDBRANCH  20  21
ENDBRANCH  18  20
ENDBRANCH   5  18
TORSDOF 6
ENDMDL
MODEL 8
REMARK VINA RESULT:    -7.465      3.265      4.511
REMARK INTER + INTRA:         -10.932
REMARK INTER:                 -10.005
REMARK INTRA:                  -0.927
REMARK UNBOUND:                -0.849
REMARK  Name = 
REMARK  6 active torsions:
REMARK  status: ('A' for Active; 'I' for Inactive)
REMARK    1  A    between atoms: C_4  and  C_5
REMARK    2  A    between atoms: C_9  and  N_10
REMARK    3  A    between atoms: N_10  and  C_11
REMARK    4  A    between atoms: C_11  and  C_12
REMARK    5  A    between atoms: C_16  and  C_17
REMARK    6  A    between atoms: C_24  and  C_25
REMARK                            x       y       z     vdW  Elec       q    Type
REMARK                         _______ _______ _______ _____ _____    ______ ____
ROOT
ATOM      1  C   UNL     1      47.020   5.900  13.197  0.00  0.00    +0.000 A 
ATOM      2  C   UNL     1      46.269   4.995  13.946  0.00  0.00    +0.000 A 
ATOM      3  N   UNL     1      45.176   4.334  13.500  0.00  0.00    +0.000 NA
ATOM      4  C   UNL     1      44.791   4.599  12.230  0.00  0.00    +0.000 A 
ATOM      5  C   UNL     1      45.411   5.511  11.377  0.00  0.00    +0.000 A 
ATOM      6  C   UNL     1      46.560   6.131  11.885  0.00  0.00    +0.000 A 
ENDROOT
BRANCH   1  10
ATOM      7  F   UNL     1      50.021   7.004  16.881  0.00  0.00    +0.000 F 
ATOM      8  C   UNL     1      49.718   7.110  15.580  0.00  0.00    +0.000 A 
ATOM      9  C   UNL     1      48.582   6.470  15.090  0.00  0.00    +0.000 A 
ATOM     10  C   UNL     1      48.227   6.569  13.734  0.00  0.00    +0.000 A 
ATOM     11  C   UNL     1      49.072   7.333  12.904  0.00  0.00    +0.000 A 
ATOM     12  C   UNL     1      50.230   7.972  13.392  0.00  0.00    +0.000 A 
ATOM     13  C   UNL     1      50.542   7.854  14.750  0.00  0.00    +0.000 A 
BRANCH  12  14
ATOM     14  C   UNL     1      51.122   8.772  12.478  0.00  0.00    +0.000 C 
ATOM     15  F   UNL     1      51.963   9.615  13.142  0.00  0.00    +0.000 F 
ATOM     16  F   UNL     1      51.919   7.982  11.708  0.00  0.00    +0.000 F 
ATOM     17  F   UNL     1      50.419   9.553  11.613  0.00  0.00    +0.000 F 
ENDBRANCH  12  14
ENDBRANCH   1  10
BRANCH   5  18
ATOM     18  N   UNL     1      44.969   5.675  10.067  0.00  0.00    +0.000 N 
ATOM     19  H   UNL     1      45.665   6.048   9.427  0.00  0.00    +0.000 HD
BRANCH  18  20
ATOM     20  C   UNL     1      44.086   4.697   9.436  0.00  0.00    +0.000 C 
BRANCH  20  21
ATOM     21  C   UNL     1      44.868   3.518   8.904  0.00  0.00    +0.000 A 
ATOM     22  C   UNL     1      44.561   2.222   9.339  0.00  0.00    +0.000 A 
ATOM     23  C   UNL     1      45.236   1.116   8.817  0.00  0.00    +0.000 A 
ATOM     24  C   UNL     1      46.213   1.289   7.837  0.00  0.00    +0.000 A 
ATOM     25  C   UNL     1      46.526   2.570   7.368  0.00  0.00    +0.000 A 
ATOM     26  C   UNL     1      45.851   3.675   7.911  0.00  0.00    +0.000 A 
BRANCH  25  27
ATOM     27  C   UNL     1      47.551   2.788   6.284  0.00  0.00    +0.000 C 
ATOM     28  F   UNL     1      48.739   3.270   6.745  0.00  0.00    +0.000 F 
ATOM     29  F   UNL     1      47.853   1.636   5.619  0.00  0.00    +0.000 F 
ATOM     30  F   UNL     1      47.135   3.669   5.333  0.00  0.00    +0.000 F 
ENDBRANCH  25  27
ENDBRANCH  20  21
ENDBRANCH  18  20
ENDBRANCH   5  18
TORSDOF 6
ENDMDL
MODEL 9
REMARK VINA RESULT:    -7.088      3.571      8.766
REMARK INTER + INTRA:         -10.423
REMARK INTER:                  -9.420
REMARK INTRA:                  -1.003
REMARK UNBOUND:                -0.849
REMARK  Name = 
REMARK  6 active torsions:
REMARK  status: ('A' for Active; 'I' for Inactive)
REMARK    1  A    between atoms: C_4  and  C_5
REMARK    2  A    between atoms: C_9  and  N_10
REMARK    3  A    between atoms: N_10  and  C_11
REMARK    4  A    between atoms: C_11  and  C_12
REMARK    5  A    between atoms: C_16  and  C_17
REMARK    6  A    between atoms: C_24  and  C_25
REMARK                            x       y       z     vdW  Elec       q    Type
REMARK                         _______ _______ _______ _____ _____    ______ ____
ROOT
ATOM      1  C   UNL     1      45.569   6.701  11.642  0.00  0.00    +0.000 A 
ATOM      2  C   UNL     1      44.741   7.823  11.687  0.00  0.00    +0.000 A 
ATOM      3  N   UNL     1      45.080   9.019  12.220  0.00  0.00    +0.000 NA
ATOM      4  C   UNL     1      46.318   9.107  12.758  0.00  0.00    +0.000 A 
ATOM      5  C   UNL     1      47.239   8.062  12.830  0.00  0.00    +0.000 A 
ATOM      6  C   UNL     1      46.841   6.863  12.226  0.00  0.00    +0.000 A 
ENDROOT
BRANCH   1  10
ATOM      7  F   UNL     1      42.950   2.586  11.656  0.00  0.00    +0.000 F 
ATOM      8  C   UNL     1      43.834   3.378  11.034  0.00  0.00    +0.000 A 
ATOM      9  C   UNL     1      44.215   4.576  11.634  0.00  0.00    +0.000 A 
ATOM     10  C   UNL     1      45.149   5.427  11.017  0.00  0.00    +0.000 A 
ATOM     11  C   UNL     1      45.667   5.014   9.773  0.00  0.00    +0.000 A 
ATOM     12  C   UNL     1      45.276   3.810   9.156  0.00  0.00    +0.000 A 
ATOM     13  C   UNL     1      44.350   2.988   9.808  0.00  0.00    +0.000 A 
BRANCH  12  14
ATOM     14  C   UNL     1      45.839   3.400   7.819  0.00  0.00    +0.000 C 
ATOM     15  F   UNL     1      44.885   3.213   6.863  0.00  0.00    +0.000 F 
ATOM     16  F   UNL     1      46.699   4.325   7.312  0.00  0.00    +0.000 F 
ATOM     17  F   UNL     1      46.536   2.232   7.882  0.00  0.00    +0.000 F 
ENDBRANCH  12  14
ENDBRANCH   1  10
BRANCH   5  18
ATOM     18  N   UNL     1      48.510   8.268  13.360  0.00  0.00    +0.000 N 
ATOM     19  H   UNL     1      48.659   9.190  13.762  0.00  0.00    +0.000 HD
BRANCH  18  20
ATOM     20  C   UNL     1      49.208   7.212  14.091  0.00  0.00    +0.000 C 
BRANCH  20  21
ATOM     21  C   UNL     1      48.836   7.224  15.555  0.00  0.00    +0.000 A 
ATOM     22  C   UNL     1      48.832   6.028  16.285  0.00  0.00    +0.000 A 
ATOM     23  C   UNL     1      48.545   6.028  17.653  0.00  0.00    +0.000 A 
ATOM     24  C   UNL     1      48.276   7.227  18.313  0.00  0.00    +0.000 A 
ATOM     25  C   UNL     1      48.293   8.440  17.613  0.00  0.00    +0.000 A 
ATOM     26  C   UNL     1      48.569   8.424  16.237  0.00  0.00    +0.000 A 
BRANCH  25  27
ATOM     27  C   UNL     1      48.043   9.756  18.305  0.00  0.00    +0.000 C 
ATOM     28  F   UNL     1      47.022   9.714  19.206  0.00  0.00    +0.000 F 
ATOM     29  F   UNL     1      49.133  10.189  19.001  0.00  0.00    +0.000 F 
ATOM     30  F   UNL     1      47.732  10.758  17.437  0.00  0.00    +0.000 F 
ENDBRANCH  25  27
ENDBRANCH  20  21
ENDBRANCH  18  20
ENDBRANCH   5  18
TORSDOF 6
ENDMDL
