MODEL 1
REMARK VINA RESULT:    -7.362      0.000      0.000
REMARK INTER + INTRA:         -11.300
REMARK INTER:                  -9.944
REMARK INTRA:                  -1.356
REMARK UNBOUND:                -1.356
REMARK  Name = 
REMARK  7 active torsions:
REMARK  status: ('A' for Active; 'I' for Inactive)
REMARK    1  A    between atoms: C_1  and  N_2
REMARK    2  A    between atoms: N_2  and  C_3
REMARK    3  A    between atoms: C_3  and  C_4
REMARK    4  A    between atoms: C_10  and  C_12
REMARK    5  A    between atoms: C_15  and  C_16
REMARK    6  A    between atoms: C_16  and  N_17
REMARK    7  A    between atoms: C_18  and  C_20
REMARK                            x       y       z     vdW  Elec       q    Type
REMARK                         _______ _______ _______ _____ _____    ______ ____
ROOT
ATOM      1  C   UNL     1      49.387   7.763  15.827  0.00  0.00    +0.000 A 
ATOM      2  C   UNL     1      48.385   8.706  15.621  0.00  0.00    +0.000 A 
ATOM      3  C   UNL     1      47.759   8.756  14.377  0.00  0.00    +0.000 A 
ATOM      4  C   UNL     1      48.145   7.865  13.373  0.00  0.00    +0.000 A 
ATOM      5  C   UNL     1      49.124   6.931  13.688  0.00  0.00    +0.000 A 
ATOM      6  N   UNL     1      49.751   6.859  14.882  0.00  0.00    +0.000 NA
ENDROOT
BRANCH   1   9
ATOM      7  C   UNL     1      50.113   7.102  19.531  0.00  0.00    +0.000 C 
ATOM      8  N   UNL     1      49.397   7.083  18.267  0.00  0.00    +0.000 N 
ATOM      9  C   UNL     1      50.042   7.686  17.173  0.00  0.00    +0.000 C 
ATOM     10  O   UNL     1      51.174   8.163  17.282  0.00  0.00    +0.000 OA
BRANCH   8  11
ATOM     11  C   UNL     1      48.212   6.226  18.178  0.00  0.00    +0.000 C 
BRANCH  11  12
ATOM     12  C   UNL     1      48.458   4.878  17.555  0.00  0.00    +0.000 A 
ATOM     13  C   UNL     1      49.453   4.015  18.023  0.00  0.00    +0.000 A 
ATOM     14  C   UNL     1      49.585   2.743  17.470  0.00  0.00    +0.000 A 
ATOM     15  C   UNL     1      48.717   2.372  16.458  0.00  0.00    +0.000 A 
ATOM     16  N   UNL     1      47.753   3.179  15.966  0.00  0.00    +0.000 NA
ATOM     17  C   UNL     1      47.649   4.408  16.525  0.00  0.00    +0.000 A 
ENDBRANCH  11  12
ENDBRANCH   8  11
ENDBRANCH   1   9
BRANCH   4  18
ATOM     18  C   UNL     1      47.498   7.875  12.020  0.00  0.00    +0.000 C 
BRANCH  18  19
ATOM     19  N   UNL     1      46.833   6.625  11.757  0.00  0.00    +0.000 N 
ATOM     20  C   UNL     1      45.470   6.518  11.843  0.00  0.00    +0.000 C 
ATOM     21  O   UNL     1      44.759   7.489  12.087  0.00  0.00    +0.000 OA
ATOM     22  H   UNL     1      47.398   5.781  11.786  0.00  0.00    +0.000 HD
BRANCH  20  23
ATOM     23  C   UNL     1      44.893   5.197  11.562  0.00  0.00    +0.000 A 
ATOM     24  C   UNL     1      44.174   4.539  12.549  0.00  0.00    +0.000 A 
ATOM     25  S   UNL     1      43.527   3.045  12.046  0.00  0.00    +0.000 S 
ATOM     26  C   UNL     1      44.228   3.200  10.504  0.00  0.00    +0.000 A 
ATOM     27  N   UNL     1      44.075   2.226   9.567  0.00  0.00    +0.000 NA
ATOM     28  C   UNL     1      44.687   2.456   8.454  0.00  0.00    +0.000 A 
ATOM     29  N   UNL     1      45.437   3.574   8.191  0.00  0.00    +0.000 N 
ATOM     30  C   UNL     1      45.591   4.600   9.093  0.00  0.00    +0.000 A 
ATOM     31  O   UNL     1      46.227   5.609   8.812  0.00  0.00    +0.000 OA
ATOM     32  C   UNL     1      44.932   4.383  10.370  0.00  0.00    +0.000 A 
ATOM     33  H   UNL     1      45.883   3.696   7.294  0.00  0.00    +0.000 HD
ENDBRANCH  20  23
ENDBRANCH  18  19
ENDBRANCH   4  18
TORSDOF 6
ENDMDL
MODEL 2
REMARK VINA RESULT:    -6.862      4.848      8.119
REMARK INTER + INTRA:         -10.625
REMARK INTER:                  -9.536
REMARK INTRA:                  -1.088
REMARK UNBOUND:                -1.356
REMARK  Name = 
REMARK  7 active torsions:
REMARK  status: ('A' for Active; 'I' for Inactive)
REMARK    1  A    between atoms: C_1  and  N_2
REMARK    2  A    between atoms: N_2  and  C_3
REMARK    3  A    between atoms: C_3  and  C_4
REMARK    4  A    between atoms: C_10  and  C_12
REMARK    5  A    between atoms: C_15  and  C_16
REMARK    6  A    between atoms: C_16  and  N_17
REMARK    7  A    between atoms: C_18  and  C_20
REMARK                            x       y       z     vdW  Elec       q    Type
REMARK                         _______ _______ _______ _____ _____    ______ ____
ROOT
ATOM      1  C   UNL     1      45.608   6.028  12.522  0.00  0.00    +0.000 A 
ATOM      2  C   UNL     1      46.954   6.136  12.188  0.00  0.00    +0.000 A 
ATOM      3  C   UNL     1      47.498   7.405  12.000  0.00  0.00    +0.000 A 
ATOM      4  C   UNL     1      46.688   8.533  12.149  0.00  0.00    +0.000 A 
ATOM      5  C   UNL     1      45.366   8.326  12.526  0.00  0.00    +0.000 A 
ATOM      6  N   UNL     1      44.810   7.110  12.713  0.00  0.00    +0.000 NA
ENDROOT
BRANCH   1   9
ATOM      7  C   UNL     1      43.596   2.783  12.195  0.00  0.00    +0.000 C 
ATOM      8  N   UNL     1      44.122   4.092  11.845  0.00  0.00    +0.000 N 
ATOM      9  C   UNL     1      45.027   4.667  12.755  0.00  0.00    +0.000 C 
ATOM     10  O   UNL     1      45.382   4.063  13.771  0.00  0.00    +0.000 OA
BRANCH   8  11
ATOM     11  C   UNL     1      43.880   4.572  10.482  0.00  0.00    +0.000 C 
BRANCH  11  12
ATOM     12  C   UNL     1      44.853   4.062   9.454  0.00  0.00    +0.000 A 
ATOM     13  C   UNL     1      44.932   2.708   9.115  0.00  0.00    +0.000 A 
ATOM     14  C   UNL     1      45.788   2.297   8.095  0.00  0.00    +0.000 A 
ATOM     15  C   UNL     1      46.547   3.255   7.446  0.00  0.00    +0.000 A 
ATOM     16  N   UNL     1      46.512   4.569   7.752  0.00  0.00    +0.000 NA
ATOM     17  C   UNL     1      45.670   4.938   8.745  0.00  0.00    +0.000 A 
ENDBRANCH  11  12
ENDBRANCH   8  11
ENDBRANCH   1   9
BRANCH   4  18
ATOM     18  C   UNL     1      47.226   9.920  11.963  0.00  0.00    +0.000 C 
BRANCH  18  19
ATOM     19  N   UNL     1      48.665   9.927  12.020  0.00  0.00    +0.000 N 
ATOM     20  C   UNL     1      49.406  10.605  11.088  0.00  0.00    +0.000 C 
ATOM     21  O   UNL     1      48.877  11.278  10.207  0.00  0.00    +0.000 OA
ATOM     22  H   UNL     1      49.113   9.207  12.579  0.00  0.00    +0.000 HD
BRANCH  20  23
ATOM     23  C   UNL     1      50.865  10.543  11.234  0.00  0.00    +0.000 A 
ATOM     24  C   UNL     1      51.588  11.716  11.397  0.00  0.00    +0.000 A 
ATOM     25  S   UNL     1      53.262  11.467  11.606  0.00  0.00    +0.000 S 
ATOM     26  C   UNL     1      53.086   9.783  11.435  0.00  0.00    +0.000 A 
ATOM     27  N   UNL     1      54.168   8.960  11.489  0.00  0.00    +0.000 NA
ATOM     28  C   UNL     1      53.897   7.711  11.310  0.00  0.00    +0.000 A 
ATOM     29  N   UNL     1      52.640   7.208  11.084  0.00  0.00    +0.000 N 
ATOM     30  C   UNL     1      51.514   7.997  11.055  0.00  0.00    +0.000 A 
ATOM     31  O   UNL     1      50.399   7.513  10.898  0.00  0.00    +0.000 OA
ATOM     32  C   UNL     1      51.767   9.415  11.237  0.00  0.00    +0.000 A 
ATOM     33  H   UNL     1      52.497   6.217  10.960  0.00  0.00    +0.000 HD
ENDBRANCH  20  23
ENDBRANCH  18  19
ENDBRANCH   4  18
TORSDOF 6
ENDMDL
MODEL 3
REMARK VINA RESULT:    -6.628      2.070      2.567
REMARK INTER + INTRA:         -10.309
REMARK INTER:                  -8.849
REMARK INTRA:                  -1.460
REMARK UNBOUND:                -1.356
REMARK  Name = 
REMARK  7 active torsions:
REMARK  status: ('A' for Active; 'I' for Inactive)
REMARK    1  A    between atoms: C_1  and  N_2
REMARK    2  A    between atoms: N_2  and  C_3
REMARK    3  A    between atoms: C_3  and  C_4
REMARK    4  A    between atoms: C_10  and  C_12
REMARK    5  A    between atoms: C_15  and  C_16
REMARK    6  A    between atoms: C_16  and  N_17
REMARK    7  A    between atoms: C_18  and  C_20
REMARK                            x       y       z     vdW  Elec       q    Type
REMARK                         _______ _______ _______ _____ _____    ______ ____
ROOT
ATOM      1  C   UNL     1      49.903   7.296  17.416  0.00  0.00    +0.000 A 
ATOM      2  C   UNL     1      50.230   6.781  16.165  0.00  0.00    +0.000 A 
ATOM      3  C   UNL     1      49.615   7.321  15.038  0.00  0.00    +0.000 A 
ATOM      4  C   UNL     1      48.692   8.359  15.184  0.00  0.00    +0.000 A 
ATOM      5  C   UNL     1      48.464   8.836  16.469  0.00  0.00    +0.000 A 
ATOM      6  N   UNL     1      49.042   8.333  17.581  0.00  0.00    +0.000 NA
ENDROOT
BRANCH   1   9
ATOM      7  C   UNL     1      50.635   5.537  20.740  0.00  0.00    +0.000 C 
ATOM      8  N   UNL     1      49.878   5.994  19.588  0.00  0.00    +0.000 N 
ATOM      9  C   UNL     1      50.585   6.739  18.628  0.00  0.00    +0.000 C 
ATOM     10  O   UNL     1      51.796   6.948  18.747  0.00  0.00    +0.000 OA
BRANCH   8  11
ATOM     11  C   UNL     1      48.539   5.430  19.396  0.00  0.00    +0.000 C 
BRANCH  11  12
ATOM     12  C   UNL     1      48.438   4.417  18.288  0.00  0.00    +0.000 A 
ATOM     13  C   UNL     1      49.456   3.495  18.030  0.00  0.00    +0.000 A 
ATOM     14  C   UNL     1      49.279   2.521  17.050  0.00  0.00    +0.000 A 
ATOM     15  C   UNL     1      48.086   2.501  16.350  0.00  0.00    +0.000 A 
ATOM     16  N   UNL     1      47.084   3.382  16.556  0.00  0.00    +0.000 NA
ATOM     17  C   UNL     1      47.285   4.314  17.516  0.00  0.00    +0.000 A 
ENDBRANCH  11  12
ENDBRANCH   8  11
ENDBRANCH   1   9
BRANCH   4  18
ATOM     18  C   UNL     1      48.008   8.978  14.001  0.00  0.00    +0.000 C 
BRANCH  18  19
ATOM     19  N   UNL     1      46.853   8.211  13.613  0.00  0.00    +0.000 N 
ATOM     20  C   UNL     1      46.895   7.367  12.534  0.00  0.00    +0.000 C 
ATOM     21  O   UNL     1      47.928   7.187  11.894  0.00  0.00    +0.000 OA
ATOM     22  H   UNL     1      45.951   8.513  13.970  0.00  0.00    +0.000 HD
BRANCH  20  23
ATOM     23  C   UNL     1      45.661   6.637  12.220  0.00  0.00    +0.000 A 
ATOM     24  C   UNL     1      44.570   7.324  11.709  0.00  0.00    +0.000 A 
ATOM     25  S   UNL     1      43.237   6.324  11.347  0.00  0.00    +0.000 S 
ATOM     26  C   UNL     1      44.055   4.942  11.909  0.00  0.00    +0.000 A 
ATOM     27  N   UNL     1      43.451   3.723  11.900  0.00  0.00    +0.000 NA
ATOM     28  C   UNL     1      44.171   2.768  12.385  0.00  0.00    +0.000 A 
ATOM     29  N   UNL     1      45.443   2.920  12.877  0.00  0.00    +0.000 N 
ATOM     30  C   UNL     1      46.106   4.125  12.874  0.00  0.00    +0.000 A 
ATOM     31  O   UNL     1      47.259   4.221  13.277  0.00  0.00    +0.000 OA
ATOM     32  C   UNL     1      45.332   5.237  12.351  0.00  0.00    +0.000 A 
ATOM     33  H   UNL     1      45.955   2.128  13.235  0.00  0.00    +0.000 HD
ENDBRANCH  20  23
ENDBRANCH  18  19
ENDBRANCH   4  18
TORSDOF 6
ENDMDL
MODEL 4
REMARK VINA RESULT:    -6.577      4.729      8.333
REMARK INTER + INTRA:         -10.240
REMARK INTER:                  -9.184
REMARK INTRA:                  -1.057
REMARK UNBOUND:                -1.356
REMARK  Name = 
REMARK  7 active torsions:
REMARK  status: ('A' for Active; 'I' for Inactive)
REMARK    1  A    between atoms: C_1  and  N_2
REMARK    2  A    between atoms: N_2  and  C_3
REMARK    3  A    between atoms: C_3  and  C_4
REMARK    4  A    between atoms: C_10  and  C_12
REMARK    5  A    between atoms: C_15  and  C_16
REMARK    6  A    between atoms: C_16  and  N_17
REMARK    7  A    between atoms: C_18  and  C_20
REMARK                            x       y       z     vdW  Elec       q    Type
REMARK                         _______ _______ _______ _____ _____    ______ ____
ROOT
ATOM      1  C   UNL     1      45.503   5.852  12.433  0.00  0.00    +0.000 A 
ATOM      2  C   UNL     1      46.832   5.886  12.023  0.00  0.00    +0.000 A 
ATOM      3  C   UNL     1      47.464   7.122  11.904  0.00  0.00    +0.000 A 
ATOM      4  C   UNL     1      46.757   8.291  12.196  0.00  0.00    +0.000 A 
ATOM      5  C   UNL     1      45.447   8.152  12.639  0.00  0.00    +0.000 A 
ATOM      6  N   UNL     1      44.807   6.970  12.762  0.00  0.00    +0.000 NA
ENDROOT
BRANCH   1   9
ATOM      7  C   UNL     1      43.359   2.726  11.871  0.00  0.00    +0.000 C 
ATOM      8  N   UNL     1      43.987   4.006  11.591  0.00  0.00    +0.000 N 
ATOM      9  C   UNL     1      44.829   4.523  12.591  0.00  0.00    +0.000 C 
ATOM     10  O   UNL     1      45.050   3.893  13.629  0.00  0.00    +0.000 OA
BRANCH   8  11
ATOM     11  C   UNL     1      43.903   4.510  10.218  0.00  0.00    +0.000 C 
BRANCH  11  12
ATOM     12  C   UNL     1      44.932   3.941   9.277  0.00  0.00    +0.000 A 
ATOM     13  C   UNL     1      45.079   2.565   9.083  0.00  0.00    +0.000 A 
ATOM     14  C   UNL     1      45.985   2.090   8.136  0.00  0.00    +0.000 A 
ATOM     15  C   UNL     1      46.724   3.010   7.414  0.00  0.00    +0.000 A 
ATOM     16  N   UNL     1      46.624   4.346   7.581  0.00  0.00    +0.000 NA
ATOM     17  C   UNL     1      45.734   4.776   8.505  0.00  0.00    +0.000 A 
ENDBRANCH  11  12
ENDBRANCH   8  11
ENDBRANCH   1   9
BRANCH   4  18
ATOM     18  C   UNL     1      47.394   9.644  12.089  0.00  0.00    +0.000 C 
BRANCH  18  19
ATOM     19  N   UNL     1      48.693   9.557  11.474  0.00  0.00    +0.000 N 
ATOM     20  C   UNL     1      49.819   9.963  12.140  0.00  0.00    +0.000 C 
ATOM     21  O   UNL     1      49.775  10.359  13.302  0.00  0.00    +0.000 OA
ATOM     22  H   UNL     1      48.724   9.460  10.463  0.00  0.00    +0.000 HD
BRANCH  20  23
ATOM     23  C   UNL     1      51.092   9.838  11.420  0.00  0.00    +0.000 A 
ATOM     24  C   UNL     1      52.058   8.956  11.884  0.00  0.00    +0.000 A 
ATOM     25  S   UNL     1      53.453   8.891  10.906  0.00  0.00    +0.000 S 
ATOM     26  C   UNL     1      52.836  10.077   9.855  0.00  0.00    +0.000 A 
ATOM     27  N   UNL     1      53.562  10.510   8.788  0.00  0.00    +0.000 NA
ATOM     28  C   UNL     1      52.990  11.436   8.094  0.00  0.00    +0.000 A 
ATOM     29  N   UNL     1      51.755  11.968   8.368  0.00  0.00    +0.000 N 
ATOM     30  C   UNL     1      50.971  11.539   9.413  0.00  0.00    +0.000 A 
ATOM     31  O   UNL     1      49.852  12.000   9.604  0.00  0.00    +0.000 OA
ATOM     32  C   UNL     1      51.577  10.505  10.235  0.00  0.00    +0.000 A 
ATOM     33  H   UNL     1      51.362  12.686   7.778  0.00  0.00    +0.000 HD
ENDBRANCH  20  23
ENDBRANCH  18  19
ENDBRANCH   4  18
TORSDOF 6
ENDMDL
MODEL 5
REMARK VINA RESULT:    -6.469      3.970      8.400
REMARK INTER + INTRA:         -10.095
REMARK INTER:                  -9.098
REMARK INTRA:                  -0.997
REMARK UNBOUND:                -1.356
REMARK  Name = 
REMARK  7 active torsions:
REMARK  status: ('A' for Active; 'I' for Inactive)
REMARK    1  A    between atoms: C_1  and  N_2
REMARK    2  A    between atoms: N_2  and  C_3
REMARK    3  A    between atoms: C_3  and  C_4
REMARK    4  A    between atoms: C_10  and  C_12
REMARK    5  A    between atoms: C_15  and  C_16
REMARK    6  A    between atoms: C_16  and  N_17
REMARK    7  A    between atoms: C_18  and  C_20
REMARK                            x       y       z     vdW  Elec       q    Type
REMARK                         _______ _______ _______ _____ _____    ______ ____
ROOT
ATOM      1  C   UNL     1      45.491   5.816  12.423  0.00  0.00    +0.000 A 
ATOM      2  C   UNL     1      46.880   5.865  12.352  0.00  0.00    +0.000 A 
ATOM      3  C   UNL     1      47.501   7.106  12.231  0.00  0.00    +0.000 A 
ATOM      4  C   UNL     1      46.724   8.266  12.183  0.00  0.00    +0.000 A 
ATOM      5  C   UNL     1      45.347   8.119  12.304  0.00  0.00    +0.000 A 
ATOM      6  N   UNL     1      44.717   6.931  12.421  0.00  0.00    +0.000 NA
ENDROOT
BRANCH   1   9
ATOM      7  C   UNL     1      43.332   2.697  11.885  0.00  0.00    +0.000 C 
ATOM      8  N   UNL     1      43.952   3.980  11.603  0.00  0.00    +0.000 N 
ATOM      9  C   UNL     1      44.822   4.486  12.585  0.00  0.00    +0.000 C 
ATOM     10  O   UNL     1      45.071   3.844  13.609  0.00  0.00    +0.000 OA
BRANCH   8  11
ATOM     11  C   UNL     1      43.831   4.500  10.238  0.00  0.00    +0.000 C 
BRANCH  11  12
ATOM     12  C   UNL     1      44.884   4.005   9.282  0.00  0.00    +0.000 A 
ATOM     13  C   UNL     1      44.996   2.655   8.936  0.00  0.00    +0.000 A 
ATOM     14  C   UNL     1      45.930   2.260   7.981  0.00  0.00    +0.000 A 
ATOM     15  C   UNL     1      46.731   3.229   7.402  0.00  0.00    +0.000 A 
ATOM     16  N   UNL     1      46.665   4.539   7.718  0.00  0.00    +0.000 NA
ATOM     17  C   UNL     1      45.747   4.893   8.647  0.00  0.00    +0.000 A 
ENDBRANCH  11  12
ENDBRANCH   8  11
ENDBRANCH   1   9
BRANCH   4  18
ATOM     18  C   UNL     1      47.344   9.625  12.058  0.00  0.00    +0.000 C 
BRANCH  18  19
ATOM     19  N   UNL     1      48.531   9.727  12.867  0.00  0.00    +0.000 N 
ATOM     20  C   UNL     1      49.774   9.792  12.292  0.00  0.00    +0.000 C 
ATOM     21  O   UNL     1      49.922   9.826  11.074  0.00  0.00    +0.000 OA
ATOM     22  H   UNL     1      48.452   9.469  13.847  0.00  0.00    +0.000 HD
BRANCH  20  23
ATOM     23  C   UNL     1      50.919   9.887  13.207  0.00  0.00    +0.000 A 
ATOM     24  C   UNL     1      51.757  10.991  13.143  0.00  0.00    +0.000 A 
ATOM     25  S   UNL     1      53.003  10.975  14.306  0.00  0.00    +0.000 S 
ATOM     26  C   UNL     1      52.496   9.465  14.905  0.00  0.00    +0.000 A 
ATOM     27  N   UNL     1      53.167   8.856  15.920  0.00  0.00    +0.000 NA
ATOM     28  C   UNL     1      52.697   7.701  16.252  0.00  0.00    +0.000 A 
ATOM     29  N   UNL     1      51.614   7.099  15.663  0.00  0.00    +0.000 N 
ATOM     30  C   UNL     1      50.885   7.690  14.659  0.00  0.00    +0.000 A 
ATOM     31  O   UNL     1      49.893   7.148  14.184  0.00  0.00    +0.000 OA
ATOM     32  C   UNL     1      51.382   8.988  14.237  0.00  0.00    +0.000 A 
ATOM     33  H   UNL     1      51.293   6.195  15.978  0.00  0.00    +0.000 HD
ENDBRANCH  20  23
ENDBRANCH  18  19
ENDBRANCH   4  18
TORSDOF 6
ENDMDL
MODEL 6
REMARK VINA RESULT:    -6.397      1.748      2.315
REMARK INTER + INTRA:          -9.996
REMARK INTER:                  -8.795
REMARK INTRA:                  -1.202
REMARK UNBOUND:                -1.356
REMARK  Name = 
REMARK  7 active torsions:
REMARK  status: ('A' for Active; 'I' for Inactive)
REMARK    1  A    between atoms: C_1  and  N_2
REMARK    2  A    between atoms: N_2  and  C_3
REMARK    3  A    between atoms: C_3  and  C_4
REMARK    4  A    between atoms: C_10  and  C_12
REMARK    5  A    between atoms: C_15  and  C_16
REMARK    6  A    between atoms: C_16  and  N_17
REMARK    7  A    between atoms: C_18  and  C_20
REMARK                            x       y       z     vdW  Elec       q    Type
REMARK                         _______ _______ _______ _____ _____    ______ ____
ROOT
ATOM      1  C   UNL     1      50.369   7.416  15.106  0.00  0.00    +0.000 A 
ATOM      2  C   UNL     1      50.583   8.448  14.197  0.00  0.00    +0.000 A 
ATOM      3  C   UNL     1      49.703   8.590  13.126  0.00  0.00    +0.000 A 
ATOM      4  C   UNL     1      48.634   7.701  12.987  0.00  0.00    +0.000 A 
ATOM      5  C   UNL     1      48.478   6.730  13.969  0.00  0.00    +0.000 A 
ATOM      6  N   UNL     1      49.314   6.566  15.017  0.00  0.00    +0.000 NA
ENDROOT
BRANCH   1   9
ATOM      7  C   UNL     1      52.011   7.737  18.553  0.00  0.00    +0.000 C 
ATOM      8  N   UNL     1      51.022   7.910  17.502  0.00  0.00    +0.000 N 
ATOM      9  C   UNL     1      51.295   7.279  16.276  0.00  0.00    +0.000 C 
ATOM     10  O   UNL     1      52.302   6.582  16.126  0.00  0.00    +0.000 OA
BRANCH   8  11
ATOM     11  C   UNL     1      49.731   8.489  17.882  0.00  0.00    +0.000 C 
BRANCH  11  12
ATOM     12  C   UNL     1      48.933   7.661  18.853  0.00  0.00    +0.000 A 
ATOM     13  C   UNL     1      48.530   8.159  20.096  0.00  0.00    +0.000 A 
ATOM     14  C   UNL     1      47.719   7.385  20.923  0.00  0.00    +0.000 A 
ATOM     15  C   UNL     1      47.337   6.129  20.484  0.00  0.00    +0.000 A 
ATOM     16  N   UNL     1      47.716   5.606  19.298  0.00  0.00    +0.000 NA
ATOM     17  C   UNL     1      48.501   6.382  18.516  0.00  0.00    +0.000 A 
ENDBRANCH  11  12
ENDBRANCH   8  11
ENDBRANCH   1   9
BRANCH   4  18
ATOM     18  C   UNL     1      47.657   7.815  11.856  0.00  0.00    +0.000 C 
BRANCH  18  19
ATOM     19  N   UNL     1      46.959   6.573  11.649  0.00  0.00    +0.000 N 
ATOM     20  C   UNL     1      45.592   6.509  11.732  0.00  0.00    +0.000 C 
ATOM     21  O   UNL     1      44.908   7.510  11.926  0.00  0.00    +0.000 OA
ATOM     22  H   UNL     1      47.500   5.716  11.722  0.00  0.00    +0.000 HD
BRANCH  20  23
ATOM     23  C   UNL     1      44.980   5.193  11.512  0.00  0.00    +0.000 A 
ATOM     24  C   UNL     1      44.282   4.581  12.543  0.00  0.00    +0.000 A 
ATOM     25  S   UNL     1      43.588   3.086  12.109  0.00  0.00    +0.000 S 
ATOM     26  C   UNL     1      44.238   3.180  10.539  0.00  0.00    +0.000 A 
ATOM     27  N   UNL     1      44.034   2.181   9.638  0.00  0.00    +0.000 NA
ATOM     28  C   UNL     1      44.612   2.364   8.499  0.00  0.00    +0.000 A 
ATOM     29  N   UNL     1      45.374   3.458   8.176  0.00  0.00    +0.000 N 
ATOM     30  C   UNL     1      45.580   4.508   9.041  0.00  0.00    +0.000 A 
ATOM     31  O   UNL     1      46.227   5.493   8.708  0.00  0.00    +0.000 OA
ATOM     32  C   UNL     1      44.961   4.343  10.345  0.00  0.00    +0.000 A 
ATOM     33  H   UNL     1      45.792   3.543   7.262  0.00  0.00    +0.000 HD
ENDBRANCH  20  23
ENDBRANCH  18  19
ENDBRANCH   4  18
TORSDOF 6
ENDMDL
MODEL 7
REMARK VINA RESULT:    -6.372      3.105      8.823
REMARK INTER + INTRA:          -9.964
REMARK INTER:                  -8.832
REMARK INTRA:                  -1.131
REMARK UNBOUND:                -1.356
REMARK  Name = 
REMARK  7 active torsions:
REMARK  status: ('A' for Active; 'I' for Inactive)
REMARK    1  A    between atoms: C_1  and  N_2
REMARK    2  A    between atoms: N_2  and  C_3
REMARK    3  A    between atoms: C_3  and  C_4
REMARK    4  A    between atoms: C_10  and  C_12
REMARK    5  A    between atoms: C_15  and  C_16
REMARK    6  A    between atoms: C_16  and  N_17
REMARK    7  A    between atoms: C_18  and  C_20
REMARK                            x       y       z     vdW  Elec       q    Type
REMARK                         _______ _______ _______ _____ _____    ______ ____
ROOT
ATOM      1  C   UNL     1      45.363   5.482  13.271  0.00  0.00    +0.000 A 
ATOM      2  C   UNL     1      45.780   6.736  12.836  0.00  0.00    +0.000 A 
ATOM      3  C   UNL     1      47.020   7.212  13.256  0.00  0.00    +0.000 A 
ATOM      4  C   UNL     1      47.812   6.428  14.098  0.00  0.00    +0.000 A 
ATOM      5  C   UNL     1      47.329   5.171  14.444  0.00  0.00    +0.000 A 
ATOM      6  N   UNL     1      46.132   4.683  14.055  0.00  0.00    +0.000 NA
ENDROOT
BRANCH   1   9
ATOM      7  C   UNL     1      42.632   3.541  11.410  0.00  0.00    +0.000 C 
ATOM      8  N   UNL     1      43.966   3.947  11.819  0.00  0.00    +0.000 N 
ATOM      9  C   UNL     1      44.043   4.954  12.797  0.00  0.00    +0.000 C 
ATOM     10  O   UNL     1      43.024   5.429  13.306  0.00  0.00    +0.000 OA
BRANCH   8  11
ATOM     11  C   UNL     1      45.087   3.109  11.384  0.00  0.00    +0.000 C 
BRANCH  11  12
ATOM     12  C   UNL     1      45.444   3.243   9.929  0.00  0.00    +0.000 A 
ATOM     13  C   UNL     1      45.581   2.131   9.093  0.00  0.00    +0.000 A 
ATOM     14  C   UNL     1      45.827   2.312   7.733  0.00  0.00    +0.000 A 
ATOM     15  C   UNL     1      45.933   3.604   7.249  0.00  0.00    +0.000 A 
ATOM     16  N   UNL     1      45.823   4.704   8.023  0.00  0.00    +0.000 NA
ATOM     17  C   UNL     1      45.582   4.496   9.339  0.00  0.00    +0.000 A 
ENDBRANCH  11  12
ENDBRANCH   8  11
ENDBRANCH   1   9
BRANCH   4  18
ATOM     18  C   UNL     1      49.157   6.892  14.573  0.00  0.00    +0.000 C 
BRANCH  18  19
ATOM     19  N   UNL     1      49.154   7.112  15.995  0.00  0.00    +0.000 N 
ATOM     20  C   UNL     1      50.064   6.488  16.808  0.00  0.00    +0.000 C 
ATOM     21  O   UNL     1      50.949   5.768  16.355  0.00  0.00    +0.000 OA
ATOM     22  H   UNL     1      48.310   7.503  16.406  0.00  0.00    +0.000 HD
BRANCH  20  23
ATOM     23  C   UNL     1      49.970   6.776  18.245  0.00  0.00    +0.000 A 
ATOM     24  C   UNL     1      51.001   7.457  18.876  0.00  0.00    +0.000 A 
ATOM     25  S   UNL     1      50.714   7.758  20.529  0.00  0.00    +0.000 S 
ATOM     26  C   UNL     1      49.221   6.945  20.472  0.00  0.00    +0.000 A 
ATOM     27  N   UNL     1      48.454   6.815  21.588  0.00  0.00    +0.000 NA
ATOM     28  C   UNL     1      47.364   6.147  21.412  0.00  0.00    +0.000 A 
ATOM     29  N   UNL     1      46.969   5.597  20.219  0.00  0.00    +0.000 N 
ATOM     30  C   UNL     1      47.694   5.731  19.057  0.00  0.00    +0.000 A 
ATOM     31  O   UNL     1      47.292   5.268  17.996  0.00  0.00    +0.000 OA
ATOM     32  C   UNL     1      48.939   6.464  19.206  0.00  0.00    +0.000 A 
ATOM     33  H   UNL     1      46.099   5.092  20.148  0.00  0.00    +0.000 HD
ENDBRANCH  20  23
ENDBRANCH  18  19
ENDBRANCH   4  18
TORSDOF 6
ENDMDL
MODEL 8
REMARK VINA RESULT:    -6.252      3.600      8.644
REMARK INTER + INTRA:          -9.801
REMARK INTER:                  -9.308
REMARK INTRA:                  -0.493
REMARK UNBOUND:                -1.356
REMARK  Name = 
REMARK  7 active torsions:
REMARK  status: ('A' for Active; 'I' for Inactive)
REMARK    1  A    between atoms: C_1  and  N_2
REMARK    2  A    between atoms: N_2  and  C_3
REMARK    3  A    between atoms: C_3  and  C_4
REMARK    4  A    between atoms: C_10  and  C_12
REMARK    5  A    between atoms: C_15  and  C_16
REMARK    6  A    between atoms: C_16  and  N_17
REMARK    7  A    between atoms: C_18  and  C_20
REMARK                            x       y       z     vdW  Elec       q    Type
REMARK                         _______ _______ _______ _____ _____    ______ ____
ROOT
ATOM      1  C   UNL     1      47.370   5.778  14.379  0.00  0.00    +0.000 A 
ATOM      2  C   UNL     1      46.957   4.474  14.124  0.00  0.00    +0.000 A 
ATOM      3  C   UNL     1      47.147   3.507  15.108  0.00  0.00    +0.000 A 
ATOM      4  C   UNL     1      47.743   3.863  16.320  0.00  0.00    +0.000 A 
ATOM      5  C   UNL     1      48.083   5.198  16.499  0.00  0.00    +0.000 A 
ATOM      6  N   UNL     1      47.913   6.158  15.564  0.00  0.00    +0.000 NA
ENDROOT
BRANCH   1   9
ATOM      7  C   UNL     1      45.861   7.895  11.563  0.00  0.00    +0.000 C 
ATOM      8  N   UNL     1      45.958   6.854  12.572  0.00  0.00    +0.000 N 
ATOM      9  C   UNL     1      47.139   6.828  13.335  0.00  0.00    +0.000 C 
ATOM     10  O   UNL     1      48.021   7.676  13.176  0.00  0.00    +0.000 OA
BRANCH   8  11
ATOM     11  C   UNL     1      44.738   6.105  12.885  0.00  0.00    +0.000 C 
BRANCH  11  12
ATOM     12  C   UNL     1      44.440   4.969  11.944  0.00  0.00    +0.000 A 
ATOM     13  C   UNL     1      45.173   4.765  10.771  0.00  0.00    +0.000 A 
ATOM     14  C   UNL     1      44.916   3.650   9.977  0.00  0.00    +0.000 A 
ATOM     15  C   UNL     1      43.927   2.769  10.378  0.00  0.00    +0.000 A 
ATOM     16  N   UNL     1      43.186   2.936  11.494  0.00  0.00    +0.000 NA
ATOM     17  C   UNL     1      43.460   4.028  12.246  0.00  0.00    +0.000 A 
ENDBRANCH  11  12
ENDBRANCH   8  11
ENDBRANCH   1   9
BRANCH   4  18
ATOM     18  C   UNL     1      47.965   2.860  17.413  0.00  0.00    +0.000 C 
BRANCH  18  19
ATOM     19  N   UNL     1      49.352   2.812  17.796  0.00  0.00    +0.000 N 
ATOM     20  C   UNL     1      50.267   2.114  17.051  0.00  0.00    +0.000 C 
ATOM     21  O   UNL     1      49.956   1.555  16.003  0.00  0.00    +0.000 OA
ATOM     22  H   UNL     1      49.580   3.059  18.755  0.00  0.00    +0.000 HD
BRANCH  20  23
ATOM     23  C   UNL     1      51.654   2.123  17.533  0.00  0.00    +0.000 A 
ATOM     24  C   UNL     1      52.292   0.922  17.805  0.00  0.00    +0.000 A 
ATOM     25  S   UNL     1      53.913   1.104  18.302  0.00  0.00    +0.000 S 
ATOM     26  C   UNL     1      53.803   2.800  18.221  0.00  0.00    +0.000 A 
ATOM     27  N   UNL     1      54.864   3.584  18.552  0.00  0.00    +0.000 NA
ATOM     28  C   UNL     1      54.633   4.852  18.478  0.00  0.00    +0.000 A 
ATOM     29  N   UNL     1      53.437   5.408  18.101  0.00  0.00    +0.000 N 
ATOM     30  C   UNL     1      52.348   4.656  17.725  0.00  0.00    +0.000 A 
ATOM     31  O   UNL     1      51.308   5.182  17.348  0.00  0.00    +0.000 OA
ATOM     32  C   UNL     1      52.552   3.220  17.804  0.00  0.00    +0.000 A 
ATOM     33  H   UNL     1      53.326   6.410  18.057  0.00  0.00    +0.000 HD
ENDBRANCH  20  23
ENDBRANCH  18  19
ENDBRANCH   4  18
TORSDOF 6
ENDMDL
MODEL 9
REMARK VINA RESULT:    -6.067      2.849      7.421
REMARK INTER + INTRA:          -9.551
REMARK INTER:                  -8.188
REMARK INTRA:                  -1.364
REMARK UNBOUND:                -1.356
REMARK  Name = 
REMARK  7 active torsions:
REMARK  status: ('A' for Active; 'I' for Inactive)
REMARK    1  A    between atoms: C_1  and  N_2
REMARK    2  A    between atoms: N_2  and  C_3
REMARK    3  A    between atoms: C_3  and  C_4
REMARK    4  A    between atoms: C_10  and  C_12
REMARK    5  A    between atoms: C_15  and  C_16
REMARK    6  A    between atoms: C_16  and  N_17
REMARK    7  A    between atoms: C_18  and  C_20
REMARK                            x       y       z     vdW  Elec       q    Type
REMARK                         _______ _______ _______ _____ _____    ______ ____
ROOT
ATOM      1  C   UNL     1      47.623   9.494  12.373  0.00  0.00    +0.000 A 
ATOM      2  C   UNL     1      48.286   8.396  11.833  0.00  0.00    +0.000 A 
ATOM      3  C   UNL     1      49.421   7.914  12.482  0.00  0.00    +0.000 A 
ATOM      4  C   UNL     1      49.866   8.538  13.650  0.00  0.00    +0.000 A 
ATOM      5  C   UNL     1      49.113   9.600  14.136  0.00  0.00    +0.000 A 
ATOM      6  N   UNL     1      48.011  10.091  13.529  0.00  0.00    +0.000 NA
ENDROOT
BRANCH   1   9
ATOM      7  C   UNL     1      44.110   9.772  10.868  0.00  0.00    +0.000 C 
ATOM      8  N   UNL     1      45.237   9.192  11.579  0.00  0.00    +0.000 N 
ATOM      9  C   UNL     1      46.385   9.996  11.695  0.00  0.00    +0.000 C 
ATOM     10  O   UNL     1      46.406  11.148  11.251  0.00  0.00    +0.000 OA
BRANCH   8  11
ATOM     11  C   UNL     1      44.997   7.955  12.327  0.00  0.00    +0.000 C 
BRANCH  11  12
ATOM     12  C   UNL     1      44.669   6.760  11.474  0.00  0.00    +0.000 A 
ATOM     13  C   UNL     1      45.640   6.103  10.711  0.00  0.00    +0.000 A 
ATOM     14  C   UNL     1      45.306   4.949  10.006  0.00  0.00    +0.000 A 
ATOM     15  C   UNL     1      44.004   4.486  10.082  0.00  0.00    +0.000 A 
ATOM     16  N   UNL     1      43.033   5.097  10.793  0.00  0.00    +0.000 NA
ATOM     17  C   UNL     1      43.389   6.214  11.469  0.00  0.00    +0.000 A 
ENDBRANCH  11  12
ENDBRANCH   8  11
ENDBRANCH   1   9
BRANCH   4  18
ATOM     18  C   UNL     1      51.078   8.054  14.388  0.00  0.00    +0.000 C 
BRANCH  18  19
ATOM     19  N   UNL     1      50.736   7.001  15.309  0.00  0.00    +0.000 N 
ATOM     20  C   UNL     1      50.436   7.277  16.617  0.00  0.00    +0.000 C 
ATOM     21  O   UNL     1      50.388   8.429  17.041  0.00  0.00    +0.000 OA
ATOM     22  H   UNL     1      50.993   6.053  15.051  0.00  0.00    +0.000 HD
BRANCH  20  23
ATOM     23  C   UNL     1      50.107   6.131  17.475  0.00  0.00    +0.000 A 
ATOM     24  C   UNL     1      50.811   5.934  18.654  0.00  0.00    +0.000 A 
ATOM     25  S   UNL     1      50.271   4.593  19.558  0.00  0.00    +0.000 S 
ATOM     26  C   UNL     1      49.109   4.199  18.380  0.00  0.00    +0.000 A 
ATOM     27  N   UNL     1      48.303   3.114  18.531  0.00  0.00    +0.000 NA
ATOM     28  C   UNL     1      47.492   2.911  17.547  0.00  0.00    +0.000 A 
ATOM     29  N   UNL     1      47.411   3.697  16.426  0.00  0.00    +0.000 N 
ATOM     30  C   UNL     1      48.180   4.823  16.245  0.00  0.00    +0.000 A 
ATOM     31  O   UNL     1      48.052   5.532  15.254  0.00  0.00    +0.000 OA
ATOM     32  C   UNL     1      49.122   5.087  17.319  0.00  0.00    +0.000 A 
ATOM     33  H   UNL     1      46.747   3.487  15.696  0.00  0.00    +0.000 HD
ENDBRANCH  20  23
ENDBRANCH  18  19
ENDBRANCH   4  18
TORSDOF 6
ENDMDL
