MODEL 1
REMARK VINA RESULT:    -7.859      0.000      0.000
REMARK INTER + INTRA:         -12.717
REMARK INTER:                 -11.534
REMARK INTRA:                  -1.183
REMARK UNBOUND:                -1.183
REMARK  Name = 
REMARK  10 active torsions:
REMARK  status: ('A' for Active; 'I' for Inactive)
REMARK    1  A    between atoms: C_1  and  C_2
REMARK    2  A    between atoms: C_2  and  N_3
REMARK    3  A    between atoms: C_2  and  C_21
REMARK    4  A    between atoms: N_3  and  C_4
REMARK    5  A    between atoms: C_4  and  C_5
REMARK    6  A    between atoms: C_8  and  C_9
REMARK    7  A    between atoms: C_9  and  C_10
REMARK    8  A    between atoms: C_10  and  N_11
REMARK    9  A    between atoms: N_11  and  C_12
REMARK   10  A    between atoms: N_16  and  C_17
REMARK                            x       y       z     vdW  Elec       q    Type
REMARK                         _______ _______ _______ _____ _____    ______ ____
ROOT
ATOM      1  C   UNL     1      45.836   6.890  12.519  0.00  0.00    +0.000 A 
ATOM      2  C   UNL     1      46.156   8.172  12.974  0.00  0.00    +0.000 A 
ATOM      3  C   UNL     1      47.455   8.474  13.376  0.00  0.00    +0.000 A 
ATOM      4  C   UNL     1      48.456   7.493  13.362  0.00  0.00    +0.000 A 
ATOM      5  C   UNL     1      48.137   6.212  12.894  0.00  0.00    +0.000 A 
ATOM      6  C   UNL     1      46.840   5.913  12.480  0.00  0.00    +0.000 A 
ENDROOT
BRANCH   1   7
ATOM      7  C   UNL     1      44.425   6.536  12.133  0.00  0.00    +0.000 C 
BRANCH   7   8
ATOM      8  N   UNL     1      44.280   6.281  10.694  0.00  0.00    +0.000 NA
ATOM      9  H   UNL     1      43.702   7.024  10.302  0.00  0.00    +0.000 HD
BRANCH   8  11
ATOM     10  C   UNL     1      43.173   4.332  11.767  0.00  0.00    +0.000 C 
ATOM     11  C   UNL     1      43.595   5.002  10.450  0.00  0.00    +0.000 C 
BRANCH  11  12
ATOM     12  C   UNL     1      44.426   4.022   9.635  0.00  0.00    +0.000 C 
ATOM     13  C   UNL     1      44.200   2.604   9.921  0.00  0.00    +0.000 C 
ATOM     14  C   UNL     1      44.913   1.648   9.303  0.00  0.00    +0.000 C 
ATOM     15  C   UNL     1      45.925   1.997   8.317  0.00  0.00    +0.000 C 
ATOM     16  C   UNL     1      46.674   1.044   7.721  0.00  0.00    +0.000 C 
ATOM     17  N   UNL     1      47.655   1.292   6.782  0.00  0.00    +0.000 NA
ATOM     18  C   UNL     1      47.820   2.547   6.477  0.00  0.00    +0.000 C 
ATOM     19  C   UNL     1      47.047   3.672   7.054  0.00  0.00    +0.000 C 
ATOM     20  N   UNL     1      46.096   3.367   8.007  0.00  0.00    +0.000 N 
ATOM     21  C   UNL     1      45.336   4.326   8.688  0.00  0.00    +0.000 C 
ENDBRANCH  11  12
ENDBRANCH   8  11
ENDBRANCH   7   8
ENDBRANCH   1   7
BRANCH   4  22
ATOM     22  C   UNL     1      49.874   7.781  13.790  0.00  0.00    +0.000 C 
BRANCH  22  23
ATOM     23  C   UNL     1      50.277   7.310  15.197  0.00  0.00    +0.000 C 
BRANCH  23  24
ATOM     24  N   UNL     1      49.131   7.226  16.110  0.00  0.00    +0.000 NA
ATOM     25  H   UNL     1      48.265   7.138  15.582  0.00  0.00    +0.000 HD
BRANCH  24  26
ATOM     26  C   UNL     1      49.258   6.142  17.097  0.00  0.00    +0.000 C 
ATOM     27  C   UNL     1      50.666   5.531  17.103  0.00  0.00    +0.000 C 
ATOM     28  C   UNL     1      50.731   4.340  18.049  0.00  0.00    +0.000 C 
ATOM     29  C   UNL     1      49.667   3.305  17.698  0.00  0.00    +0.000 C 
ATOM     30  N   UNL     1      48.323   3.892  17.743  0.00  0.00    +0.000 NA
ATOM     31  C   UNL     1      47.317   2.877  17.432  0.00  0.00    +0.000 C 
ATOM     32  C   UNL     1      48.203   5.035  16.817  0.00  0.00    +0.000 C 
ENDBRANCH  24  26
ENDBRANCH  23  24
ENDBRANCH  22  23
ENDBRANCH   4  22
TORSDOF 8
ENDMDL
MODEL 2
REMARK VINA RESULT:    -7.602      1.399      2.025
REMARK INTER + INTRA:         -12.341
REMARK INTER:                 -11.046
REMARK INTRA:                  -1.296
REMARK UNBOUND:                -1.183
REMARK  Name = 
REMARK  10 active torsions:
REMARK  status: ('A' for Active; 'I' for Inactive)
REMARK    1  A    between atoms: C_1  and  C_2
REMARK    2  A    between atoms: C_2  and  N_3
REMARK    3  A    between atoms: C_2  and  C_21
REMARK    4  A    between atoms: N_3  and  C_4
REMARK    5  A    between atoms: C_4  and  C_5
REMARK    6  A    between atoms: C_8  and  C_9
REMARK    7  A    between atoms: C_9  and  C_10
REMARK    8  A    between atoms: C_10  and  N_11
REMARK    9  A    between atoms: N_11  and  C_12
REMARK   10  A    between atoms: N_16  and  C_17
REMARK                            x       y       z     vdW  Elec       q    Type
REMARK                         _______ _______ _______ _____ _____    ______ ____
ROOT
ATOM      1  C   UNL     1      45.041   5.854  12.850  0.00  0.00    +0.000 A 
ATOM      2  C   UNL     1      45.471   7.146  12.533  0.00  0.00    +0.000 A 
ATOM      3  C   UNL     1      46.777   7.542  12.810  0.00  0.00    +0.000 A 
ATOM      4  C   UNL     1      47.673   6.667  13.439  0.00  0.00    +0.000 A 
ATOM      5  C   UNL     1      47.245   5.370  13.746  0.00  0.00    +0.000 A 
ATOM      6  C   UNL     1      45.941   4.969  13.457  0.00  0.00    +0.000 A 
ENDROOT
BRANCH   1   7
ATOM      7  C   UNL     1      43.617   5.431  12.605  0.00  0.00    +0.000 C 
BRANCH   7   8
ATOM      8  N   UNL     1      43.301   5.316  11.176  0.00  0.00    +0.000 NA
ATOM      9  H   UNL     1      42.365   5.694  11.032  0.00  0.00    +0.000 HD
BRANCH   8  11
ATOM     10  C   UNL     1      43.372   2.957  11.953  0.00  0.00    +0.000 C 
ATOM     11  C   UNL     1      43.287   3.908  10.749  0.00  0.00    +0.000 C 
BRANCH  11  12
ATOM     12  C   UNL     1      44.397   3.567   9.765  0.00  0.00    +0.000 C 
ATOM     13  C   UNL     1      45.075   4.710   9.151  0.00  0.00    +0.000 C 
ATOM     14  C   UNL     1      46.034   4.535   8.226  0.00  0.00    +0.000 C 
ATOM     15  C   UNL     1      46.436   3.196   7.819  0.00  0.00    +0.000 C 
ATOM     16  C   UNL     1      47.372   3.012   6.861  0.00  0.00    +0.000 C 
ATOM     17  N   UNL     1      47.804   1.779   6.417  0.00  0.00    +0.000 NA
ATOM     18  C   UNL     1      47.249   0.757   7.002  0.00  0.00    +0.000 C 
ATOM     19  C   UNL     1      46.227   0.840   8.072  0.00  0.00    +0.000 C 
ATOM     20  N   UNL     1      45.815   2.098   8.460  0.00  0.00    +0.000 N 
ATOM     21  C   UNL     1      44.812   2.335   9.408  0.00  0.00    +0.000 C 
ENDBRANCH  11  12
ENDBRANCH   8  11
ENDBRANCH   7   8
ENDBRANCH   1   7
BRANCH   4  22
ATOM     22  C   UNL     1      49.095   7.060  13.757  0.00  0.00    +0.000 C 
BRANCH  22  23
ATOM     23  C   UNL     1      49.312   7.885  15.036  0.00  0.00    +0.000 C 
BRANCH  23  24
ATOM     24  N   UNL     1      48.457   7.440  16.143  0.00  0.00    +0.000 NA
ATOM     25  H   UNL     1      47.622   6.983  15.782  0.00  0.00    +0.000 HD
BRANCH  24  26
ATOM     26  C   UNL     1      49.159   6.572  17.102  0.00  0.00    +0.000 C 
ATOM     27  C   UNL     1      48.799   5.092  16.908  0.00  0.00    +0.000 C 
ATOM     28  C   UNL     1      49.449   4.236  17.986  0.00  0.00    +0.000 C 
ATOM     29  C   UNL     1      49.071   4.731  19.379  0.00  0.00    +0.000 C 
ATOM     30  N   UNL     1      49.463   6.132  19.566  0.00  0.00    +0.000 NA
ATOM     31  C   UNL     1      49.117   6.579  20.915  0.00  0.00    +0.000 C 
ATOM     32  C   UNL     1      48.832   7.008  18.558  0.00  0.00    +0.000 C 
ENDBRANCH  24  26
ENDBRANCH  23  24
ENDBRANCH  22  23
ENDBRANCH   4  22
TORSDOF 8
ENDMDL
MODEL 3
REMARK VINA RESULT:    -7.371      1.698      9.239
REMARK INTER + INTRA:         -12.002
REMARK INTER:                 -10.689
REMARK INTRA:                  -1.313
REMARK UNBOUND:                -1.183
REMARK  Name = 
REMARK  10 active torsions:
REMARK  status: ('A' for Active; 'I' for Inactive)
REMARK    1  A    between atoms: C_1  and  C_2
REMARK    2  A    between atoms: C_2  and  N_3
REMARK    3  A    between atoms: C_2  and  C_21
REMARK    4  A    between atoms: N_3  and  C_4
REMARK    5  A    between atoms: C_4  and  C_5
REMARK    6  A    between atoms: C_8  and  C_9
REMARK    7  A    between atoms: C_9  and  C_10
REMARK    8  A    between atoms: C_10  and  N_11
REMARK    9  A    between atoms: N_11  and  C_12
REMARK   10  A    between atoms: N_16  and  C_17
REMARK                            x       y       z     vdW  Elec       q    Type
REMARK                         _______ _______ _______ _____ _____    ______ ____
ROOT
ATOM      1  C   UNL     1      47.303   6.508  12.754  0.00  0.00    +0.000 A 
ATOM      2  C   UNL     1      46.173   6.823  11.994  0.00  0.00    +0.000 A 
ATOM      3  C   UNL     1      45.074   5.966  11.975  0.00  0.00    +0.000 A 
ATOM      4  C   UNL     1      45.094   4.761  12.690  0.00  0.00    +0.000 A 
ATOM      5  C   UNL     1      46.222   4.453  13.460  0.00  0.00    +0.000 A 
ATOM      6  C   UNL     1      47.316   5.316  13.489  0.00  0.00    +0.000 A 
ENDROOT
BRANCH   1   7
ATOM      7  C   UNL     1      48.516   7.400  12.739  0.00  0.00    +0.000 C 
BRANCH   7   8
ATOM      8  N   UNL     1      49.599   6.892  13.590  0.00  0.00    +0.000 NA
ATOM      9  H   UNL     1      49.300   5.995  13.974  0.00  0.00    +0.000 HD
BRANCH   8  11
ATOM     10  C   UNL     1      51.242   8.452  14.612  0.00  0.00    +0.000 C 
ATOM     11  C   UNL     1      49.854   7.800  14.720  0.00  0.00    +0.000 C 
BRANCH  11  12
ATOM     12  C   UNL     1      49.725   7.122  16.076  0.00  0.00    +0.000 C 
ATOM     13  C   UNL     1      50.797   6.190  16.427  0.00  0.00    +0.000 C 
ATOM     14  C   UNL     1      50.764   5.491  17.574  0.00  0.00    +0.000 C 
ATOM     15  C   UNL     1      49.661   5.655  18.511  0.00  0.00    +0.000 C 
ATOM     16  C   UNL     1      49.601   4.927  19.648  0.00  0.00    +0.000 C 
ATOM     17  N   UNL     1      48.590   5.019  20.583  0.00  0.00    +0.000 NA
ATOM     18  C   UNL     1      47.663   5.891  20.307  0.00  0.00    +0.000 C 
ATOM     19  C   UNL     1      47.635   6.752  19.102  0.00  0.00    +0.000 C 
ATOM     20  N   UNL     1      48.659   6.600  18.189  0.00  0.00    +0.000 N 
ATOM     21  C   UNL     1      48.734   7.293  16.975  0.00  0.00    +0.000 C 
ENDBRANCH  11  12
ENDBRANCH   8  11
ENDBRANCH   7   8
ENDBRANCH   1   7
BRANCH   4  22
ATOM     22  C   UNL     1      43.925   3.806  12.694  0.00  0.00    +0.000 C 
BRANCH  22  23
ATOM     23  C   UNL     1      43.235   3.558  11.343  0.00  0.00    +0.000 C 
BRANCH  23  24
ATOM     24  N   UNL     1      43.845   2.452  10.597  0.00  0.00    +0.000 NA
ATOM     25  H   UNL     1      43.147   1.987  10.020  0.00  0.00    +0.000 HD
BRANCH  24  26
ATOM     26  C   UNL     1      45.002   2.870   9.788  0.00  0.00    +0.000 C 
ATOM     27  C   UNL     1      44.695   4.117   8.947  0.00  0.00    +0.000 C 
ATOM     28  C   UNL     1      45.868   4.453   8.038  0.00  0.00    +0.000 C 
ATOM     29  C   UNL     1      46.241   3.261   7.163  0.00  0.00    +0.000 C 
ATOM     30  N   UNL     1      46.577   2.090   7.980  0.00  0.00    +0.000 NA
ATOM     31  C   UNL     1      46.958   0.967   7.124  0.00  0.00    +0.000 C 
ATOM     32  C   UNL     1      45.455   1.707   8.861  0.00  0.00    +0.000 C 
ENDBRANCH  24  26
ENDBRANCH  23  24
ENDBRANCH  22  23
ENDBRANCH   4  22
TORSDOF 8
ENDMDL
MODEL 4
REMARK VINA RESULT:    -7.307      2.931      5.452
REMARK INTER + INTRA:         -11.908
REMARK INTER:                 -10.457
REMARK INTRA:                  -1.452
REMARK UNBOUND:                -1.183
REMARK  Name = 
REMARK  10 active torsions:
REMARK  status: ('A' for Active; 'I' for Inactive)
REMARK    1  A    between atoms: C_1  and  C_2
REMARK    2  A    between atoms: C_2  and  N_3
REMARK    3  A    between atoms: C_2  and  C_21
REMARK    4  A    between atoms: N_3  and  C_4
REMARK    5  A    between atoms: C_4  and  C_5
REMARK    6  A    between atoms: C_8  and  C_9
REMARK    7  A    between atoms: C_9  and  C_10
REMARK    8  A    between atoms: C_10  and  N_11
REMARK    9  A    between atoms: N_11  and  C_12
REMARK   10  A    between atoms: N_16  and  C_17
REMARK                            x       y       z     vdW  Elec       q    Type
REMARK                         _______ _______ _______ _____ _____    ______ ____
ROOT
ATOM      1  C   UNL     1      45.016   5.828  12.700  0.00  0.00    +0.000 A 
ATOM      2  C   UNL     1      45.316   7.049  12.089  0.00  0.00    +0.000 A 
ATOM      3  C   UNL     1      46.624   7.527  12.075  0.00  0.00    +0.000 A 
ATOM      4  C   UNL     1      47.655   6.812  12.699  0.00  0.00    +0.000 A 
ATOM      5  C   UNL     1      47.355   5.584  13.301  0.00  0.00    +0.000 A 
ATOM      6  C   UNL     1      46.048   5.099  13.304  0.00  0.00    +0.000 A 
ENDROOT
BRANCH   1   7
ATOM      7  C   UNL     1      43.598   5.326  12.768  0.00  0.00    +0.000 C 
BRANCH   7   8
ATOM      8  N   UNL     1      43.029   5.062  11.441  0.00  0.00    +0.000 NA
ATOM      9  H   UNL     1      42.028   5.254  11.487  0.00  0.00    +0.000 HD
BRANCH   8  11
ATOM     10  C   UNL     1      43.509   2.776  12.290  0.00  0.00    +0.000 C 
ATOM     11  C   UNL     1      43.198   3.649  11.065  0.00  0.00    +0.000 C 
BRANCH  11  12
ATOM     12  C   UNL     1      44.276   3.434  10.012  0.00  0.00    +0.000 C 
ATOM     13  C   UNL     1      44.836   4.648   9.416  0.00  0.00    +0.000 C 
ATOM     14  C   UNL     1      45.755   4.583   8.438  0.00  0.00    +0.000 C 
ATOM     15  C   UNL     1      46.230   3.296   7.952  0.00  0.00    +0.000 C 
ATOM     16  C   UNL     1      47.124   3.222   6.941  0.00  0.00    +0.000 C 
ATOM     17  N   UNL     1      47.621   2.045   6.420  0.00  0.00    +0.000 NA
ATOM     18  C   UNL     1      47.173   0.961   6.986  0.00  0.00    +0.000 C 
ATOM     19  C   UNL     1      46.206   0.923   8.108  0.00  0.00    +0.000 C 
ATOM     20  N   UNL     1      45.725   2.130   8.572  0.00  0.00    +0.000 N 
ATOM     21  C   UNL     1      44.759   2.252   9.579  0.00  0.00    +0.000 C 
ENDBRANCH  11  12
ENDBRANCH   8  11
ENDBRANCH   7   8
ENDBRANCH   1   7
BRANCH   4  22
ATOM     22  C   UNL     1      49.084   7.298  12.707  0.00  0.00    +0.000 C 
BRANCH  22  23
ATOM     23  C   UNL     1      49.382   8.574  11.905  0.00  0.00    +0.000 C 
BRANCH  23  24
ATOM     24  N   UNL     1      49.194   9.793  12.699  0.00  0.00    +0.000 NA
ATOM     25  H   UNL     1      50.003   9.955  13.295  0.00  0.00    +0.000 HD
BRANCH  24  26
ATOM     26  C   UNL     1      48.900  10.978  11.878  0.00  0.00    +0.000 C 
ATOM     27  C   UNL     1      47.445  10.992  11.389  0.00  0.00    +0.000 C 
ATOM     28  C   UNL     1      47.205  12.166  10.449  0.00  0.00    +0.000 C 
ATOM     29  C   UNL     1      48.191  12.145   9.286  0.00  0.00    +0.000 C 
ATOM     30  N   UNL     1      49.577  12.179   9.767  0.00  0.00    +0.000 NA
ATOM     31  C   UNL     1      50.505  12.186   8.636  0.00  0.00    +0.000 C 
ATOM     32  C   UNL     1      49.866  11.040  10.661  0.00  0.00    +0.000 C 
ENDBRANCH  24  26
ENDBRANCH  23  24
ENDBRANCH  22  23
ENDBRANCH   4  22
TORSDOF 8
ENDMDL
MODEL 5
REMARK VINA RESULT:    -6.972      2.769     10.116
REMARK INTER + INTRA:         -11.417
REMARK INTER:                 -10.358
REMARK INTRA:                  -1.059
REMARK UNBOUND:                -1.183
REMARK  Name = 
REMARK  10 active torsions:
REMARK  status: ('A' for Active; 'I' for Inactive)
REMARK    1  A    between atoms: C_1  and  C_2
REMARK    2  A    between atoms: C_2  and  N_3
REMARK    3  A    between atoms: C_2  and  C_21
REMARK    4  A    between atoms: N_3  and  C_4
REMARK    5  A    between atoms: C_4  and  C_5
REMARK    6  A    between atoms: C_8  and  C_9
REMARK    7  A    between atoms: C_9  and  C_10
REMARK    8  A    between atoms: C_10  and  N_11
REMARK    9  A    between atoms: N_11  and  C_12
REMARK   10  A    between atoms: N_16  and  C_17
REMARK                            x       y       z     vdW  Elec       q    Type
REMARK                         _______ _______ _______ _____ _____    ______ ____
ROOT
ATOM      1  C   UNL     1      47.251   4.666  14.914  0.00  0.00    +0.000 A 
ATOM      2  C   UNL     1      47.636   5.954  14.529  0.00  0.00    +0.000 A 
ATOM      3  C   UNL     1      47.255   6.463  13.290  0.00  0.00    +0.000 A 
ATOM      4  C   UNL     1      46.508   5.685  12.395  0.00  0.00    +0.000 A 
ATOM      5  C   UNL     1      46.114   4.400  12.786  0.00  0.00    +0.000 A 
ATOM      6  C   UNL     1      46.484   3.895  14.031  0.00  0.00    +0.000 A 
ENDROOT
BRANCH   1   7
ATOM      7  C   UNL     1      47.701   4.085  16.228  0.00  0.00    +0.000 C 
BRANCH   7   8
ATOM      8  N   UNL     1      48.942   4.696  16.719  0.00  0.00    +0.000 NA
ATOM      9  H   UNL     1      49.722   4.257  16.228  0.00  0.00    +0.000 HD
BRANCH   8  11
ATOM     10  C   UNL     1      48.444   3.136  18.588  0.00  0.00    +0.000 C 
ATOM     11  C   UNL     1      49.121   4.447  18.158  0.00  0.00    +0.000 C 
BRANCH  11  12
ATOM     12  C   UNL     1      48.610   5.583  19.032  0.00  0.00    +0.000 C 
ATOM     13  C   UNL     1      48.481   5.281  20.459  0.00  0.00    +0.000 C 
ATOM     14  C   UNL     1      47.989   6.187  21.320  0.00  0.00    +0.000 C 
ATOM     15  C   UNL     1      47.582   7.506  20.857  0.00  0.00    +0.000 C 
ATOM     16  C   UNL     1      47.050   8.409  21.709  0.00  0.00    +0.000 C 
ATOM     17  N   UNL     1      46.636   9.676  21.350  0.00  0.00    +0.000 NA
ATOM     18  C   UNL     1      46.804   9.974  20.094  0.00  0.00    +0.000 C 
ATOM     19  C   UNL     1      47.390   9.071  19.076  0.00  0.00    +0.000 C 
ATOM     20  N   UNL     1      47.764   7.808  19.487  0.00  0.00    +0.000 N 
ATOM     21  C   UNL     1      48.269   6.824  18.628  0.00  0.00    +0.000 C 
ENDBRANCH  11  12
ENDBRANCH   8  11
ENDBRANCH   7   8
ENDBRANCH   1   7
BRANCH   4  22
ATOM     22  C   UNL     1      46.078   6.200  11.043  0.00  0.00    +0.000 C 
BRANCH  22  23
ATOM     23  C   UNL     1      45.116   5.309  10.242  0.00  0.00    +0.000 C 
BRANCH  23  24
ATOM     24  N   UNL     1      45.411   5.315   8.805  0.00  0.00    +0.000 NA
ATOM     25  H   UNL     1      46.302   5.774   8.629  0.00  0.00    +0.000 HD
BRANCH  24  26
ATOM     26  C   UNL     1      45.383   3.973   8.203  0.00  0.00    +0.000 C 
ATOM     27  C   UNL     1      45.263   2.870   9.264  0.00  0.00    +0.000 C 
ATOM     28  C   UNL     1      45.354   1.493   8.621  0.00  0.00    +0.000 C 
ATOM     29  C   UNL     1      46.635   1.355   7.805  0.00  0.00    +0.000 C 
ATOM     30  N   UNL     1      46.714   2.386   6.765  0.00  0.00    +0.000 NA
ATOM     31  C   UNL     1      47.936   2.219   5.978  0.00  0.00    +0.000 C 
ATOM     32  C   UNL     1      46.659   3.743   7.346  0.00  0.00    +0.000 C 
ENDBRANCH  24  26
ENDBRANCH  23  24
ENDBRANCH  22  23
ENDBRANCH   4  22
TORSDOF 8
ENDMDL
MODEL 6
REMARK VINA RESULT:    -6.838      2.405      9.592
REMARK INTER + INTRA:         -11.219
REMARK INTER:                  -9.983
REMARK INTRA:                  -1.236
REMARK UNBOUND:                -1.183
REMARK  Name = 
REMARK  10 active torsions:
REMARK  status: ('A' for Active; 'I' for Inactive)
REMARK    1  A    between atoms: C_1  and  C_2
REMARK    2  A    between atoms: C_2  and  N_3
REMARK    3  A    between atoms: C_2  and  C_21
REMARK    4  A    between atoms: N_3  and  C_4
REMARK    5  A    between atoms: C_4  and  C_5
REMARK    6  A    between atoms: C_8  and  C_9
REMARK    7  A    between atoms: C_9  and  C_10
REMARK    8  A    between atoms: C_10  and  N_11
REMARK    9  A    between atoms: N_11  and  C_12
REMARK   10  A    between atoms: N_16  and  C_17
REMARK                            x       y       z     vdW  Elec       q    Type
REMARK                         _______ _______ _______ _____ _____    ______ ____
ROOT
ATOM      1  C   UNL     1      47.013   4.715  14.648  0.00  0.00    +0.000 A 
ATOM      2  C   UNL     1      47.366   5.958  14.114  0.00  0.00    +0.000 A 
ATOM      3  C   UNL     1      46.901   6.344  12.859  0.00  0.00    +0.000 A 
ATOM      4  C   UNL     1      46.101   5.484  12.096  0.00  0.00    +0.000 A 
ATOM      5  C   UNL     1      45.739   4.244  12.636  0.00  0.00    +0.000 A 
ATOM      6  C   UNL     1      46.193   3.862  13.897  0.00  0.00    +0.000 A 
ENDROOT
BRANCH   1   7
ATOM      7  C   UNL     1      47.552   4.265  15.979  0.00  0.00    +0.000 C 
BRANCH   7   8
ATOM      8  N   UNL     1      48.774   4.981  16.364  0.00  0.00    +0.000 NA
ATOM      9  H   UNL     1      49.538   4.304  16.391  0.00  0.00    +0.000 HD
BRANCH   8  11
ATOM     10  C   UNL     1      47.424   4.995  18.450  0.00  0.00    +0.000 C 
ATOM     11  C   UNL     1      48.644   5.564  17.709  0.00  0.00    +0.000 C 
BRANCH  11  12
ATOM     12  C   UNL     1      48.558   7.084  17.699  0.00  0.00    +0.000 C 
ATOM     13  C   UNL     1      47.780   7.685  18.783  0.00  0.00    +0.000 C 
ATOM     14  C   UNL     1      47.589   9.013  18.849  0.00  0.00    +0.000 C 
ATOM     15  C   UNL     1      48.166   9.896  17.844  0.00  0.00    +0.000 C 
ATOM     16  C   UNL     1      47.944  11.228  17.880  0.00  0.00    +0.000 C 
ATOM     17  N   UNL     1      48.450  12.131  16.966  0.00  0.00    +0.000 NA
ATOM     18  C   UNL     1      49.194  11.610  16.033  0.00  0.00    +0.000 C 
ATOM     19  C   UNL     1      49.515  10.169  15.905  0.00  0.00    +0.000 C 
ATOM     20  N   UNL     1      48.963   9.310  16.833  0.00  0.00    +0.000 N 
ATOM     21  C   UNL     1      49.121   7.919  16.802  0.00  0.00    +0.000 C 
ENDBRANCH  11  12
ENDBRANCH   8  11
ENDBRANCH   7   8
ENDBRANCH   1   7
BRANCH   4  22
ATOM     22  C   UNL     1      45.579   5.865  10.732  0.00  0.00    +0.000 C 
BRANCH  22  23
ATOM     23  C   UNL     1      44.877   4.758   9.929  0.00  0.00    +0.000 C 
BRANCH  23  24
ATOM     24  N   UNL     1      45.171   4.833   8.494  0.00  0.00    +0.000 NA
ATOM     25  H   UNL     1      45.976   5.434   8.329  0.00  0.00    +0.000 HD
BRANCH  24  26
ATOM     26  C   UNL     1      45.366   3.513   7.874  0.00  0.00    +0.000 C 
ATOM     27  C   UNL     1      45.572   2.410   8.922  0.00  0.00    +0.000 C 
ATOM     28  C   UNL     1      45.886   1.081   8.249  0.00  0.00    +0.000 C 
ATOM     29  C   UNL     1      47.089   1.209   7.321  0.00  0.00    +0.000 C 
ATOM     30  N   UNL     1      46.860   2.233   6.296  0.00  0.00    +0.000 NA
ATOM     31  C   UNL     1      48.012   2.321   5.400  0.00  0.00    +0.000 C 
ATOM     32  C   UNL     1      46.579   3.550   6.903  0.00  0.00    +0.000 C 
ENDBRANCH  24  26
ENDBRANCH  23  24
ENDBRANCH  22  23
ENDBRANCH   4  22
TORSDOF 8
ENDMDL
MODEL 7
REMARK VINA RESULT:    -6.645      3.409      5.175
REMARK INTER + INTRA:         -10.936
REMARK INTER:                  -9.219
REMARK INTRA:                  -1.717
REMARK UNBOUND:                -1.183
REMARK  Name = 
REMARK  10 active torsions:
REMARK  status: ('A' for Active; 'I' for Inactive)
REMARK    1  A    between atoms: C_1  and  C_2
REMARK    2  A    between atoms: C_2  and  N_3
REMARK    3  A    between atoms: C_2  and  C_21
REMARK    4  A    between atoms: N_3  and  C_4
REMARK    5  A    between atoms: C_4  and  C_5
REMARK    6  A    between atoms: C_8  and  C_9
REMARK    7  A    between atoms: C_9  and  C_10
REMARK    8  A    between atoms: C_10  and  N_11
REMARK    9  A    between atoms: N_11  and  C_12
REMARK   10  A    between atoms: N_16  and  C_17
REMARK                            x       y       z     vdW  Elec       q    Type
REMARK                         _______ _______ _______ _____ _____    ______ ____
ROOT
ATOM      1  C   UNL     1      50.013   7.900  14.926  0.00  0.00    +0.000 A 
ATOM      2  C   UNL     1      51.017   7.361  15.736  0.00  0.00    +0.000 A 
ATOM      3  C   UNL     1      50.775   7.108  17.084  0.00  0.00    +0.000 A 
ATOM      4  C   UNL     1      49.536   7.418  17.660  0.00  0.00    +0.000 A 
ATOM      5  C   UNL     1      48.528   7.948  16.845  0.00  0.00    +0.000 A 
ATOM      6  C   UNL     1      48.765   8.189  15.493  0.00  0.00    +0.000 A 
ENDROOT
BRANCH   1   7
ATOM      7  C   UNL     1      50.280   8.228  13.481  0.00  0.00    +0.000 C 
BRANCH   7   8
ATOM      8  N   UNL     1      49.847   7.160  12.571  0.00  0.00    +0.000 NA
ATOM      9  H   UNL     1      50.620   6.959  11.936  0.00  0.00    +0.000 HD
BRANCH   8  11
ATOM     10  C   UNL     1      48.452   9.101  11.892  0.00  0.00    +0.000 C 
ATOM     11  C   UNL     1      48.699   7.590  11.758  0.00  0.00    +0.000 C 
BRANCH  11  12
ATOM     12  C   UNL     1      47.415   6.843  12.090  0.00  0.00    +0.000 C 
ATOM     13  C   UNL     1      47.536   5.782  13.092  0.00  0.00    +0.000 C 
ATOM     14  C   UNL     1      46.483   5.018  13.427  0.00  0.00    +0.000 C 
ATOM     15  C   UNL     1      45.182   5.236  12.810  0.00  0.00    +0.000 C 
ATOM     16  C   UNL     1      44.128   4.446  13.112  0.00  0.00    +0.000 C 
ATOM     17  N   UNL     1      42.867   4.583  12.570  0.00  0.00    +0.000 NA
ATOM     18  C   UNL     1      42.735   5.564  11.723  0.00  0.00    +0.000 C 
ATOM     19  C   UNL     1      43.815   6.500  11.330  0.00  0.00    +0.000 C 
ATOM     20  N   UNL     1      45.062   6.300  11.885  0.00  0.00    +0.000 N 
ATOM     21  C   UNL     1      46.193   7.059  11.561  0.00  0.00    +0.000 C 
ENDBRANCH  11  12
ENDBRANCH   8  11
ENDBRANCH   7   8
ENDBRANCH   1   7
BRANCH   4  22
ATOM     22  C   UNL     1      49.235   7.161  19.116  0.00  0.00    +0.000 C 
BRANCH  22  23
ATOM     23  C   UNL     1      47.878   6.514  19.435  0.00  0.00    +0.000 C 
BRANCH  23  24
ATOM     24  N   UNL     1      47.940   5.048  19.431  0.00  0.00    +0.000 NA
ATOM     25  H   UNL     1      47.046   4.656  19.720  0.00  0.00    +0.000 HD
BRANCH  24  26
ATOM     26  C   UNL     1      48.366   4.491  18.138  0.00  0.00    +0.000 C 
ATOM     27  C   UNL     1      47.214   3.784  17.410  0.00  0.00    +0.000 C 
ATOM     28  C   UNL     1      47.713   3.120  16.134  0.00  0.00    +0.000 C 
ATOM     29  C   UNL     1      48.865   2.165  16.429  0.00  0.00    +0.000 C 
ATOM     30  N   UNL     1      49.977   2.864  17.082  0.00  0.00    +0.000 NA
ATOM     31  C   UNL     1      51.081   1.938  17.331  0.00  0.00    +0.000 C 
ATOM     32  C   UNL     1      49.547   3.501  18.343  0.00  0.00    +0.000 C 
ENDBRANCH  24  26
ENDBRANCH  23  24
ENDBRANCH  22  23
ENDBRANCH   4  22
TORSDOF 8
ENDMDL
MODEL 8
REMARK VINA RESULT:    -6.534      3.580      8.398
REMARK INTER + INTRA:         -10.774
REMARK INTER:                  -9.650
REMARK INTRA:                  -1.124
REMARK UNBOUND:                -1.183
REMARK  Name = 
REMARK  10 active torsions:
REMARK  status: ('A' for Active; 'I' for Inactive)
REMARK    1  A    between atoms: C_1  and  C_2
REMARK    2  A    between atoms: C_2  and  N_3
REMARK    3  A    between atoms: C_2  and  C_21
REMARK    4  A    between atoms: N_3  and  C_4
REMARK    5  A    between atoms: C_4  and  C_5
REMARK    6  A    between atoms: C_8  and  C_9
REMARK    7  A    between atoms: C_9  and  C_10
REMARK    8  A    between atoms: C_10  and  N_11
REMARK    9  A    between atoms: N_11  and  C_12
REMARK   10  A    between atoms: N_16  and  C_17
REMARK                            x       y       z     vdW  Elec       q    Type
REMARK                         _______ _______ _______ _____ _____    ______ ____
ROOT
ATOM      1  C   UNL     1      47.101   6.701  13.169  0.00  0.00    +0.000 A 
ATOM      2  C   UNL     1      45.898   7.049  12.547  0.00  0.00    +0.000 A 
ATOM      3  C   UNL     1      44.879   6.110  12.407  0.00  0.00    +0.000 A 
ATOM      4  C   UNL     1      45.051   4.794  12.857  0.00  0.00    +0.000 A 
ATOM      5  C   UNL     1      46.252   4.449  13.490  0.00  0.00    +0.000 A 
ATOM      6  C   UNL     1      47.267   5.392  13.641  0.00  0.00    +0.000 A 
ENDROOT
BRANCH   1   7
ATOM      7  C   UNL     1      48.229   7.691  13.277  0.00  0.00    +0.000 C 
BRANCH   7   8
ATOM      8  N   UNL     1      49.546   7.066  13.108  0.00  0.00    +0.000 NA
ATOM      9  H   UNL     1      49.614   6.295  13.772  0.00  0.00    +0.000 HD
BRANCH   8  11
ATOM     10  C   UNL     1      50.143   9.132  14.355  0.00  0.00    +0.000 C 
ATOM     11  C   UNL     1      50.627   8.018  13.413  0.00  0.00    +0.000 C 
BRANCH  11  12
ATOM     12  C   UNL     1      51.241   8.647  12.170  0.00  0.00    +0.000 C 
ATOM     13  C   UNL     1      50.635   9.904  11.727  0.00  0.00    +0.000 C 
ATOM     14  C   UNL     1      51.057  10.524  10.612  0.00  0.00    +0.000 C 
ATOM     15  C   UNL     1      52.143   9.966   9.819  0.00  0.00    +0.000 C 
ATOM     16  C   UNL     1      52.546  10.563   8.675  0.00  0.00    +0.000 C 
ATOM     17  N   UNL     1      53.563  10.097   7.866  0.00  0.00    +0.000 NA
ATOM     18  C   UNL     1      54.148   9.012   8.286  0.00  0.00    +0.000 C 
ATOM     19  C   UNL     1      53.800   8.284   9.529  0.00  0.00    +0.000 C 
ATOM     20  N   UNL     1      52.759   8.782  10.287  0.00  0.00    +0.000 N 
ATOM     21  C   UNL     1      52.274   8.168  11.448  0.00  0.00    +0.000 C 
ENDBRANCH  11  12
ENDBRANCH   8  11
ENDBRANCH   7   8
ENDBRANCH   1   7
BRANCH   4  22
ATOM     22  C   UNL     1      43.972   3.747  12.723  0.00  0.00    +0.000 C 
BRANCH  22  23
ATOM     23  C   UNL     1      43.270   3.653  11.358  0.00  0.00    +0.000 C 
BRANCH  23  24
ATOM     24  N   UNL     1      43.794   2.559  10.532  0.00  0.00    +0.000 NA
ATOM     25  H   UNL     1      43.067   2.205   9.914  0.00  0.00    +0.000 HD
BRANCH  24  26
ATOM     26  C   UNL     1      44.995   2.935   9.770  0.00  0.00    +0.000 C 
ATOM     27  C   UNL     1      44.780   4.215   8.951  0.00  0.00    +0.000 C 
ATOM     28  C   UNL     1      45.998   4.511   8.087  0.00  0.00    +0.000 C 
ATOM     29  C   UNL     1      46.337   3.321   7.195  0.00  0.00    +0.000 C 
ATOM     30  N   UNL     1      46.587   2.117   7.994  0.00  0.00    +0.000 NA
ATOM     31  C   UNL     1      46.938   0.995   7.123  0.00  0.00    +0.000 C 
ATOM     32  C   UNL     1      45.419   1.772   8.830  0.00  0.00    +0.000 C 
ENDBRANCH  24  26
ENDBRANCH  23  24
ENDBRANCH  22  23
ENDBRANCH   4  22
TORSDOF 8
ENDMDL
MODEL 9
REMARK VINA RESULT:    -6.485      2.550      7.858
REMARK INTER + INTRA:         -10.701
REMARK INTER:                  -8.647
REMARK INTRA:                  -2.054
REMARK UNBOUND:                -1.183
REMARK  Name = 
REMARK  10 active torsions:
REMARK  status: ('A' for Active; 'I' for Inactive)
REMARK    1  A    between atoms: C_1  and  C_2
REMARK    2  A    between atoms: C_2  and  N_3
REMARK    3  A    between atoms: C_2  and  C_21
REMARK    4  A    between atoms: N_3  and  C_4
REMARK    5  A    between atoms: C_4  and  C_5
REMARK    6  A    between atoms: C_8  and  C_9
REMARK    7  A    between atoms: C_9  and  C_10
REMARK    8  A    between atoms: C_10  and  N_11
REMARK    9  A    between atoms: N_11  and  C_12
REMARK   10  A    between atoms: N_16  and  C_17
REMARK                            x       y       z     vdW  Elec       q    Type
REMARK                         _______ _______ _______ _____ _____    ______ ____
ROOT
ATOM      1  C   UNL     1      48.984   8.703  17.099  0.00  0.00    +0.000 A 
ATOM      2  C   UNL     1      50.129   8.019  16.681  0.00  0.00    +0.000 A 
ATOM      3  C   UNL     1      50.365   7.801  15.325  0.00  0.00    +0.000 A 
ATOM      4  C   UNL     1      49.447   8.235  14.360  0.00  0.00    +0.000 A 
ATOM      5  C   UNL     1      48.306   8.930  14.779  0.00  0.00    +0.000 A 
ATOM      6  C   UNL     1      48.076   9.159  16.135  0.00  0.00    +0.000 A 
ENDROOT
BRANCH   1   7
ATOM      7  C   UNL     1      48.692   8.897  18.563  0.00  0.00    +0.000 C 
BRANCH   7   8
ATOM      8  N   UNL     1      47.528   8.124  19.013  0.00  0.00    +0.000 NA
ATOM      9  H   UNL     1      46.990   8.712  19.650  0.00  0.00    +0.000 HD
BRANCH   8  11
ATOM     10  C   UNL     1      49.182   7.204  20.624  0.00  0.00    +0.000 C 
ATOM     11  C   UNL     1      47.946   6.924  19.756  0.00  0.00    +0.000 C 
BRANCH  11  12
ATOM     12  C   UNL     1      48.227   5.729  18.856  0.00  0.00    +0.000 C 
ATOM     13  C   UNL     1      47.109   5.281  18.023  0.00  0.00    +0.000 C 
ATOM     14  C   UNL     1      47.221   4.204  17.229  0.00  0.00    +0.000 C 
ATOM     15  C   UNL     1      48.470   3.457  17.164  0.00  0.00    +0.000 C 
ATOM     16  C   UNL     1      48.578   2.349  16.398  0.00  0.00    +0.000 C 
ATOM     17  N   UNL     1      49.722   1.585  16.284  0.00  0.00    +0.000 NA
ATOM     18  C   UNL     1      50.740   2.012  16.974  0.00  0.00    +0.000 C 
ATOM     19  C   UNL     1      50.740   3.219  17.834  0.00  0.00    +0.000 C 
ATOM     20  N   UNL     1      49.561   3.932  17.928  0.00  0.00    +0.000 N 
ATOM     21  C   UNL     1      49.389   5.053  18.750  0.00  0.00    +0.000 C 
ENDBRANCH  11  12
ENDBRANCH   8  11
ENDBRANCH   7   8
ENDBRANCH   1   7
BRANCH   4  22
ATOM     22  C   UNL     1      49.665   8.017  12.883  0.00  0.00    +0.000 C 
BRANCH  22  23
ATOM     23  C   UNL     1      48.777   6.962  12.204  0.00  0.00    +0.000 C 
BRANCH  23  24
ATOM     24  N   UNL     1      47.463   7.494  11.826  0.00  0.00    +0.000 NA
ATOM     25  H   UNL     1      47.447   7.723  10.834  0.00  0.00    +0.000 HD
BRANCH  24  26
ATOM     26  C   UNL     1      46.353   6.594  12.177  0.00  0.00    +0.000 C 
ATOM     27  C   UNL     1      46.762   5.564  13.238  0.00  0.00    +0.000 C 
ATOM     28  C   UNL     1      45.630   4.578  13.493  0.00  0.00    +0.000 C 
ATOM     29  C   UNL     1      45.187   3.907  12.197  0.00  0.00    +0.000 C 
ATOM     30  N   UNL     1      44.755   4.901  11.209  0.00  0.00    +0.000 NA
ATOM     31  C   UNL     1      44.308   4.237   9.984  0.00  0.00    +0.000 C 
ATOM     32  C   UNL     1      45.832   5.865  10.906  0.00  0.00    +0.000 C 
ENDBRANCH  24  26
ENDBRANCH  23  24
ENDBRANCH  22  23
ENDBRANCH   4  22
TORSDOF 8
ENDMDL
