MODEL 1
REMARK VINA RESULT:    -8.772      0.000      0.000
REMARK INTER + INTRA:         -13.401
REMARK INTER:                 -12.362
REMARK INTRA:                  -1.039
REMARK UNBOUND:                -1.039
REMARK  Name = 
REMARK  9 active torsions:
REMARK  status: ('A' for Active; 'I' for Inactive)
REMARK    1  A    between atoms: C_1  and  C_2
REMARK    2  A    between atoms: C_2  and  C_3
REMARK    3  A    between atoms: C_2  and  C_13
REMARK    4  A    between atoms: C_3  and  C_4
REMARK    5  A    between atoms: C_7  and  C_8
REMARK    6  A    between atoms: C_17  and  O_18
REMARK    7  A    between atoms: O_18  and  C_19
REMARK    8  A    between atoms: N_22  and  S_23
REMARK    9  A    between atoms: S_23  and  C_24
REMARK                            x       y       z     vdW  Elec       q    Type
REMARK                         _______ _______ _______ _____ _____    ______ ____
ROOT
ATOM      1  C   UNL     1      45.061   5.497  11.998  0.00  0.00    +0.000 A 
ATOM      2  C   UNL     1      46.074   6.393  11.625  0.00  0.00    +0.000 A 
ATOM      3  C   UNL     1      47.259   6.489  12.362  0.00  0.00    +0.000 A 
ATOM      4  C   UNL     1      47.431   5.731  13.514  0.00  0.00    +0.000 A 
ATOM      5  C   UNL     1      46.398   4.910  13.967  0.00  0.00    +0.000 A 
ATOM      6  C   UNL     1      45.231   4.791  13.207  0.00  0.00    +0.000 A 
ENDROOT
BRANCH   1   8
ATOM      7  C   UNL     1      42.499   5.709  11.782  0.00  0.00    +0.000 C 
ATOM      8  C   UNL     1      43.828   5.302  11.114  0.00  0.00    +0.000 C 
BRANCH   8   9
ATOM      9  C   UNL     1      43.688   3.895  10.453  0.00  0.00    +0.000 C 
BRANCH   9  10
ATOM     10  C   UNL     1      44.695   3.404   9.434  0.00  0.00    +0.000 A 
ATOM     11  C   UNL     1      45.132   2.084   9.315  0.00  0.00    +0.000 A 
ATOM     12  C   UNL     1      46.043   1.732   8.317  0.00  0.00    +0.000 A 
ATOM     13  C   UNL     1      46.488   2.719   7.457  0.00  0.00    +0.000 A 
ATOM     14  N   UNL     1      46.115   4.026   7.542  0.00  0.00    +0.000 NA
ATOM     15  C   UNL     1      45.235   4.325   8.528  0.00  0.00    +0.000 A 
BRANCH  13  16
ATOM     16  C   UNL     1      47.413   2.352   6.333  0.00  0.00    +0.000 C 
ATOM     17  N   UNL     1      47.329   3.133   5.216  0.00  0.00    +0.000 N 
ATOM     18  O   UNL     1      48.185   1.403   6.398  0.00  0.00    +0.000 OA
ATOM     19  H   UNL     1      46.656   3.892   5.183  0.00  0.00    +0.000 HD
ATOM     20  H   UNL     1      47.890   2.910   4.408  0.00  0.00    +0.000 HD
ENDBRANCH  13  16
ENDBRANCH   9  10
ENDBRANCH   8   9
ENDBRANCH   1   8
BRANCH   5  21
ATOM     21  O   UNL     1      46.468   4.146  15.105  0.00  0.00    +0.000 OA
BRANCH  21  22
ATOM     22  C   UNL     1      47.726   4.208  15.794  0.00  0.00    +0.000 C 
ATOM     23  C   UNL     1      48.108   2.841  16.345  0.00  0.00    +0.000 C 
ATOM     24  C   UNL     1      47.688   2.856  17.805  0.00  0.00    +0.000 C 
ATOM     25  N   UNL     1      47.780   4.270  18.232  0.00  0.00    +0.000 NA
ATOM     26  C   UNL     1      47.599   5.121  17.021  0.00  0.00    +0.000 C 
BRANCH  25  27
ATOM     27  S   UNL     1      49.049   4.704  19.267  0.00  0.00    +0.000 S 
ATOM     28  C   UNL     1      49.033   6.477  19.115  0.00  0.00    +0.000 C 
ATOM     29  O   UNL     1      48.670   4.336  20.614  0.00  0.00    +0.000 OA
ATOM     30  O   UNL     1      50.288   4.238  18.684  0.00  0.00    +0.000 OA
ENDBRANCH  25  27
ENDBRANCH  21  22
ENDBRANCH   5  21
TORSDOF 7
ENDMDL
MODEL 2
REMARK VINA RESULT:    -7.972      4.049      5.355
REMARK INTER + INTRA:         -12.273
REMARK INTER:                 -11.085
REMARK INTRA:                  -1.188
REMARK UNBOUND:                -1.039
REMARK  Name = 
REMARK  9 active torsions:
REMARK  status: ('A' for Active; 'I' for Inactive)
REMARK    1  A    between atoms: C_1  and  C_2
REMARK    2  A    between atoms: C_2  and  C_3
REMARK    3  A    between atoms: C_2  and  C_13
REMARK    4  A    between atoms: C_3  and  C_4
REMARK    5  A    between atoms: C_7  and  C_8
REMARK    6  A    between atoms: C_17  and  O_18
REMARK    7  A    between atoms: O_18  and  C_19
REMARK    8  A    between atoms: N_22  and  S_23
REMARK    9  A    between atoms: S_23  and  C_24
REMARK                            x       y       z     vdW  Elec       q    Type
REMARK                         _______ _______ _______ _____ _____    ______ ____
ROOT
ATOM      1  C   UNL     1      45.028   5.279  12.054  0.00  0.00    +0.000 A 
ATOM      2  C   UNL     1      45.508   4.143  12.723  0.00  0.00    +0.000 A 
ATOM      3  C   UNL     1      46.553   4.237  13.648  0.00  0.00    +0.000 A 
ATOM      4  C   UNL     1      47.172   5.460  13.882  0.00  0.00    +0.000 A 
ATOM      5  C   UNL     1      46.786   6.586  13.154  0.00  0.00    +0.000 A 
ATOM      6  C   UNL     1      45.717   6.492  12.258  0.00  0.00    +0.000 A 
ENDROOT
BRANCH   1   8
ATOM      7  C   UNL     1      42.473   5.559  11.836  0.00  0.00    +0.000 C 
ATOM      8  C   UNL     1      43.800   5.188  11.146  0.00  0.00    +0.000 C 
BRANCH   8   9
ATOM      9  C   UNL     1      43.641   3.849  10.359  0.00  0.00    +0.000 C 
BRANCH   9  10
ATOM     10  C   UNL     1      44.696   3.388   9.376  0.00  0.00    +0.000 A 
ATOM     11  C   UNL     1      45.107   2.065   9.208  0.00  0.00    +0.000 A 
ATOM     12  C   UNL     1      46.068   1.744   8.247  0.00  0.00    +0.000 A 
ATOM     13  C   UNL     1      46.589   2.764   7.473  0.00  0.00    +0.000 A 
ATOM     14  N   UNL     1      46.244   4.075   7.610  0.00  0.00    +0.000 NA
ATOM     15  C   UNL     1      45.312   4.342   8.557  0.00  0.00    +0.000 A 
BRANCH  13  16
ATOM     16  C   UNL     1      47.572   2.434   6.388  0.00  0.00    +0.000 C 
ATOM     17  N   UNL     1      47.369   3.064   5.192  0.00  0.00    +0.000 N 
ATOM     18  O   UNL     1      48.490   1.639   6.548  0.00  0.00    +0.000 OA
ATOM     19  H   UNL     1      46.580   3.693   5.083  0.00  0.00    +0.000 HD
ATOM     20  H   UNL     1      47.967   2.849   4.408  0.00  0.00    +0.000 HD
ENDBRANCH  13  16
ENDBRANCH   9  10
ENDBRANCH   8   9
ENDBRANCH   1   8
BRANCH   5  21
ATOM     21  O   UNL     1      47.355   7.826  13.300  0.00  0.00    +0.000 OA
BRANCH  21  22
ATOM     22  C   UNL     1      47.742   8.458  12.070  0.00  0.00    +0.000 C 
ATOM     23  C   UNL     1      48.967   7.778  11.476  0.00  0.00    +0.000 C 
ATOM     24  C   UNL     1      50.153   8.630  11.896  0.00  0.00    +0.000 C 
ATOM     25  N   UNL     1      49.626  10.006  12.033  0.00  0.00    +0.000 NA
ATOM     26  C   UNL     1      48.171   9.905  12.344  0.00  0.00    +0.000 C 
BRANCH  25  27
ATOM     27  S   UNL     1      50.060  11.140  10.852  0.00  0.00    +0.000 S 
ATOM     28  C   UNL     1      50.384  12.578  11.850  0.00  0.00    +0.000 C 
ATOM     29  O   UNL     1      51.294  10.696  10.240  0.00  0.00    +0.000 OA
ATOM     30  O   UNL     1      48.890  11.432  10.053  0.00  0.00    +0.000 OA
ENDBRANCH  25  27
ENDBRANCH  21  22
ENDBRANCH   5  21
TORSDOF 7
ENDMDL
MODEL 3
REMARK VINA RESULT:    -7.610      3.856      4.799
REMARK INTER + INTRA:         -11.762
REMARK INTER:                 -10.526
REMARK INTRA:                  -1.237
REMARK UNBOUND:                -1.039
REMARK  Name = 
REMARK  9 active torsions:
REMARK  status: ('A' for Active; 'I' for Inactive)
REMARK    1  A    between atoms: C_1  and  C_2
REMARK    2  A    between atoms: C_2  and  C_3
REMARK    3  A    between atoms: C_2  and  C_13
REMARK    4  A    between atoms: C_3  and  C_4
REMARK    5  A    between atoms: C_7  and  C_8
REMARK    6  A    between atoms: C_17  and  O_18
REMARK    7  A    between atoms: O_18  and  C_19
REMARK    8  A    between atoms: N_22  and  S_23
REMARK    9  A    between atoms: S_23  and  C_24
REMARK                            x       y       z     vdW  Elec       q    Type
REMARK                         _______ _______ _______ _____ _____    ______ ____
ROOT
ATOM      1  C   UNL     1      44.705   5.641  12.094  0.00  0.00    +0.000 A 
ATOM      2  C   UNL     1      43.894   6.577  11.434  0.00  0.00    +0.000 A 
ATOM      3  C   UNL     1      44.246   7.930  11.387  0.00  0.00    +0.000 A 
ATOM      4  C   UNL     1      45.386   8.380  12.043  0.00  0.00    +0.000 A 
ATOM      5  C   UNL     1      46.153   7.490  12.795  0.00  0.00    +0.000 A 
ATOM      6  C   UNL     1      45.817   6.134  12.808  0.00  0.00    +0.000 A 
ENDROOT
BRANCH   1   8
ATOM      7  C   UNL     1      45.515   3.232  12.537  0.00  0.00    +0.000 C 
ATOM      8  C   UNL     1      44.383   4.147  12.027  0.00  0.00    +0.000 C 
BRANCH   8   9
ATOM      9  C   UNL     1      43.854   3.632  10.652  0.00  0.00    +0.000 C 
BRANCH   9  10
ATOM     10  C   UNL     1      44.804   3.314   9.516  0.00  0.00    +0.000 A 
ATOM     11  C   UNL     1      45.212   2.031   9.153  0.00  0.00    +0.000 A 
ATOM     12  C   UNL     1      46.069   1.847   8.065  0.00  0.00    +0.000 A 
ATOM     13  C   UNL     1      46.489   2.963   7.365  0.00  0.00    +0.000 A 
ATOM     14  N   UNL     1      46.143   4.239   7.689  0.00  0.00    +0.000 NA
ATOM     15  C   UNL     1      45.315   4.372   8.754  0.00  0.00    +0.000 A 
BRANCH  13  16
ATOM     16  C   UNL     1      47.354   2.785   6.151  0.00  0.00    +0.000 C 
ATOM     17  N   UNL     1      48.656   2.450   6.394  0.00  0.00    +0.000 N 
ATOM     18  O   UNL     1      46.933   2.944   5.012  0.00  0.00    +0.000 OA
ATOM     19  H   UNL     1      48.980   2.356   7.351  0.00  0.00    +0.000 HD
ATOM     20  H   UNL     1      49.301   2.362   5.623  0.00  0.00    +0.000 HD
ENDBRANCH  13  16
ENDBRANCH   9  10
ENDBRANCH   8   9
ENDBRANCH   1   8
BRANCH   5  21
ATOM     21  O   UNL     1      47.278   7.848  13.494  0.00  0.00    +0.000 OA
BRANCH  21  22
ATOM     22  C   UNL     1      48.501   7.282  12.998  0.00  0.00    +0.000 C 
ATOM     23  C   UNL     1      49.579   7.300  14.072  0.00  0.00    +0.000 C 
ATOM     24  C   UNL     1      50.425   8.529  13.782  0.00  0.00    +0.000 C 
ATOM     25  N   UNL     1      50.336   8.738  12.320  0.00  0.00    +0.000 NA
ATOM     26  C   UNL     1      49.047   8.148  11.856  0.00  0.00    +0.000 C 
BRANCH  25  27
ATOM     27  S   UNL     1      51.702   8.380  11.384  0.00  0.00    +0.000 S 
ATOM     28  C   UNL     1      51.845   9.853  10.396  0.00  0.00    +0.000 C 
ATOM     29  O   UNL     1      52.839   8.289  12.274  0.00  0.00    +0.000 OA
ATOM     30  O   UNL     1      51.364   7.297  10.486  0.00  0.00    +0.000 OA
ENDBRANCH  25  27
ENDBRANCH  21  22
ENDBRANCH   5  21
TORSDOF 7
ENDMDL
MODEL 4
REMARK VINA RESULT:    -6.949      3.899      8.179
REMARK INTER + INTRA:         -10.832
REMARK INTER:                  -9.553
REMARK INTRA:                  -1.280
REMARK UNBOUND:                -1.039
REMARK  Name = 
REMARK  9 active torsions:
REMARK  status: ('A' for Active; 'I' for Inactive)
REMARK    1  A    between atoms: C_1  and  C_2
REMARK    2  A    between atoms: C_2  and  C_3
REMARK    3  A    between atoms: C_2  and  C_13
REMARK    4  A    between atoms: C_3  and  C_4
REMARK    5  A    between atoms: C_7  and  C_8
REMARK    6  A    between atoms: C_17  and  O_18
REMARK    7  A    between atoms: O_18  and  C_19
REMARK    8  A    between atoms: N_22  and  S_23
REMARK    9  A    between atoms: S_23  and  C_24
REMARK                            x       y       z     vdW  Elec       q    Type
REMARK                         _______ _______ _______ _____ _____    ______ ____
ROOT
ATOM      1  C   UNL     1      48.872   8.245  14.985  0.00  0.00    +0.000 A 
ATOM      2  C   UNL     1      50.209   8.402  14.590  0.00  0.00    +0.000 A 
ATOM      3  C   UNL     1      50.624   8.065  13.298  0.00  0.00    +0.000 A 
ATOM      4  C   UNL     1      49.722   7.515  12.394  0.00  0.00    +0.000 A 
ATOM      5  C   UNL     1      48.412   7.250  12.792  0.00  0.00    +0.000 A 
ATOM      6  C   UNL     1      47.994   7.623  14.073  0.00  0.00    +0.000 A 
ENDROOT
BRANCH   1   8
ATOM      7  C   UNL     1      48.681  10.231  16.620  0.00  0.00    +0.000 C 
ATOM      8  C   UNL     1      48.399   8.740  16.354  0.00  0.00    +0.000 C 
BRANCH   8   9
ATOM      9  C   UNL     1      48.855   7.880  17.574  0.00  0.00    +0.000 C 
BRANCH   9  10
ATOM     10  C   UNL     1      49.034   6.381  17.454  0.00  0.00    +0.000 A 
ATOM     11  C   UNL     1      47.992   5.456  17.380  0.00  0.00    +0.000 A 
ATOM     12  C   UNL     1      48.269   4.094  17.238  0.00  0.00    +0.000 A 
ATOM     13  C   UNL     1      49.592   3.698  17.170  0.00  0.00    +0.000 A 
ATOM     14  N   UNL     1      50.648   4.553  17.262  0.00  0.00    +0.000 NA
ATOM     15  C   UNL     1      50.334   5.864  17.403  0.00  0.00    +0.000 A 
BRANCH  13  16
ATOM     16  C   UNL     1      49.913   2.248  16.948  0.00  0.00    +0.000 C 
ATOM     17  N   UNL     1      50.827   1.705  17.807  0.00  0.00    +0.000 N 
ATOM     18  O   UNL     1      49.406   1.591  16.048  0.00  0.00    +0.000 OA
ATOM     19  H   UNL     1      51.251   2.287  18.522  0.00  0.00    +0.000 HD
ATOM     20  H   UNL     1      51.121   0.748  17.682  0.00  0.00    +0.000 HD
ENDBRANCH  13  16
ENDBRANCH   9  10
ENDBRANCH   8   9
ENDBRANCH   1   8
BRANCH   5  21
ATOM     21  O   UNL     1      47.462   6.688  11.978  0.00  0.00    +0.000 OA
BRANCH  21  22
ATOM     22  C   UNL     1      46.273   6.251  12.654  0.00  0.00    +0.000 C 
ATOM     23  C   UNL     1      46.545   4.990  13.462  0.00  0.00    +0.000 C 
ATOM     24  C   UNL     1      46.071   3.837  12.593  0.00  0.00    +0.000 C 
ATOM     25  N   UNL     1      44.976   4.388  11.762  0.00  0.00    +0.000 NA
ATOM     26  C   UNL     1      45.207   5.855  11.624  0.00  0.00    +0.000 C 
BRANCH  25  27
ATOM     27  S   UNL     1      43.391   3.912  12.125  0.00  0.00    +0.000 S 
ATOM     28  C   UNL     1      42.496   5.420  11.823  0.00  0.00    +0.000 C 
ATOM     29  O   UNL     1      42.992   2.917  11.153  0.00  0.00    +0.000 OA
ATOM     30  O   UNL     1      43.312   3.647  13.545  0.00  0.00    +0.000 OA
ENDBRANCH  25  27
ENDBRANCH  21  22
ENDBRANCH   5  21
TORSDOF 7
ENDMDL
MODEL 5
REMARK VINA RESULT:    -6.793      2.893      3.466
REMARK INTER + INTRA:         -10.612
REMARK INTER:                  -9.436
REMARK INTRA:                  -1.176
REMARK UNBOUND:                -1.039
REMARK  Name = 
REMARK  9 active torsions:
REMARK  status: ('A' for Active; 'I' for Inactive)
REMARK    1  A    between atoms: C_1  and  C_2
REMARK    2  A    between atoms: C_2  and  C_3
REMARK    3  A    between atoms: C_2  and  C_13
REMARK    4  A    between atoms: C_3  and  C_4
REMARK    5  A    between atoms: C_7  and  C_8
REMARK    6  A    between atoms: C_17  and  O_18
REMARK    7  A    between atoms: O_18  and  C_19
REMARK    8  A    between atoms: N_22  and  S_23
REMARK    9  A    between atoms: S_23  and  C_24
REMARK                            x       y       z     vdW  Elec       q    Type
REMARK                         _______ _______ _______ _____ _____    ______ ____
ROOT
ATOM      1  C   UNL     1      45.896   5.793  12.156  0.00  0.00    +0.000 A 
ATOM      2  C   UNL     1      45.600   4.649  12.913  0.00  0.00    +0.000 A 
ATOM      3  C   UNL     1      46.333   4.333  14.061  0.00  0.00    +0.000 A 
ATOM      4  C   UNL     1      47.409   5.126  14.445  0.00  0.00    +0.000 A 
ATOM      5  C   UNL     1      47.792   6.208  13.654  0.00  0.00    +0.000 A 
ATOM      6  C   UNL     1      47.033   6.540  12.527  0.00  0.00    +0.000 A 
ENDROOT
BRANCH   1   8
ATOM      7  C   UNL     1      44.021   7.343  11.299  0.00  0.00    +0.000 C 
ATOM      8  C   UNL     1      45.007   6.203  10.980  0.00  0.00    +0.000 C 
BRANCH   8   9
ATOM      9  C   UNL     1      44.263   5.035  10.259  0.00  0.00    +0.000 C 
BRANCH   9  10
ATOM     10  C   UNL     1      45.010   4.055   9.379  0.00  0.00    +0.000 A 
ATOM     11  C   UNL     1      45.847   4.411   8.321  0.00  0.00    +0.000 A 
ATOM     12  C   UNL     1      46.515   3.425   7.591  0.00  0.00    +0.000 A 
ATOM     13  C   UNL     1      46.326   2.103   7.949  0.00  0.00    +0.000 A 
ATOM     14  N   UNL     1      45.503   1.697   8.955  0.00  0.00    +0.000 NA
ATOM     15  C   UNL     1      44.872   2.686   9.634  0.00  0.00    +0.000 A 
BRANCH  13  16
ATOM     16  C   UNL     1      47.087   1.030   7.224  0.00  0.00    +0.000 C 
ATOM     17  N   UNL     1      46.770  -0.255   7.563  0.00  0.00    +0.000 N 
ATOM     18  O   UNL     1      47.950   1.281   6.392  0.00  0.00    +0.000 OA
ATOM     19  H   UNL     1      46.071  -0.427   8.280  0.00  0.00    +0.000 HD
ATOM     20  H   UNL     1      47.278  -1.020   7.146  0.00  0.00    +0.000 HD
ENDBRANCH  13  16
ENDBRANCH   9  10
ENDBRANCH   8   9
ENDBRANCH   1   8
BRANCH   5  21
ATOM     21  O   UNL     1      48.854   7.030  13.939  0.00  0.00    +0.000 OA
BRANCH  21  22
ATOM     22  C   UNL     1      49.124   7.198  15.339  0.00  0.00    +0.000 C 
ATOM     23  C   UNL     1      48.654   8.564  15.820  0.00  0.00    +0.000 C 
ATOM     24  C   UNL     1      49.890   9.446  15.818  0.00  0.00    +0.000 C 
ATOM     25  N   UNL     1      51.031   8.535  16.063  0.00  0.00    +0.000 NA
ATOM     26  C   UNL     1      50.639   7.180  15.581  0.00  0.00    +0.000 C 
BRANCH  25  27
ATOM     27  S   UNL     1      51.783   8.599  17.580  0.00  0.00    +0.000 S 
ATOM     28  C   UNL     1      51.203  10.167  18.192  0.00  0.00    +0.000 C 
ATOM     29  O   UNL     1      51.235   7.536  18.394  0.00  0.00    +0.000 OA
ATOM     30  O   UNL     1      53.209   8.726  17.372  0.00  0.00    +0.000 OA
ENDBRANCH  25  27
ENDBRANCH  21  22
ENDBRANCH   5  21
TORSDOF 7
ENDMDL
MODEL 6
REMARK VINA RESULT:    -6.519      3.060      4.687
REMARK INTER + INTRA:         -10.226
REMARK INTER:                  -9.136
REMARK INTRA:                  -1.090
REMARK UNBOUND:                -1.039
REMARK  Name = 
REMARK  9 active torsions:
REMARK  status: ('A' for Active; 'I' for Inactive)
REMARK    1  A    between atoms: C_1  and  C_2
REMARK    2  A    between atoms: C_2  and  C_3
REMARK    3  A    between atoms: C_2  and  C_13
REMARK    4  A    between atoms: C_3  and  C_4
REMARK    5  A    between atoms: C_7  and  C_8
REMARK    6  A    between atoms: C_17  and  O_18
REMARK    7  A    between atoms: O_18  and  C_19
REMARK    8  A    between atoms: N_22  and  S_23
REMARK    9  A    between atoms: S_23  and  C_24
REMARK                            x       y       z     vdW  Elec       q    Type
REMARK                         _______ _______ _______ _____ _____    ______ ____
ROOT
ATOM      1  C   UNL     1      47.895   9.282  12.255  0.00  0.00    +0.000 A 
ATOM      2  C   UNL     1      48.891   9.796  11.410  0.00  0.00    +0.000 A 
ATOM      3  C   UNL     1      50.247   9.639  11.713  0.00  0.00    +0.000 A 
ATOM      4  C   UNL     1      50.633   9.012  12.893  0.00  0.00    +0.000 A 
ATOM      5  C   UNL     1      49.665   8.586  13.802  0.00  0.00    +0.000 A 
ATOM      6  C   UNL     1      48.311   8.713  13.476  0.00  0.00    +0.000 A 
ENDROOT
BRANCH   1   8
ATOM      7  C   UNL     1      45.833  10.765  11.807  0.00  0.00    +0.000 C 
ATOM      8  C   UNL     1      46.421   9.341  11.850  0.00  0.00    +0.000 C 
BRANCH   8   9
ATOM      9  C   UNL     1      45.468   8.389  12.638  0.00  0.00    +0.000 C 
BRANCH   9  10
ATOM     10  C   UNL     1      45.113   7.017  12.105  0.00  0.00    +0.000 A 
ATOM     11  C   UNL     1      45.455   6.540  10.839  0.00  0.00    +0.000 A 
ATOM     12  C   UNL     1      45.104   5.243  10.458  0.00  0.00    +0.000 A 
ATOM     13  C   UNL     1      44.421   4.455  11.366  0.00  0.00    +0.000 A 
ATOM     14  N   UNL     1      44.040   4.876  12.604  0.00  0.00    +0.000 NA
ATOM     15  C   UNL     1      44.397   6.142  12.930  0.00  0.00    +0.000 A 
BRANCH  13  16
ATOM     16  C   UNL     1      44.095   3.034  11.005  0.00  0.00    +0.000 C 
ATOM     17  N   UNL     1      44.975   2.420  10.159  0.00  0.00    +0.000 N 
ATOM     18  O   UNL     1      43.097   2.461  11.423  0.00  0.00    +0.000 OA
ATOM     19  H   UNL     1      45.775   2.935   9.807  0.00  0.00    +0.000 HD
ATOM     20  H   UNL     1      44.787   1.481   9.841  0.00  0.00    +0.000 HD
ENDBRANCH  13  16
ENDBRANCH   9  10
ENDBRANCH   8   9
ENDBRANCH   1   8
BRANCH   5  21
ATOM     21  O   UNL     1      49.952   7.981  15.000  0.00  0.00    +0.000 OA
BRANCH  21  22
ATOM     22  C   UNL     1      48.810   7.462  15.700  0.00  0.00    +0.000 C 
ATOM     23  C   UNL     1      49.096   7.351  17.191  0.00  0.00    +0.000 C 
ATOM     24  C   UNL     1      49.479   5.899  17.427  0.00  0.00    +0.000 C 
ATOM     25  N   UNL     1      48.760   5.124  16.392  0.00  0.00    +0.000 NA
ATOM     26  C   UNL     1      48.521   6.030  15.232  0.00  0.00    +0.000 C 
BRANCH  25  27
ATOM     27  S   UNL     1      47.444   4.178  16.884  0.00  0.00    +0.000 S 
ATOM     28  C   UNL     1      48.265   2.700  17.442  0.00  0.00    +0.000 C 
ATOM     29  O   UNL     1      46.822   4.834  18.013  0.00  0.00    +0.000 OA
ATOM     30  O   UNL     1      46.678   3.821  15.709  0.00  0.00    +0.000 OA
ENDBRANCH  25  27
ENDBRANCH  21  22
ENDBRANCH   5  21
TORSDOF 7
ENDMDL
MODEL 7
REMARK VINA RESULT:    -6.441      3.583      8.217
REMARK INTER + INTRA:         -10.115
REMARK INTER:                  -9.167
REMARK INTRA:                  -0.949
REMARK UNBOUND:                -1.039
REMARK  Name = 
REMARK  9 active torsions:
REMARK  status: ('A' for Active; 'I' for Inactive)
REMARK    1  A    between atoms: C_1  and  C_2
REMARK    2  A    between atoms: C_2  and  C_3
REMARK    3  A    between atoms: C_2  and  C_13
REMARK    4  A    between atoms: C_3  and  C_4
REMARK    5  A    between atoms: C_7  and  C_8
REMARK    6  A    between atoms: C_17  and  O_18
REMARK    7  A    between atoms: O_18  and  C_19
REMARK    8  A    between atoms: N_22  and  S_23
REMARK    9  A    between atoms: S_23  and  C_24
REMARK                            x       y       z     vdW  Elec       q    Type
REMARK                         _______ _______ _______ _____ _____    ______ ____
ROOT
ATOM      1  C   UNL     1      47.859   9.653  13.038  0.00  0.00    +0.000 A 
ATOM      2  C   UNL     1      47.753  10.926  12.458  0.00  0.00    +0.000 A 
ATOM      3  C   UNL     1      46.607  11.304  11.751  0.00  0.00    +0.000 A 
ATOM      4  C   UNL     1      45.568  10.398  11.566  0.00  0.00    +0.000 A 
ATOM      5  C   UNL     1      45.691   9.093  12.041  0.00  0.00    +0.000 A 
ATOM      6  C   UNL     1      46.823   8.732  12.778  0.00  0.00    +0.000 A 
ENDROOT
BRANCH   1   8
ATOM      7  C   UNL     1      50.272  10.227  13.747  0.00  0.00    +0.000 C 
ATOM      8  C   UNL     1      49.056   9.295  13.921  0.00  0.00    +0.000 C 
BRANCH   8   9
ATOM      9  C   UNL     1      49.510   7.803  13.867  0.00  0.00    +0.000 C 
BRANCH   9  10
ATOM     10  C   UNL     1      49.031   6.800  14.895  0.00  0.00    +0.000 A 
ATOM     11  C   UNL     1      49.445   6.764  16.227  0.00  0.00    +0.000 A 
ATOM     12  C   UNL     1      48.914   5.813  17.103  0.00  0.00    +0.000 A 
ATOM     13  C   UNL     1      47.975   4.924  16.614  0.00  0.00    +0.000 A 
ATOM     14  N   UNL     1      47.554   4.897  15.320  0.00  0.00    +0.000 NA
ATOM     15  C   UNL     1      48.097   5.833  14.504  0.00  0.00    +0.000 A 
BRANCH  13  16
ATOM     16  C   UNL     1      47.340   3.938  17.552  0.00  0.00    +0.000 C 
ATOM     17  N   UNL     1      47.741   4.018  18.857  0.00  0.00    +0.000 N 
ATOM     18  O   UNL     1      46.527   3.102  17.179  0.00  0.00    +0.000 OA
ATOM     19  H   UNL     1      48.440   4.703  19.126  0.00  0.00    +0.000 HD
ATOM     20  H   UNL     1      47.387   3.353  19.528  0.00  0.00    +0.000 HD
ENDBRANCH  13  16
ENDBRANCH   9  10
ENDBRANCH   8   9
ENDBRANCH   1   8
BRANCH   5  21
ATOM     21  O   UNL     1      44.730   8.126  11.883  0.00  0.00    +0.000 OA
BRANCH  21  22
ATOM     22  C   UNL     1      45.185   6.783  12.112  0.00  0.00    +0.000 C 
ATOM     23  C   UNL     1      46.186   6.364  11.044  0.00  0.00    +0.000 C 
ATOM     24  C   UNL     1      45.389   5.564  10.028  0.00  0.00    +0.000 C 
ATOM     25  N   UNL     1      44.280   4.945  10.788  0.00  0.00    +0.000 NA
ATOM     26  C   UNL     1      44.009   5.807  11.974  0.00  0.00    +0.000 C 
BRANCH  25  27
ATOM     27  S   UNL     1      44.351   3.278  11.077  0.00  0.00    +0.000 S 
ATOM     28  C   UNL     1      45.398   3.217  12.515  0.00  0.00    +0.000 C 
ATOM     29  O   UNL     1      43.022   2.831  11.433  0.00  0.00    +0.000 OA
ATOM     30  O   UNL     1      45.084   2.661   9.992  0.00  0.00    +0.000 OA
ENDBRANCH  25  27
ENDBRANCH  21  22
ENDBRANCH   5  21
TORSDOF 7
ENDMDL
MODEL 8
REMARK VINA RESULT:    -6.354      2.538      3.663
REMARK INTER + INTRA:          -9.992
REMARK INTER:                  -9.021
REMARK INTRA:                  -0.972
REMARK UNBOUND:                -1.039
REMARK  Name = 
REMARK  9 active torsions:
REMARK  status: ('A' for Active; 'I' for Inactive)
REMARK    1  A    between atoms: C_1  and  C_2
REMARK    2  A    between atoms: C_2  and  C_3
REMARK    3  A    between atoms: C_2  and  C_13
REMARK    4  A    between atoms: C_3  and  C_4
REMARK    5  A    between atoms: C_7  and  C_8
REMARK    6  A    between atoms: C_17  and  O_18
REMARK    7  A    between atoms: O_18  and  C_19
REMARK    8  A    between atoms: N_22  and  S_23
REMARK    9  A    between atoms: S_23  and  C_24
REMARK                            x       y       z     vdW  Elec       q    Type
REMARK                         _______ _______ _______ _____ _____    ______ ____
ROOT
ATOM      1  C   UNL     1      47.316   8.730  12.460  0.00  0.00    +0.000 A 
ATOM      2  C   UNL     1      48.128   9.794  12.041  0.00  0.00    +0.000 A 
ATOM      3  C   UNL     1      49.488   9.836  12.366  0.00  0.00    +0.000 A 
ATOM      4  C   UNL     1      50.049   8.842  13.160  0.00  0.00    +0.000 A 
ATOM      5  C   UNL     1      49.243   7.829  13.679  0.00  0.00    +0.000 A 
ATOM      6  C   UNL     1      47.893   7.773  13.321  0.00  0.00    +0.000 A 
ENDROOT
BRANCH   1   8
ATOM      7  C   UNL     1      45.038   9.910  12.190  0.00  0.00    +0.000 C 
ATOM      8  C   UNL     1      45.864   8.624  11.990  0.00  0.00    +0.000 C 
BRANCH   8   9
ATOM      9  C   UNL     1      45.072   7.388  12.523  0.00  0.00    +0.000 C 
BRANCH   9  10
ATOM     10  C   UNL     1      44.902   6.143  11.679  0.00  0.00    +0.000 A 
ATOM     11  C   UNL     1      44.026   5.096  11.969  0.00  0.00    +0.000 A 
ATOM     12  C   UNL     1      43.924   4.005  11.103  0.00  0.00    +0.000 A 
ATOM     13  C   UNL     1      44.705   3.998   9.962  0.00  0.00    +0.000 A 
ATOM     14  N   UNL     1      45.593   4.978   9.642  0.00  0.00    +0.000 NA
ATOM     15  C   UNL     1      45.664   6.016  10.512  0.00  0.00    +0.000 A 
BRANCH  13  16
ATOM     16  C   UNL     1      44.562   2.869   8.982  0.00  0.00    +0.000 C 
ATOM     17  N   UNL     1      44.568   3.224   7.662  0.00  0.00    +0.000 N 
ATOM     18  O   UNL     1      44.430   1.703   9.333  0.00  0.00    +0.000 OA
ATOM     19  H   UNL     1      44.648   4.204   7.407  0.00  0.00    +0.000 HD
ATOM     20  H   UNL     1      44.429   2.518   6.955  0.00  0.00    +0.000 HD
ENDBRANCH  13  16
ENDBRANCH   9  10
ENDBRANCH   8   9
ENDBRANCH   1   8
BRANCH   5  21
ATOM     21  O   UNL     1      49.703   6.822  14.490  0.00  0.00    +0.000 OA
BRANCH  21  22
ATOM     22  C   UNL     1      49.002   6.685  15.735  0.00  0.00    +0.000 C 
ATOM     23  C   UNL     1      49.970   6.377  16.869  0.00  0.00    +0.000 C 
ATOM     24  C   UNL     1      49.913   4.870  17.057  0.00  0.00    +0.000 C 
ATOM     25  N   UNL     1      48.550   4.468  16.645  0.00  0.00    +0.000 NA
ATOM     26  C   UNL     1      48.056   5.480  15.667  0.00  0.00    +0.000 C 
BRANCH  25  27
ATOM     27  S   UNL     1      47.460   4.007  17.857  0.00  0.00    +0.000 S 
ATOM     28  C   UNL     1      48.572   3.491  19.148  0.00  0.00    +0.000 C 
ATOM     29  O   UNL     1      46.746   5.189  18.287  0.00  0.00    +0.000 OA
ATOM     30  O   UNL     1      46.755   2.826  17.407  0.00  0.00    +0.000 OA
ENDBRANCH  25  27
ENDBRANCH  21  22
ENDBRANCH   5  21
TORSDOF 7
ENDMDL
MODEL 9
REMARK VINA RESULT:    -6.166      3.750      8.159
REMARK INTER + INTRA:          -9.728
REMARK INTER:                  -7.967
REMARK INTRA:                  -1.761
REMARK UNBOUND:                -1.039
REMARK  Name = 
REMARK  9 active torsions:
REMARK  status: ('A' for Active; 'I' for Inactive)
REMARK    1  A    between atoms: C_1  and  C_2
REMARK    2  A    between atoms: C_2  and  C_3
REMARK    3  A    between atoms: C_2  and  C_13
REMARK    4  A    between atoms: C_3  and  C_4
REMARK    5  A    between atoms: C_7  and  C_8
REMARK    6  A    between atoms: C_17  and  O_18
REMARK    7  A    between atoms: O_18  and  C_19
REMARK    8  A    between atoms: N_22  and  S_23
REMARK    9  A    between atoms: S_23  and  C_24
REMARK                            x       y       z     vdW  Elec       q    Type
REMARK                         _______ _______ _______ _____ _____    ______ ____
ROOT
ATOM      1  C   UNL     1      48.901   4.796  17.777  0.00  0.00    +0.000 A 
ATOM      2  C   UNL     1      49.550   3.553  17.730  0.00  0.00    +0.000 A 
ATOM      3  C   UNL     1      49.159   2.569  16.816  0.00  0.00    +0.000 A 
ATOM      4  C   UNL     1      48.077   2.789  15.971  0.00  0.00    +0.000 A 
ATOM      5  C   UNL     1      47.347   3.974  16.069  0.00  0.00    +0.000 A 
ATOM      6  C   UNL     1      47.766   4.968  16.959  0.00  0.00    +0.000 A 
ENDROOT
BRANCH   1   8
ATOM      7  C   UNL     1      48.349   6.527  19.609  0.00  0.00    +0.000 C 
ATOM      8  C   UNL     1      49.420   5.913  18.685  0.00  0.00    +0.000 C 
BRANCH   8   9
ATOM      9  C   UNL     1      50.225   7.043  17.970  0.00  0.00    +0.000 C 
BRANCH   9  10
ATOM     10  C   UNL     1      49.806   7.564  16.611  0.00  0.00    +0.000 A 
ATOM     11  C   UNL     1      50.371   7.169  15.398  0.00  0.00    +0.000 A 
ATOM     12  C   UNL     1      49.888   7.689  14.195  0.00  0.00    +0.000 A 
ATOM     13  C   UNL     1      48.841   8.592  14.244  0.00  0.00    +0.000 A 
ATOM     14  N   UNL     1      48.269   9.031  15.399  0.00  0.00    +0.000 NA
ATOM     15  C   UNL     1      48.772   8.504  16.543  0.00  0.00    +0.000 A 
BRANCH  13  16
ATOM     16  C   UNL     1      48.259   9.111  12.961  0.00  0.00    +0.000 C 
ATOM     17  N   UNL     1      47.305  10.081  13.093  0.00  0.00    +0.000 N 
ATOM     18  O   UNL     1      48.598   8.687  11.864  0.00  0.00    +0.000 OA
ATOM     19  H   UNL     1      47.025  10.387  14.019  0.00  0.00    +0.000 HD
ATOM     20  H   UNL     1      46.841  10.438  12.271  0.00  0.00    +0.000 HD
ENDBRANCH  13  16
ENDBRANCH   9  10
ENDBRANCH   8   9
ENDBRANCH   1   8
BRANCH   5  21
ATOM     21  O   UNL     1      46.253   4.267  15.295  0.00  0.00    +0.000 OA
BRANCH  21  22
ATOM     22  C   UNL     1      46.489   4.223  13.879  0.00  0.00    +0.000 C 
ATOM     23  C   UNL     1      46.942   5.583  13.366  0.00  0.00    +0.000 C 
ATOM     24  C   UNL     1      45.697   6.243  12.799  0.00  0.00    +0.000 C 
ATOM     25  N   UNL     1      44.833   5.133  12.337  0.00  0.00    +0.000 NA
ATOM     26  C   UNL     1      45.175   3.927  13.144  0.00  0.00    +0.000 C 
BRANCH  25  27
ATOM     27  S   UNL     1      44.676   4.895  10.667  0.00  0.00    +0.000 S 
ATOM     28  C   UNL     1      45.000   3.150  10.531  0.00  0.00    +0.000 C 
ATOM     29  O   UNL     1      43.299   5.155  10.308  0.00  0.00    +0.000 OA
ATOM     30  O   UNL     1      45.765   5.582  10.008  0.00  0.00    +0.000 OA
ENDBRANCH  25  27
ENDBRANCH  21  22
ENDBRANCH   5  21
TORSDOF 7
ENDMDL
