MODEL 1
REMARK VINA RESULT:    -8.357      0.000      0.000
REMARK INTER + INTRA:         -12.082
REMARK INTER:                 -11.289
REMARK INTRA:                  -0.794
REMARK UNBOUND:                -0.794
REMARK  Name = 
REMARK  6 active torsions:
REMARK  status: ('A' for Active; 'I' for Inactive)
REMARK    1  A    between atoms: C_2  and  C_4
REMARK    2  A    between atoms: C_7  and  N_8
REMARK    3  A    between atoms: N_8  and  C_9
REMARK    4  A    between atoms: C_9  and  C_10
REMARK    5  A    between atoms: C_10  and  C_11
REMARK    6  A    between atoms: C_13  and  C_14
REMARK                            x       y       z     vdW  Elec       q    Type
REMARK                         _______ _______ _______ _____ _____    ______ ____
ROOT
ATOM      1  C   UNL     1      45.604   7.014  12.702  0.00  0.00    +0.000 C 
ENDROOT
BRANCH   1   2
ATOM      2  N   UNL     1      46.897   6.329  12.618  0.00  0.00    +0.000 N 
ATOM      3  H   UNL     1      47.660   6.980  12.440  0.00  0.00    +0.000 HD
BRANCH   2   7
ATOM      4  C   UNL     1      47.752   3.892  15.822  0.00  0.00    +0.000 A 
ATOM      5  C   UNL     1      48.162   5.217  15.815  0.00  0.00    +0.000 A 
ATOM      6  N   UNL     1      47.906   6.058  14.775  0.00  0.00    +0.000 NA
ATOM      7  C   UNL     1      47.232   5.536  13.729  0.00  0.00    +0.000 A 
ATOM      8  C   UNL     1      46.821   4.194  13.762  0.00  0.00    +0.000 A 
ATOM      9  N   UNL     1      47.068   3.337  14.787  0.00  0.00    +0.000 NA
BRANCH   4  11
ATOM     10  N   UNL     1      46.976   2.671  17.764  0.00  0.00    +0.000 N 
ATOM     11  C   UNL     1      48.052   3.027  16.996  0.00  0.00    +0.000 C 
ATOM     12  O   UNL     1      49.188   2.654  17.261  0.00  0.00    +0.000 OA
ATOM     13  H   UNL     1      47.116   2.085  18.575  0.00  0.00    +0.000 HD
ATOM     14  H   UNL     1      46.046   2.990  17.516  0.00  0.00    +0.000 HD
ENDBRANCH   4  11
ENDBRANCH   2   7
ENDBRANCH   1   2
BRANCH   1  15
ATOM     15  C   UNL     1      44.874   6.861  11.359  0.00  0.00    +0.000 C 
BRANCH  15  16
ATOM     16  C   UNL     1      44.631   5.425  10.961  0.00  0.00    +0.000 A 
ATOM     17  C   UNL     1      45.338   4.893   9.867  0.00  0.00    +0.000 A 
ATOM     18  C   UNL     1      45.121   3.575   9.451  0.00  0.00    +0.000 A 
ATOM     19  N   UNL     1      44.220   2.782  10.078  0.00  0.00    +0.000 NA
ATOM     20  C   UNL     1      43.555   3.298  11.142  0.00  0.00    +0.000 A 
ATOM     21  C   UNL     1      43.727   4.590  11.622  0.00  0.00    +0.000 A 
ATOM     22 CL   UNL     1      42.818   5.100  12.991  0.00  0.00    +0.000 Cl
BRANCH  18  23
ATOM     23  C   UNL     1      45.836   2.969   8.316  0.00  0.00    +0.000 A 
ATOM     24  C   UNL     1      46.199   3.691   7.169  0.00  0.00    +0.000 A 
ATOM     25  C   UNL     1      46.868   3.068   6.115  0.00  0.00    +0.000 A 
ATOM     26  C   UNL     1      47.164   1.722   6.232  0.00  0.00    +0.000 A 
ATOM     27  N   UNL     1      46.848   0.981   7.312  0.00  0.00    +0.000 NA
ATOM     28  C   UNL     1      46.204   1.621   8.323  0.00  0.00    +0.000 A 
ENDBRANCH  18  23
ENDBRANCH  15  16
ENDBRANCH   1  15
TORSDOF 6
ENDMDL
MODEL 2
REMARK VINA RESULT:    -8.186      3.401      7.444
REMARK INTER + INTRA:         -11.852
REMARK INTER:                 -11.194
REMARK INTRA:                  -0.657
REMARK UNBOUND:                -0.794
REMARK  Name = 
REMARK  6 active torsions:
REMARK  status: ('A' for Active; 'I' for Inactive)
REMARK    1  A    between atoms: C_2  and  C_4
REMARK    2  A    between atoms: C_7  and  N_8
REMARK    3  A    between atoms: N_8  and  C_9
REMARK    4  A    between atoms: C_9  and  C_10
REMARK    5  A    between atoms: C_10  and  C_11
REMARK    6  A    between atoms: C_13  and  C_14
REMARK                            x       y       z     vdW  Elec       q    Type
REMARK                         _______ _______ _______ _____ _____    ______ ____
ROOT
ATOM      1  C   UNL     1      43.243   4.208  11.016  0.00  0.00    +0.000 C 
ENDROOT
BRANCH   1   2
ATOM      2  N   UNL     1      43.887   4.875   9.881  0.00  0.00    +0.000 N 
ATOM      3  H   UNL     1      44.391   5.712  10.169  0.00  0.00    +0.000 HD
BRANCH   2   7
ATOM      4  C   UNL     1      46.402   2.387   7.777  0.00  0.00    +0.000 A 
ATOM      5  C   UNL     1      46.388   3.751   7.527  0.00  0.00    +0.000 A 
ATOM      6  N   UNL     1      45.570   4.611   8.195  0.00  0.00    +0.000 NA
ATOM      7  C   UNL     1      44.752   4.069   9.120  0.00  0.00    +0.000 A 
ATOM      8  C   UNL     1      44.788   2.686   9.362  0.00  0.00    +0.000 A 
ATOM      9  N   UNL     1      45.594   1.810   8.706  0.00  0.00    +0.000 NA
BRANCH   4  11
ATOM     10  N   UNL     1      48.465   2.099   6.542  0.00  0.00    +0.000 N 
ATOM     11  C   UNL     1      47.330   1.502   7.022  0.00  0.00    +0.000 C 
ATOM     12  O   UNL     1      47.100   0.313   6.841  0.00  0.00    +0.000 OA
ATOM     13  H   UNL     1      49.134   1.550   6.021  0.00  0.00    +0.000 HD
ATOM     14  H   UNL     1      48.632   3.085   6.713  0.00  0.00    +0.000 HD
ENDBRANCH   4  11
ENDBRANCH   2   7
ENDBRANCH   1   2
BRANCH   1  15
ATOM     15  C   UNL     1      43.335   5.125  12.245  0.00  0.00    +0.000 C 
BRANCH  15  16
ATOM     16  C   UNL     1      44.658   5.841  12.370  0.00  0.00    +0.000 A 
ATOM     17  C   UNL     1      44.696   7.235  12.190  0.00  0.00    +0.000 A 
ATOM     18  C   UNL     1      45.907   7.932  12.272  0.00  0.00    +0.000 A 
ATOM     19  N   UNL     1      47.072   7.285  12.513  0.00  0.00    +0.000 NA
ATOM     20  C   UNL     1      47.023   5.943  12.701  0.00  0.00    +0.000 A 
ATOM     21  C   UNL     1      45.860   5.186  12.650  0.00  0.00    +0.000 A 
ATOM     22 CL   UNL     1      45.955   3.489  12.920  0.00  0.00    +0.000 Cl
BRANCH  18  23
ATOM     23  C   UNL     1      46.002   9.390  12.096  0.00  0.00    +0.000 A 
ATOM     24  C   UNL     1      47.225  10.071  12.009  0.00  0.00    +0.000 A 
ATOM     25  C   UNL     1      47.263  11.456  11.852  0.00  0.00    +0.000 A 
ATOM     26  C   UNL     1      46.062  12.141  11.784  0.00  0.00    +0.000 A 
ATOM     27  N   UNL     1      44.857  11.539  11.854  0.00  0.00    +0.000 NA
ATOM     28  C   UNL     1      44.859  10.188  11.999  0.00  0.00    +0.000 A 
ENDBRANCH  18  23
ENDBRANCH  15  16
ENDBRANCH   1  15
TORSDOF 6
ENDMDL
MODEL 3
REMARK VINA RESULT:    -7.194      2.907      7.734
REMARK INTER + INTRA:         -10.511
REMARK INTER:                  -9.841
REMARK INTRA:                  -0.670
REMARK UNBOUND:                -0.794
REMARK  Name = 
REMARK  6 active torsions:
REMARK  status: ('A' for Active; 'I' for Inactive)
REMARK    1  A    between atoms: C_2  and  C_4
REMARK    2  A    between atoms: C_7  and  N_8
REMARK    3  A    between atoms: N_8  and  C_9
REMARK    4  A    between atoms: C_9  and  C_10
REMARK    5  A    between atoms: C_10  and  C_11
REMARK    6  A    between atoms: C_13  and  C_14
REMARK                            x       y       z     vdW  Elec       q    Type
REMARK                         _______ _______ _______ _____ _____    ______ ____
ROOT
ATOM      1  C   UNL     1      45.235   5.915  11.785  0.00  0.00    +0.000 C 
ENDROOT
BRANCH   1   2
ATOM      2  N   UNL     1      44.560   5.690  10.504  0.00  0.00    +0.000 N 
ATOM      3  H   UNL     1      44.550   6.530   9.928  0.00  0.00    +0.000 HD
BRANCH   2   7
ATOM      4  C   UNL     1      46.019   2.467   8.402  0.00  0.00    +0.000 A 
ATOM      5  C   UNL     1      46.221   3.759   7.941  0.00  0.00    +0.000 A 
ATOM      6  N   UNL     1      45.753   4.855   8.601  0.00  0.00    +0.000 NA
ATOM      7  C   UNL     1      45.063   4.625   9.737  0.00  0.00    +0.000 A 
ATOM      8  C   UNL     1      44.877   3.308  10.189  0.00  0.00    +0.000 A 
ATOM      9  N   UNL     1      45.333   2.202   9.546  0.00  0.00    +0.000 NA
BRANCH   4  11
ATOM     10  N   UNL     1      47.290   1.624   6.521  0.00  0.00    +0.000 N 
ATOM     11  C   UNL     1      46.569   1.311   7.642  0.00  0.00    +0.000 C 
ATOM     12  O   UNL     1      46.392   0.152   7.994  0.00  0.00    +0.000 OA
ATOM     13  H   UNL     1      47.689   0.883   5.962  0.00  0.00    +0.000 HD
ATOM     14  H   UNL     1      47.424   2.594   6.257  0.00  0.00    +0.000 HD
ENDBRANCH   4  11
ENDBRANCH   2   7
ENDBRANCH   1   2
BRANCH   1  15
ATOM     15  C   UNL     1      46.396   6.896  11.567  0.00  0.00    +0.000 C 
BRANCH  15  16
ATOM     16  C   UNL     1      47.440   6.855  12.657  0.00  0.00    +0.000 A 
ATOM     17  C   UNL     1      47.253   5.981  13.743  0.00  0.00    +0.000 A 
ATOM     18  C   UNL     1      48.184   5.932  14.787  0.00  0.00    +0.000 A 
ATOM     19  N   UNL     1      49.279   6.729  14.787  0.00  0.00    +0.000 NA
ATOM     20  C   UNL     1      49.459   7.556  13.727  0.00  0.00    +0.000 A 
ATOM     21  C   UNL     1      48.588   7.650  12.650  0.00  0.00    +0.000 A 
ATOM     22 CL   UNL     1      48.956   8.741  11.371  0.00  0.00    +0.000 Cl
BRANCH  18  23
ATOM     23  C   UNL     1      48.039   5.034  15.944  0.00  0.00    +0.000 A 
ATOM     24  C   UNL     1      48.933   5.030  17.024  0.00  0.00    +0.000 A 
ATOM     25  C   UNL     1      48.758   4.152  18.094  0.00  0.00    +0.000 A 
ATOM     26  C   UNL     1      47.679   3.287  18.062  0.00  0.00    +0.000 A 
ATOM     27  N   UNL     1      46.783   3.251  17.055  0.00  0.00    +0.000 NA
ATOM     28  C   UNL     1      46.980   4.125  16.033  0.00  0.00    +0.000 A 
ENDBRANCH  18  23
ENDBRANCH  15  16
ENDBRANCH   1  15
TORSDOF 6
ENDMDL
MODEL 4
REMARK VINA RESULT:    -6.948      1.823      1.998
REMARK INTER + INTRA:         -10.178
REMARK INTER:                  -9.579
REMARK INTRA:                  -0.599
REMARK UNBOUND:                -0.794
REMARK  Name = 
REMARK  6 active torsions:
REMARK  status: ('A' for Active; 'I' for Inactive)
REMARK    1  A    between atoms: C_2  and  C_4
REMARK    2  A    between atoms: C_7  and  N_8
REMARK    3  A    between atoms: N_8  and  C_9
REMARK    4  A    between atoms: C_9  and  C_10
REMARK    5  A    between atoms: C_10  and  C_11
REMARK    6  A    between atoms: C_13  and  C_14
REMARK                            x       y       z     vdW  Elec       q    Type
REMARK                         _______ _______ _______ _____ _____    ______ ____
ROOT
ATOM      1  C   UNL     1      46.666   6.891  11.656  0.00  0.00    +0.000 C 
ENDROOT
BRANCH   1   2
ATOM      2  N   UNL     1      46.909   7.978  12.609  0.00  0.00    +0.000 N 
ATOM      3  H   UNL     1      46.044   8.434  12.893  0.00  0.00    +0.000 HD
BRANCH   2   7
ATOM      4  C   UNL     1      48.935   6.762  15.978  0.00  0.00    +0.000 A 
ATOM      5  C   UNL     1      48.789   8.110  15.692  0.00  0.00    +0.000 A 
ATOM      6  N   UNL     1      48.131   8.559  14.587  0.00  0.00    +0.000 NA
ATOM      7  C   UNL     1      47.626   7.617  13.763  0.00  0.00    +0.000 A 
ATOM      8  C   UNL     1      47.780   6.258  14.077  0.00  0.00    +0.000 A 
ATOM      9  N   UNL     1      48.434   5.789  15.172  0.00  0.00    +0.000 NA
BRANCH   4  11
ATOM     10  N   UNL     1      50.416   5.205  17.096  0.00  0.00    +0.000 N 
ATOM     11  C   UNL     1      49.654   6.336  17.211  0.00  0.00    +0.000 C 
ATOM     12  O   UNL     1      49.573   6.958  18.263  0.00  0.00    +0.000 OA
ATOM     13  H   UNL     1      50.929   4.866  17.898  0.00  0.00    +0.000 HD
ATOM     14  H   UNL     1      50.469   4.715  16.210  0.00  0.00    +0.000 HD
ENDBRANCH   4  11
ENDBRANCH   2   7
ENDBRANCH   1   2
BRANCH   1  15
ATOM     15  C   UNL     1      45.150   6.706  11.493  0.00  0.00    +0.000 C 
BRANCH  15  16
ATOM     16  C   UNL     1      44.755   5.335  11.000  0.00  0.00    +0.000 A 
ATOM     17  C   UNL     1      45.453   4.776   9.914  0.00  0.00    +0.000 A 
ATOM     18  C   UNL     1      45.100   3.519   9.411  0.00  0.00    +0.000 A 
ATOM     19  N   UNL     1      44.075   2.814   9.944  0.00  0.00    +0.000 NA
ATOM     20  C   UNL     1      43.418   3.354  11.001  0.00  0.00    +0.000 A 
ATOM     21  C   UNL     1      43.719   4.587  11.564  0.00  0.00    +0.000 A 
ATOM     22 CL   UNL     1      42.802   5.135  12.913  0.00  0.00    +0.000 Cl
BRANCH  18  23
ATOM     23  C   UNL     1      45.799   2.888   8.280  0.00  0.00    +0.000 A 
ATOM     24  C   UNL     1      46.139   3.582   7.109  0.00  0.00    +0.000 A 
ATOM     25  C   UNL     1      46.794   2.936   6.060  0.00  0.00    +0.000 A 
ATOM     26  C   UNL     1      47.100   1.595   6.205  0.00  0.00    +0.000 A 
ATOM     27  N   UNL     1      46.806   0.880   7.310  0.00  0.00    +0.000 NA
ATOM     28  C   UNL     1      46.175   1.543   8.315  0.00  0.00    +0.000 A 
ENDBRANCH  18  23
ENDBRANCH  15  16
ENDBRANCH   1  15
TORSDOF 6
ENDMDL
MODEL 5
REMARK VINA RESULT:    -6.754      3.120      4.330
REMARK INTER + INTRA:          -9.916
REMARK INTER:                  -9.102
REMARK INTRA:                  -0.815
REMARK UNBOUND:                -0.794
REMARK  Name = 
REMARK  6 active torsions:
REMARK  status: ('A' for Active; 'I' for Inactive)
REMARK    1  A    between atoms: C_2  and  C_4
REMARK    2  A    between atoms: C_7  and  N_8
REMARK    3  A    between atoms: N_8  and  C_9
REMARK    4  A    between atoms: C_9  and  C_10
REMARK    5  A    between atoms: C_10  and  C_11
REMARK    6  A    between atoms: C_13  and  C_14
REMARK                            x       y       z     vdW  Elec       q    Type
REMARK                         _______ _______ _______ _____ _____    ______ ____
ROOT
ATOM      1  C   UNL     1      49.539   7.269  12.953  0.00  0.00    +0.000 C 
ENDROOT
BRANCH   1   2
ATOM      2  N   UNL     1      49.213   7.657  14.328  0.00  0.00    +0.000 N 
ATOM      3  H   UNL     1      48.561   8.439  14.357  0.00  0.00    +0.000 HD
BRANCH   2   7
ATOM      4  C   UNL     1      47.880   4.677  16.834  0.00  0.00    +0.000 A 
ATOM      5  C   UNL     1      47.539   4.673  15.490  0.00  0.00    +0.000 A 
ATOM      6  N   UNL     1      47.953   5.640  14.625  0.00  0.00    +0.000 NA
ATOM      7  C   UNL     1      48.715   6.626  15.143  0.00  0.00    +0.000 A 
ATOM      8  C   UNL     1      49.055   6.604  16.505  0.00  0.00    +0.000 A 
ATOM      9  N   UNL     1      48.651   5.651  17.385  0.00  0.00    +0.000 NA
BRANCH   4  11
ATOM     10  N   UNL     1      48.129   3.392  18.872  0.00  0.00    +0.000 N 
ATOM     11  C   UNL     1      47.407   3.582  17.724  0.00  0.00    +0.000 C 
ATOM     12  O   UNL     1      46.431   2.893  17.453  0.00  0.00    +0.000 OA
ATOM     13  H   UNL     1      47.857   2.664  19.517  0.00  0.00    +0.000 HD
ATOM     14  H   UNL     1      48.929   3.982  19.072  0.00  0.00    +0.000 HD
ENDBRANCH   4  11
ENDBRANCH   2   7
ENDBRANCH   1   2
BRANCH   1  15
ATOM     15  C   UNL     1      48.853   8.247  11.987  0.00  0.00    +0.000 C 
BRANCH  15  16
ATOM     16  C   UNL     1      47.350   8.112  11.953  0.00  0.00    +0.000 A 
ATOM     17  C   UNL     1      46.784   6.826  11.878  0.00  0.00    +0.000 A 
ATOM     18  C   UNL     1      45.396   6.661  11.818  0.00  0.00    +0.000 A 
ATOM     19  N   UNL     1      44.562   7.728  11.818  0.00  0.00    +0.000 NA
ATOM     20  C   UNL     1      45.116   8.963  11.908  0.00  0.00    +0.000 A 
ATOM     21  C   UNL     1      46.481   9.206  11.985  0.00  0.00    +0.000 A 
ATOM     22 CL   UNL     1      47.035  10.831  12.105  0.00  0.00    +0.000 Cl
BRANCH  18  23
ATOM     23  C   UNL     1      44.753   5.339  11.743  0.00  0.00    +0.000 A 
ATOM     24  C   UNL     1      44.628   4.618  10.545  0.00  0.00    +0.000 A 
ATOM     25  C   UNL     1      44.001   3.372  10.524  0.00  0.00    +0.000 A 
ATOM     26  C   UNL     1      43.507   2.867  11.713  0.00  0.00    +0.000 A 
ATOM     27  N   UNL     1      43.605   3.510  12.894  0.00  0.00    +0.000 NA
ATOM     28  C   UNL     1      44.229   4.718  12.879  0.00  0.00    +0.000 A 
ENDBRANCH  18  23
ENDBRANCH  15  16
ENDBRANCH   1  15
TORSDOF 6
ENDMDL
MODEL 6
REMARK VINA RESULT:    -6.383      3.607      8.241
REMARK INTER + INTRA:          -9.416
REMARK INTER:                  -8.860
REMARK INTRA:                  -0.556
REMARK UNBOUND:                -0.794
REMARK  Name = 
REMARK  6 active torsions:
REMARK  status: ('A' for Active; 'I' for Inactive)
REMARK    1  A    between atoms: C_2  and  C_4
REMARK    2  A    between atoms: C_7  and  N_8
REMARK    3  A    between atoms: N_8  and  C_9
REMARK    4  A    between atoms: C_9  and  C_10
REMARK    5  A    between atoms: C_10  and  C_11
REMARK    6  A    between atoms: C_13  and  C_14
REMARK                            x       y       z     vdW  Elec       q    Type
REMARK                         _______ _______ _______ _____ _____    ______ ____
ROOT
ATOM      1  C   UNL     1      48.117   6.486  14.296  0.00  0.00    +0.000 C 
ENDROOT
BRANCH   1   2
ATOM      2  N   UNL     1      46.874   6.994  13.708  0.00  0.00    +0.000 N 
ATOM      3  H   UNL     1      47.043   7.782  13.084  0.00  0.00    +0.000 HD
BRANCH   2   7
ATOM      4  C   UNL     1      44.686   4.077  11.800  0.00  0.00    +0.000 A 
ATOM      5  C   UNL     1      44.724   5.370  11.300  0.00  0.00    +0.000 A 
ATOM      6  N   UNL     1      45.430   6.368  11.900  0.00  0.00    +0.000 NA
ATOM      7  C   UNL     1      46.096   6.041  13.028  0.00  0.00    +0.000 A 
ATOM      8  C   UNL     1      46.049   4.724  13.511  0.00  0.00    +0.000 A 
ATOM      9  N   UNL     1      45.349   3.715  12.930  0.00  0.00    +0.000 NA
BRANCH   4  11
ATOM     10  N   UNL     1      44.259   2.803   9.785  0.00  0.00    +0.000 N 
ATOM     11  C   UNL     1      43.906   3.027  11.089  0.00  0.00    +0.000 C 
ATOM     12  O   UNL     1      43.006   2.399  11.633  0.00  0.00    +0.000 OA
ATOM     13  H   UNL     1      43.766   2.103   9.249  0.00  0.00    +0.000 HD
ATOM     14  H   UNL     1      45.013   3.335   9.364  0.00  0.00    +0.000 HD
ENDBRANCH   4  11
ENDBRANCH   2   7
ENDBRANCH   1   2
BRANCH   1  15
ATOM     15  C   UNL     1      48.558   7.438  15.418  0.00  0.00    +0.000 C 
BRANCH  15  16
ATOM     16  C   UNL     1      48.961   6.731  16.690  0.00  0.00    +0.000 A 
ATOM     17  C   UNL     1      49.696   5.535  16.600  0.00  0.00    +0.000 A 
ATOM     18  C   UNL     1      50.065   4.837  17.755  0.00  0.00    +0.000 A 
ATOM     19  N   UNL     1      49.716   5.283  18.985  0.00  0.00    +0.000 NA
ATOM     20  C   UNL     1      49.022   6.446  19.062  0.00  0.00    +0.000 A 
ATOM     21  C   UNL     1      48.633   7.201  17.964  0.00  0.00    +0.000 A 
ATOM     22 CL   UNL     1      47.762   8.663  18.221  0.00  0.00    +0.000 Cl
BRANCH  18  23
ATOM     23  C   UNL     1      50.837   3.585  17.717  0.00  0.00    +0.000 A 
ATOM     24  C   UNL     1      52.162   3.490  18.169  0.00  0.00    +0.000 A 
ATOM     25  C   UNL     1      52.856   2.282  18.103  0.00  0.00    +0.000 A 
ATOM     26  C   UNL     1      52.202   1.180  17.581  0.00  0.00    +0.000 A 
ATOM     27  N   UNL     1      50.929   1.209  17.140  0.00  0.00    +0.000 NA
ATOM     28  C   UNL     1      50.282   2.400  17.226  0.00  0.00    +0.000 A 
ENDBRANCH  18  23
ENDBRANCH  15  16
ENDBRANCH   1  15
TORSDOF 6
ENDMDL
MODEL 7
REMARK VINA RESULT:    -6.337      3.337      5.083
REMARK INTER + INTRA:          -9.354
REMARK INTER:                  -8.715
REMARK INTRA:                  -0.639
REMARK UNBOUND:                -0.794
REMARK  Name = 
REMARK  6 active torsions:
REMARK  status: ('A' for Active; 'I' for Inactive)
REMARK    1  A    between atoms: C_2  and  C_4
REMARK    2  A    between atoms: C_7  and  N_8
REMARK    3  A    between atoms: N_8  and  C_9
REMARK    4  A    between atoms: C_9  and  C_10
REMARK    5  A    between atoms: C_10  and  C_11
REMARK    6  A    between atoms: C_13  and  C_14
REMARK                            x       y       z     vdW  Elec       q    Type
REMARK                         _______ _______ _______ _____ _____    ______ ____
ROOT
ATOM      1  C   UNL     1      49.006   7.101  16.157  0.00  0.00    +0.000 C 
ENDROOT
BRANCH   1   2
ATOM      2  N   UNL     1      48.382   5.907  16.733  0.00  0.00    +0.000 N 
ATOM      3  H   UNL     1      47.614   5.565  16.158  0.00  0.00    +0.000 HD
BRANCH   2   7
ATOM      4  C   UNL     1      51.076   2.891  17.491  0.00  0.00    +0.000 A 
ATOM      5  C   UNL     1      49.779   2.595  17.100  0.00  0.00    +0.000 A 
ATOM      6  N   UNL     1      48.853   3.560  16.843  0.00  0.00    +0.000 NA
ATOM      7  C   UNL     1      49.256   4.838  16.998  0.00  0.00    +0.000 A 
ATOM      8  C   UNL     1      50.576   5.113  17.387  0.00  0.00    +0.000 A 
ATOM      9  N   UNL     1      51.515   4.167  17.650  0.00  0.00    +0.000 NA
BRANCH   4  11
ATOM     10  N   UNL     1      51.500   0.555  17.975  0.00  0.00    +0.000 N 
ATOM     11  C   UNL     1      52.046   1.789  17.743  0.00  0.00    +0.000 C 
ATOM     12  O   UNL     1      53.258   1.971  17.743  0.00  0.00    +0.000 OA
ATOM     13  H   UNL     1      52.107  -0.232  18.152  0.00  0.00    +0.000 HD
ATOM     14  H   UNL     1      50.493   0.435  17.963  0.00  0.00    +0.000 HD
ENDBRANCH   4  11
ENDBRANCH   2   7
ENDBRANCH   1   2
BRANCH   1  15
ATOM     15  C   UNL     1      49.139   6.906  14.639  0.00  0.00    +0.000 C 
BRANCH  15  16
ATOM     16  C   UNL     1      47.865   7.184  13.878  0.00  0.00    +0.000 A 
ATOM     17  C   UNL     1      47.073   6.100  13.458  0.00  0.00    +0.000 A 
ATOM     18  C   UNL     1      45.899   6.315  12.728  0.00  0.00    +0.000 A 
ATOM     19  N   UNL     1      45.500   7.566  12.396  0.00  0.00    +0.000 NA
ATOM     20  C   UNL     1      46.261   8.606  12.819  0.00  0.00    +0.000 A 
ATOM     21  C   UNL     1      47.429   8.472  13.559  0.00  0.00    +0.000 A 
ATOM     22 CL   UNL     1      48.283   9.888  14.034  0.00  0.00    +0.000 Cl
BRANCH  18  23
ATOM     23  C   UNL     1      45.033   5.218  12.268  0.00  0.00    +0.000 A 
ATOM     24  C   UNL     1      44.629   5.073  10.932  0.00  0.00    +0.000 A 
ATOM     25  C   UNL     1      43.798   4.019  10.547  0.00  0.00    +0.000 A 
ATOM     26  C   UNL     1      43.386   3.122  11.516  0.00  0.00    +0.000 A 
ATOM     27  N   UNL     1      43.749   3.207  12.812  0.00  0.00    +0.000 NA
ATOM     28  C   UNL     1      44.565   4.240  13.150  0.00  0.00    +0.000 A 
ENDBRANCH  18  23
ENDBRANCH  15  16
ENDBRANCH   1  15
TORSDOF 6
ENDMDL
MODEL 8
REMARK VINA RESULT:    -6.110      3.710      7.650
REMARK INTER + INTRA:          -9.047
REMARK INTER:                  -8.112
REMARK INTRA:                  -0.935
REMARK UNBOUND:                -0.794
REMARK  Name = 
REMARK  6 active torsions:
REMARK  status: ('A' for Active; 'I' for Inactive)
REMARK    1  A    between atoms: C_2  and  C_4
REMARK    2  A    between atoms: C_7  and  N_8
REMARK    3  A    between atoms: N_8  and  C_9
REMARK    4  A    between atoms: C_9  and  C_10
REMARK    5  A    between atoms: C_10  and  C_11
REMARK    6  A    between atoms: C_13  and  C_14
REMARK                            x       y       z     vdW  Elec       q    Type
REMARK                         _______ _______ _______ _____ _____    ______ ____
ROOT
ATOM      1  C   UNL     1      48.383   7.891  12.205  0.00  0.00    +0.000 C 
ENDROOT
BRANCH   1   2
ATOM      2  N   UNL     1      46.926   7.976  12.075  0.00  0.00    +0.000 N 
ATOM      3  H   UNL     1      46.649   8.502  11.249  0.00  0.00    +0.000 HD
BRANCH   2   7
ATOM      4  C   UNL     1      44.899   4.399  11.895  0.00  0.00    +0.000 A 
ATOM      5  C   UNL     1      45.202   4.976  13.119  0.00  0.00    +0.000 A 
ATOM      6  N   UNL     1      45.875   6.156  13.227  0.00  0.00    +0.000 NA
ATOM      7  C   UNL     1      46.249   6.744  12.072  0.00  0.00    +0.000 A 
ATOM      8  C   UNL     1      45.924   6.145  10.844  0.00  0.00    +0.000 A 
ATOM      9  N   UNL     1      45.257   4.968  10.714  0.00  0.00    +0.000 NA
BRANCH   4  11
ATOM     10  N   UNL     1      44.153   2.468  10.637  0.00  0.00    +0.000 N 
ATOM     11  C   UNL     1      44.149   3.114  11.845  0.00  0.00    +0.000 C 
ATOM     12  O   UNL     1      43.565   2.658  12.820  0.00  0.00    +0.000 OA
ATOM     13  H   UNL     1      43.661   1.591  10.540  0.00  0.00    +0.000 HD
ATOM     14  H   UNL     1      44.651   2.867   9.849  0.00  0.00    +0.000 HD
ENDBRANCH   4  11
ENDBRANCH   2   7
ENDBRANCH   1   2
BRANCH   1  15
ATOM     15  C   UNL     1      48.823   8.744  13.404  0.00  0.00    +0.000 C 
BRANCH  15  16
ATOM     16  C   UNL     1      49.481   7.949  14.507  0.00  0.00    +0.000 A 
ATOM     17  C   UNL     1      48.785   6.864  15.070  0.00  0.00    +0.000 A 
ATOM     18  C   UNL     1      49.349   6.119  16.112  0.00  0.00    +0.000 A 
ATOM     19  N   UNL     1      50.569   6.427  16.612  0.00  0.00    +0.000 NA
ATOM     20  C   UNL     1      51.239   7.465  16.051  0.00  0.00    +0.000 A 
ATOM     21  C   UNL     1      50.752   8.240  15.008  0.00  0.00    +0.000 A 
ATOM     22 CL   UNL     1      51.724   9.519  14.392  0.00  0.00    +0.000 Cl
BRANCH  18  23
ATOM     23  C   UNL     1      48.666   4.974  16.734  0.00  0.00    +0.000 A 
ATOM     24  C   UNL     1      49.207   4.255  17.810  0.00  0.00    +0.000 A 
ATOM     25  C   UNL     1      48.524   3.169  18.359  0.00  0.00    +0.000 A 
ATOM     26  C   UNL     1      47.301   2.821  17.815  0.00  0.00    +0.000 A 
ATOM     27  N   UNL     1      46.729   3.480  16.787  0.00  0.00    +0.000 NA
ATOM     28  C   UNL     1      47.418   4.537  16.282  0.00  0.00    +0.000 A 
ENDBRANCH  18  23
ENDBRANCH  15  16
ENDBRANCH   1  15
TORSDOF 6
ENDMDL
MODEL 9
REMARK VINA RESULT:    -6.091      4.484      9.890
REMARK INTER + INTRA:          -9.021
REMARK INTER:                  -8.483
REMARK INTRA:                  -0.538
REMARK UNBOUND:                -0.794
REMARK  Name = 
REMARK  6 active torsions:
REMARK  status: ('A' for Active; 'I' for Inactive)
REMARK    1  A    between atoms: C_2  and  C_4
REMARK    2  A    between atoms: C_7  and  N_8
REMARK    3  A    between atoms: N_8  and  C_9
REMARK    4  A    between atoms: C_9  and  C_10
REMARK    5  A    between atoms: C_10  and  C_11
REMARK    6  A    between atoms: C_13  and  C_14
REMARK                            x       y       z     vdW  Elec       q    Type
REMARK                         _______ _______ _______ _____ _____    ______ ____
ROOT
ATOM      1  C   UNL     1      47.588   3.598  15.707  0.00  0.00    +0.000 C 
ENDROOT
BRANCH   1   2
ATOM      2  N   UNL     1      46.961   4.815  15.184  0.00  0.00    +0.000 N 
ATOM      3  H   UNL     1      47.627   5.582  15.107  0.00  0.00    +0.000 HD
BRANCH   2   7
ATOM      4  C   UNL     1      44.963   4.556  11.596  0.00  0.00    +0.000 A 
ATOM      5  C   UNL     1      45.346   3.409  12.274  0.00  0.00    +0.000 A 
ATOM      6  N   UNL     1      46.013   3.446  13.461  0.00  0.00    +0.000 NA
ATOM      7  C   UNL     1      46.297   4.669  13.954  0.00  0.00    +0.000 A 
ATOM      8  C   UNL     1      45.892   5.817  13.254  0.00  0.00    +0.000 A 
ATOM      9  N   UNL     1      45.229   5.803  12.068  0.00  0.00    +0.000 NA
BRANCH   4  11
ATOM     10  N   UNL     1      44.777   3.617   9.371  0.00  0.00    +0.000 N 
ATOM     11  C   UNL     1      44.223   4.447  10.308  0.00  0.00    +0.000 C 
ATOM     12  O   UNL     1      43.183   5.058  10.097  0.00  0.00    +0.000 OA
ATOM     13  H   UNL     1      44.322   3.501   8.477  0.00  0.00    +0.000 HD
ATOM     14  H   UNL     1      45.637   3.119   9.577  0.00  0.00    +0.000 HD
ENDBRANCH   4  11
ENDBRANCH   2   7
ENDBRANCH   1   2
BRANCH   1  15
ATOM     15  C   UNL     1      47.283   3.491  17.209  0.00  0.00    +0.000 C 
BRANCH  15  16
ATOM     16  C   UNL     1      48.127   4.403  18.067  0.00  0.00    +0.000 A 
ATOM     17  C   UNL     1      47.520   5.516  18.676  0.00  0.00    +0.000 A 
ATOM     18  C   UNL     1      48.274   6.400  19.457  0.00  0.00    +0.000 A 
ATOM     19  N   UNL     1      49.603   6.217  19.637  0.00  0.00    +0.000 NA
ATOM     20  C   UNL     1      50.176   5.131  19.059  0.00  0.00    +0.000 A 
ATOM     21  C   UNL     1      49.492   4.204  18.284  0.00  0.00    +0.000 A 
ATOM     22 CL   UNL     1      50.354   2.869  17.624  0.00  0.00    +0.000 Cl
BRANCH  18  23
ATOM     23  C   UNL     1      47.689   7.577  20.119  0.00  0.00    +0.000 A 
ATOM     24  C   UNL     1      47.437   7.630  21.498  0.00  0.00    +0.000 A 
ATOM     25  C   UNL     1      46.871   8.766  22.078  0.00  0.00    +0.000 A 
ATOM     26  C   UNL     1      46.567   9.838  21.257  0.00  0.00    +0.000 A 
ATOM     27  N   UNL     1      46.794   9.846  19.929  0.00  0.00    +0.000 NA
ATOM     28  C   UNL     1      47.353   8.726  19.399  0.00  0.00    +0.000 A 
ENDBRANCH  18  23
ENDBRANCH  15  16
ENDBRANCH   1  15
TORSDOF 6
ENDMDL
