MODEL 1
REMARK VINA RESULT:    -8.230      0.000      0.000
REMARK INTER + INTRA:         -12.116
REMARK INTER:                 -11.117
REMARK INTRA:                  -1.000
REMARK UNBOUND:                -1.000
REMARK  Name = 
REMARK  6 active torsions:
REMARK  status: ('A' for Active; 'I' for Inactive)
REMARK    1  A    between atoms: C_2  and  C_4
REMARK    2  A    between atoms: C_7  and  O_8
REMARK    3  A    between atoms: O_8  and  C_9
REMARK    4  A    between atoms: C_9  and  C_10
REMARK    5  A    between atoms: C_10  and  C_11
REMARK    6  A    between atoms: C_15  and  C_16
REMARK                            x       y       z     vdW  Elec       q    Type
REMARK                         _______ _______ _______ _____ _____    ______ ____
ROOT
ATOM      1  C   UNL     1      43.351   4.790  10.644  0.00  0.00    +0.000 C 
ENDROOT
BRANCH   1   2
ATOM      2  O   UNL     1      43.585   3.383  10.496  0.00  0.00    +0.000 OA
BRANCH   2   6
ATOM      3  C   UNL     1      46.429   2.670   7.596  0.00  0.00    +0.000 A 
ATOM      4  C   UNL     1      45.999   3.978   7.834  0.00  0.00    +0.000 A 
ATOM      5  C   UNL     1      45.031   4.209   8.816  0.00  0.00    +0.000 A 
ATOM      6  C   UNL     1      44.533   3.123   9.519  0.00  0.00    +0.000 A 
ATOM      7  N   UNL     1      44.923   1.851   9.300  0.00  0.00    +0.000 NA
ATOM      8  C   UNL     1      45.852   1.649   8.336  0.00  0.00    +0.000 A 
BRANCH   3  10
ATOM      9  N   UNL     1      47.414   2.980   5.397  0.00  0.00    +0.000 N 
ATOM     10  C   UNL     1      47.451   2.316   6.591  0.00  0.00    +0.000 C 
ATOM     11  O   UNL     1      48.324   1.493   6.830  0.00  0.00    +0.000 OA
ATOM     12  H   UNL     1      48.194   2.814   4.772  0.00  0.00    +0.000 HD
ATOM     13  H   UNL     1      46.890   3.834   5.269  0.00  0.00    +0.000 HD
ENDBRANCH   3  10
ENDBRANCH   2   6
ENDBRANCH   1   2
BRANCH   1  14
ATOM     14  C   UNL     1      43.554   5.195  12.104  0.00  0.00    +0.000 C 
BRANCH  14  15
ATOM     15  C   UNL     1      45.004   5.516  12.372  0.00  0.00    +0.000 A 
ATOM     16  C   UNL     1      45.716   6.367  11.523  0.00  0.00    +0.000 A 
ATOM     17  C   UNL     1      47.035   6.704  11.816  0.00  0.00    +0.000 A 
ATOM     18  C   UNL     1      47.646   6.210  12.973  0.00  0.00    +0.000 A 
ATOM     19  C   UNL     1      46.952   5.380  13.871  0.00  0.00    +0.000 A 
ATOM     20  C   UNL     1      45.631   5.032  13.535  0.00  0.00    +0.000 A 
BRANCH  19  21
ATOM     21  C   UNL     1      47.567   4.927  15.138  0.00  0.00    +0.000 A 
ATOM     22  C   UNL     1      47.328   3.655  15.681  0.00  0.00    +0.000 A 
ATOM     23  C   UNL     1      47.905   3.278  16.894  0.00  0.00    +0.000 A 
ATOM     24  C   UNL     1      48.725   4.184  17.543  0.00  0.00    +0.000 A 
ATOM     25  N   UNL     1      48.991   5.417  17.070  0.00  0.00    +0.000 NA
ATOM     26  C   UNL     1      48.403   5.754  15.894  0.00  0.00    +0.000 A 
ENDBRANCH  19  21
ENDBRANCH  14  15
ENDBRANCH   1  14
TORSDOF 6
ENDMDL
MODEL 2
REMARK VINA RESULT:    -8.179      2.465      3.973
REMARK INTER + INTRA:         -12.048
REMARK INTER:                 -11.045
REMARK INTRA:                  -1.002
REMARK UNBOUND:                -1.000
REMARK  Name = 
REMARK  6 active torsions:
REMARK  status: ('A' for Active; 'I' for Inactive)
REMARK    1  A    between atoms: C_2  and  C_4
REMARK    2  A    between atoms: C_7  and  O_8
REMARK    3  A    between atoms: O_8  and  C_9
REMARK    4  A    between atoms: C_9  and  C_10
REMARK    5  A    between atoms: C_10  and  C_11
REMARK    6  A    between atoms: C_15  and  C_16
REMARK                            x       y       z     vdW  Elec       q    Type
REMARK                         _______ _______ _______ _____ _____    ______ ____
ROOT
ATOM      1  C   UNL     1      43.264   3.585  11.513  0.00  0.00    +0.000 C 
ENDROOT
BRANCH   1   2
ATOM      2  O   UNL     1      43.484   4.298  10.289  0.00  0.00    +0.000 OA
BRANCH   2   6
ATOM      3  C   UNL     1      46.319   2.471   7.916  0.00  0.00    +0.000 A 
ATOM      4  C   UNL     1      46.212   3.864   7.915  0.00  0.00    +0.000 A 
ATOM      5  C   UNL     1      45.245   4.474   8.720  0.00  0.00    +0.000 A 
ATOM      6  C   UNL     1      44.424   3.665   9.491  0.00  0.00    +0.000 A 
ATOM      7  N   UNL     1      44.500   2.319   9.500  0.00  0.00    +0.000 NA
ATOM      8  C   UNL     1      45.436   1.749   8.704  0.00  0.00    +0.000 A 
BRANCH   3  10
ATOM      9  N   UNL     1      48.324   2.445   6.546  0.00  0.00    +0.000 N 
ATOM     10  C   UNL     1      47.310   1.726   7.113  0.00  0.00    +0.000 C 
ATOM     11  O   UNL     1      47.253   0.510   6.995  0.00  0.00    +0.000 OA
ATOM     12  H   UNL     1      49.060   1.904   6.107  0.00  0.00    +0.000 HD
ATOM     13  H   UNL     1      48.552   3.385   6.837  0.00  0.00    +0.000 HD
ENDBRANCH   3  10
ENDBRANCH   2   6
ENDBRANCH   1   2
BRANCH   1  14
ATOM     14  C   UNL     1      43.229   4.567  12.683  0.00  0.00    +0.000 C 
BRANCH  14  15
ATOM     15  C   UNL     1      44.578   5.214  12.877  0.00  0.00    +0.000 A 
ATOM     16  C   UNL     1      45.693   4.449  13.231  0.00  0.00    +0.000 A 
ATOM     17  C   UNL     1      46.943   5.050  13.347  0.00  0.00    +0.000 A 
ATOM     18  C   UNL     1      47.094   6.416  13.089  0.00  0.00    +0.000 A 
ATOM     19  C   UNL     1      46.004   7.213  12.696  0.00  0.00    +0.000 A 
ATOM     20  C   UNL     1      44.747   6.586  12.615  0.00  0.00    +0.000 A 
BRANCH  19  21
ATOM     21  C   UNL     1      46.177   8.637  12.338  0.00  0.00    +0.000 A 
ATOM     22  C   UNL     1      47.439   9.232  12.191  0.00  0.00    +0.000 A 
ATOM     23  C   UNL     1      47.558  10.587  11.881  0.00  0.00    +0.000 A 
ATOM     24  C   UNL     1      46.402  11.327  11.713  0.00  0.00    +0.000 A 
ATOM     25  N   UNL     1      45.164  10.812  11.841  0.00  0.00    +0.000 NA
ATOM     26  C   UNL     1      45.086   9.493  12.154  0.00  0.00    +0.000 A 
ENDBRANCH  19  21
ENDBRANCH  14  15
ENDBRANCH   1  14
TORSDOF 6
ENDMDL
MODEL 3
REMARK VINA RESULT:    -7.514      2.474      7.630
REMARK INTER + INTRA:         -11.149
REMARK INTER:                 -10.050
REMARK INTRA:                  -1.099
REMARK UNBOUND:                -1.000
REMARK  Name = 
REMARK  6 active torsions:
REMARK  status: ('A' for Active; 'I' for Inactive)
REMARK    1  A    between atoms: C_2  and  C_4
REMARK    2  A    between atoms: C_7  and  O_8
REMARK    3  A    between atoms: O_8  and  C_9
REMARK    4  A    between atoms: C_9  and  C_10
REMARK    5  A    between atoms: C_10  and  C_11
REMARK    6  A    between atoms: C_15  and  C_16
REMARK                            x       y       z     vdW  Elec       q    Type
REMARK                         _______ _______ _______ _____ _____    ______ ____
ROOT
ATOM      1  C   UNL     1      45.849   7.212  12.675  0.00  0.00    +0.000 C 
ENDROOT
BRANCH   1   2
ATOM      2  O   UNL     1      47.110   6.535  12.597  0.00  0.00    +0.000 OA
BRANCH   2   6
ATOM      3  C   UNL     1      47.721   4.040  15.823  0.00  0.00    +0.000 A 
ATOM      4  C   UNL     1      46.970   3.589  14.735  0.00  0.00    +0.000 A 
ATOM      5  C   UNL     1      46.765   4.444  13.647  0.00  0.00    +0.000 A 
ATOM      6  C   UNL     1      47.318   5.715  13.694  0.00  0.00    +0.000 A 
ATOM      7  N   UNL     1      48.036   6.177  14.738  0.00  0.00    +0.000 NA
ATOM      8  C   UNL     1      48.212   5.336  15.785  0.00  0.00    +0.000 A 
BRANCH   3  10
ATOM      9  N   UNL     1      46.937   2.729  17.711  0.00  0.00    +0.000 N 
ATOM     10  C   UNL     1      48.007   3.218  17.016  0.00  0.00    +0.000 C 
ATOM     11  O   UNL     1      49.153   2.947  17.346  0.00  0.00    +0.000 OA
ATOM     12  H   UNL     1      47.151   2.068  18.448  0.00  0.00    +0.000 HD
ATOM     13  H   UNL     1      46.004   2.706  17.324  0.00  0.00    +0.000 HD
ENDBRANCH   3  10
ENDBRANCH   2   6
ENDBRANCH   1   2
BRANCH   1  14
ATOM     14  C   UNL     1      45.135   7.128  11.326  0.00  0.00    +0.000 C 
BRANCH  14  15
ATOM     15  C   UNL     1      44.775   5.700  11.000  0.00  0.00    +0.000 A 
ATOM     16  C   UNL     1      43.695   5.074  11.628  0.00  0.00    +0.000 A 
ATOM     17  C   UNL     1      43.336   3.776  11.273  0.00  0.00    +0.000 A 
ATOM     18  C   UNL     1      44.040   3.102  10.271  0.00  0.00    +0.000 A 
ATOM     19  C   UNL     1      45.111   3.709   9.591  0.00  0.00    +0.000 A 
ATOM     20  C   UNL     1      45.470   5.010   9.990  0.00  0.00    +0.000 A 
BRANCH  19  21
ATOM     21  C   UNL     1      45.801   3.031   8.472  0.00  0.00    +0.000 A 
ATOM     22  C   UNL     1      46.243   3.717   7.330  0.00  0.00    +0.000 A 
ATOM     23  C   UNL     1      46.864   3.034   6.284  0.00  0.00    +0.000 A 
ATOM     24  C   UNL     1      47.042   1.668   6.404  0.00  0.00    +0.000 A 
ATOM     25  N   UNL     1      46.640   0.957   7.475  0.00  0.00    +0.000 NA
ATOM     26  C   UNL     1      46.029   1.651   8.468  0.00  0.00    +0.000 A 
ENDBRANCH  19  21
ENDBRANCH  14  15
ENDBRANCH   1  14
TORSDOF 6
ENDMDL
MODEL 4
REMARK VINA RESULT:    -7.500      3.308      5.138
REMARK INTER + INTRA:         -11.130
REMARK INTER:                 -10.775
REMARK INTRA:                  -0.356
REMARK UNBOUND:                -1.000
REMARK  Name = 
REMARK  6 active torsions:
REMARK  status: ('A' for Active; 'I' for Inactive)
REMARK    1  A    between atoms: C_2  and  C_4
REMARK    2  A    between atoms: C_7  and  O_8
REMARK    3  A    between atoms: O_8  and  C_9
REMARK    4  A    between atoms: C_9  and  C_10
REMARK    5  A    between atoms: C_10  and  C_11
REMARK    6  A    between atoms: C_15  and  C_16
REMARK                            x       y       z     vdW  Elec       q    Type
REMARK                         _______ _______ _______ _____ _____    ______ ____
ROOT
ATOM      1  C   UNL     1      43.671   4.717  11.083  0.00  0.00    +0.000 C 
ENDROOT
BRANCH   1   2
ATOM      2  O   UNL     1      43.672   4.888   9.660  0.00  0.00    +0.000 OA
BRANCH   2   6
ATOM      3  C   UNL     1      46.319   2.308   7.832  0.00  0.00    +0.000 A 
ATOM      4  C   UNL     1      45.358   1.802   8.712  0.00  0.00    +0.000 A 
ATOM      5  C   UNL     1      44.468   2.685   9.330  0.00  0.00    +0.000 A 
ATOM      6  C   UNL     1      44.576   4.037   9.043  0.00  0.00    +0.000 A 
ATOM      7  N   UNL     1      45.501   4.551   8.208  0.00  0.00    +0.000 NA
ATOM      8  C   UNL     1      46.361   3.679   7.630  0.00  0.00    +0.000 A 
BRANCH   3  10
ATOM      9  N   UNL     1      48.343   2.099   6.507  0.00  0.00    +0.000 N 
ATOM     10  C   UNL     1      47.299   1.465   7.119  0.00  0.00    +0.000 C 
ATOM     11  O   UNL     1      47.208   0.245   7.112  0.00  0.00    +0.000 OA
ATOM     12  H   UNL     1      49.069   1.499   6.132  0.00  0.00    +0.000 HD
ATOM     13  H   UNL     1      48.594   3.055   6.715  0.00  0.00    +0.000 HD
ENDBRANCH   3  10
ENDBRANCH   2   6
ENDBRANCH   1   2
BRANCH   1  14
ATOM     14  C   UNL     1      45.108   4.726  11.604  0.00  0.00    +0.000 C 
BRANCH  14  15
ATOM     15  C   UNL     1      45.593   6.141  11.807  0.00  0.00    +0.000 A 
ATOM     16  C   UNL     1      46.933   6.399  12.109  0.00  0.00    +0.000 A 
ATOM     17  C   UNL     1      47.380   7.712  12.233  0.00  0.00    +0.000 A 
ATOM     18  C   UNL     1      46.496   8.777  12.035  0.00  0.00    +0.000 A 
ATOM     19  C   UNL     1      45.149   8.559  11.696  0.00  0.00    +0.000 A 
ATOM     20  C   UNL     1      44.718   7.223  11.606  0.00  0.00    +0.000 A 
BRANCH  19  21
ATOM     21  C   UNL     1      44.234   9.683  11.401  0.00  0.00    +0.000 A 
ATOM     22  C   UNL     1      43.052   9.521  10.663  0.00  0.00    +0.000 A 
ATOM     23  C   UNL     1      42.231  10.614  10.382  0.00  0.00    +0.000 A 
ATOM     24  C   UNL     1      42.606  11.858  10.856  0.00  0.00    +0.000 A 
ATOM     25  N   UNL     1      43.728  12.074  11.569  0.00  0.00    +0.000 NA
ATOM     26  C   UNL     1      44.509  10.991  11.814  0.00  0.00    +0.000 A 
ENDBRANCH  19  21
ENDBRANCH  14  15
ENDBRANCH   1  14
TORSDOF 6
ENDMDL
MODEL 5
REMARK VINA RESULT:    -6.938      2.942      8.605
REMARK INTER + INTRA:         -10.371
REMARK INTER:                  -9.738
REMARK INTRA:                  -0.632
REMARK UNBOUND:                -1.000
REMARK  Name = 
REMARK  6 active torsions:
REMARK  status: ('A' for Active; 'I' for Inactive)
REMARK    1  A    between atoms: C_2  and  C_4
REMARK    2  A    between atoms: C_7  and  O_8
REMARK    3  A    between atoms: O_8  and  C_9
REMARK    4  A    between atoms: C_9  and  C_10
REMARK    5  A    between atoms: C_10  and  C_11
REMARK    6  A    between atoms: C_15  and  C_16
REMARK                            x       y       z     vdW  Elec       q    Type
REMARK                         _______ _______ _______ _____ _____    ______ ____
ROOT
ATOM      1  C   UNL     1      46.816   5.040  13.812  0.00  0.00    +0.000 C 
ENDROOT
BRANCH   1   2
ATOM      2  O   UNL     1      46.635   3.988  14.769  0.00  0.00    +0.000 OA
BRANCH   2   6
ATOM      3  C   UNL     1      49.034   4.448  18.091  0.00  0.00    +0.000 A 
ATOM      4  C   UNL     1      48.141   3.375  18.028  0.00  0.00    +0.000 A 
ATOM      5  C   UNL     1      47.329   3.230  16.899  0.00  0.00    +0.000 A 
ATOM      6  C   UNL     1      47.443   4.164  15.881  0.00  0.00    +0.000 A 
ATOM      7  N   UNL     1      48.288   5.215  15.924  0.00  0.00    +0.000 NA
ATOM      8  C   UNL     1      49.056   5.342  17.031  0.00  0.00    +0.000 A 
BRANCH   3  10
ATOM      9  N   UNL     1      49.550   4.229  20.454  0.00  0.00    +0.000 N 
ATOM     10  C   UNL     1      49.943   4.689  19.229  0.00  0.00    +0.000 C 
ATOM     11  O   UNL     1      51.025   5.239  19.077  0.00  0.00    +0.000 OA
ATOM     12  H   UNL     1      50.238   4.292  21.195  0.00  0.00    +0.000 HD
ATOM     13  H   UNL     1      48.810   3.551  20.566  0.00  0.00    +0.000 HD
ENDBRANCH   3  10
ENDBRANCH   2   6
ENDBRANCH   1   2
BRANCH   1  14
ATOM     14  C   UNL     1      45.462   5.452  13.236  0.00  0.00    +0.000 C 
BRANCH  14  15
ATOM     15  C   UNL     1      44.920   4.380  12.323  0.00  0.00    +0.000 A 
ATOM     16  C   UNL     1      43.746   3.694  12.645  0.00  0.00    +0.000 A 
ATOM     17  C   UNL     1      43.225   2.750  11.764  0.00  0.00    +0.000 A 
ATOM     18  C   UNL     1      43.861   2.501  10.544  0.00  0.00    +0.000 A 
ATOM     19  C   UNL     1      45.024   3.195  10.168  0.00  0.00    +0.000 A 
ATOM     20  C   UNL     1      45.545   4.122  11.090  0.00  0.00    +0.000 A 
BRANCH  19  21
ATOM     21  C   UNL     1      45.649   2.996   8.842  0.00  0.00    +0.000 A 
ATOM     22  C   UNL     1      46.090   1.741   8.395  0.00  0.00    +0.000 A 
ATOM     23  C   UNL     1      46.701   1.602   7.149  0.00  0.00    +0.000 A 
ATOM     24  C   UNL     1      46.853   2.728   6.361  0.00  0.00    +0.000 A 
ATOM     25  N   UNL     1      46.450   3.957   6.736  0.00  0.00    +0.000 NA
ATOM     26  C   UNL     1      45.870   4.058   7.959  0.00  0.00    +0.000 A 
ENDBRANCH  19  21
ENDBRANCH  14  15
ENDBRANCH   1  14
TORSDOF 6
ENDMDL
MODEL 6
REMARK VINA RESULT:    -6.799      1.847      2.389
REMARK INTER + INTRA:         -10.183
REMARK INTER:                  -9.418
REMARK INTRA:                  -0.766
REMARK UNBOUND:                -1.000
REMARK  Name = 
REMARK  6 active torsions:
REMARK  status: ('A' for Active; 'I' for Inactive)
REMARK    1  A    between atoms: C_2  and  C_4
REMARK    2  A    between atoms: C_7  and  O_8
REMARK    3  A    between atoms: O_8  and  C_9
REMARK    4  A    between atoms: C_9  and  C_10
REMARK    5  A    between atoms: C_10  and  C_11
REMARK    6  A    between atoms: C_15  and  C_16
REMARK                            x       y       z     vdW  Elec       q    Type
REMARK                         _______ _______ _______ _____ _____    ______ ____
ROOT
ATOM      1  C   UNL     1      44.762   5.808  11.021  0.00  0.00    +0.000 C 
ENDROOT
BRANCH   1   2
ATOM      2  O   UNL     1      44.027   4.757  10.380  0.00  0.00    +0.000 OA
BRANCH   2   6
ATOM      3  C   UNL     1      46.364   2.549   7.797  0.00  0.00    +0.000 A 
ATOM      4  C   UNL     1      45.568   1.893   8.740  0.00  0.00    +0.000 A 
ATOM      5  C   UNL     1      44.782   2.651   9.614  0.00  0.00    +0.000 A 
ATOM      6  C   UNL     1      44.827   4.032   9.510  0.00  0.00    +0.000 A 
ATOM      7  N   UNL     1      45.596   4.689   8.618  0.00  0.00    +0.000 NA
ATOM      8  C   UNL     1      46.357   3.936   7.789  0.00  0.00    +0.000 A 
BRANCH   3  10
ATOM      9  N   UNL     1      48.182   2.585   6.188  0.00  0.00    +0.000 N 
ATOM     10  C   UNL     1      47.223   1.848   6.822  0.00  0.00    +0.000 C 
ATOM     11  O   UNL     1      47.111   0.646   6.620  0.00  0.00    +0.000 OA
ATOM     12  H   UNL     1      48.839   2.064   5.619  0.00  0.00    +0.000 HD
ATOM     13  H   UNL     1      48.475   3.493   6.519  0.00  0.00    +0.000 HD
ENDBRANCH   3  10
ENDBRANCH   2   6
ENDBRANCH   1   2
BRANCH   1  14
ATOM     14  C   UNL     1      45.651   5.222  12.117  0.00  0.00    +0.000 C 
BRANCH  14  15
ATOM     15  C   UNL     1      46.860   6.096  12.348  0.00  0.00    +0.000 A 
ATOM     16  C   UNL     1      47.453   6.789  11.289  0.00  0.00    +0.000 A 
ATOM     17  C   UNL     1      48.529   7.639  11.527  0.00  0.00    +0.000 A 
ATOM     18  C   UNL     1      49.007   7.822  12.828  0.00  0.00    +0.000 A 
ATOM     19  C   UNL     1      48.415   7.170  13.925  0.00  0.00    +0.000 A 
ATOM     20  C   UNL     1      47.348   6.294  13.652  0.00  0.00    +0.000 A 
BRANCH  19  21
ATOM     21  C   UNL     1      48.863   7.427  15.311  0.00  0.00    +0.000 A 
ATOM     22  C   UNL     1      49.727   6.562  15.999  0.00  0.00    +0.000 A 
ATOM     23  C   UNL     1      50.101   6.826  17.317  0.00  0.00    +0.000 A 
ATOM     24  C   UNL     1      49.608   7.967  17.924  0.00  0.00    +0.000 A 
ATOM     25  N   UNL     1      48.777   8.834  17.315  0.00  0.00    +0.000 NA
ATOM     26  C   UNL     1      48.424   8.539  16.037  0.00  0.00    +0.000 A 
ENDBRANCH  19  21
ENDBRANCH  14  15
ENDBRANCH   1  14
TORSDOF 6
ENDMDL
MODEL 7
REMARK VINA RESULT:    -6.639      3.879      6.439
REMARK INTER + INTRA:          -9.967
REMARK INTER:                  -9.348
REMARK INTRA:                  -0.619
REMARK UNBOUND:                -1.000
REMARK  Name = 
REMARK  6 active torsions:
REMARK  status: ('A' for Active; 'I' for Inactive)
REMARK    1  A    between atoms: C_2  and  C_4
REMARK    2  A    between atoms: C_7  and  O_8
REMARK    3  A    between atoms: O_8  and  C_9
REMARK    4  A    between atoms: C_9  and  C_10
REMARK    5  A    between atoms: C_10  and  C_11
REMARK    6  A    between atoms: C_15  and  C_16
REMARK                            x       y       z     vdW  Elec       q    Type
REMARK                         _______ _______ _______ _____ _____    ______ ____
ROOT
ATOM      1  C   UNL     1      47.309   3.842  15.888  0.00  0.00    +0.000 C 
ENDROOT
BRANCH   1   2
ATOM      2  O   UNL     1      47.458   3.309  14.565  0.00  0.00    +0.000 OA
BRANCH   2   6
ATOM      3  C   UNL     1      44.728   4.971  11.959  0.00  0.00    +0.000 A 
ATOM      4  C   UNL     1      45.477   5.802  12.797  0.00  0.00    +0.000 A 
ATOM      5  C   UNL     1      46.397   5.229  13.680  0.00  0.00    +0.000 A 
ATOM      6  C   UNL     1      46.529   3.849  13.689  0.00  0.00    +0.000 A 
ATOM      7  N   UNL     1      45.810   3.025  12.900  0.00  0.00    +0.000 NA
ATOM      8  C   UNL     1      44.917   3.601  12.061  0.00  0.00    +0.000 A 
BRANCH   3  10
ATOM      9  N   UNL     1      43.249   6.732  11.178  0.00  0.00    +0.000 N 
ATOM     10  C   UNL     1      43.739   5.471  10.984  0.00  0.00    +0.000 C 
ATOM     11  O   UNL     1      43.402   4.803  10.016  0.00  0.00    +0.000 OA
ATOM     12  H   UNL     1      42.670   7.103  10.434  0.00  0.00    +0.000 HD
ATOM     13  H   UNL     1      43.693   7.397  11.795  0.00  0.00    +0.000 HD
ENDBRANCH   3  10
ENDBRANCH   2   6
ENDBRANCH   1   2
BRANCH   1  14
ATOM     14  C   UNL     1      48.028   2.940  16.890  0.00  0.00    +0.000 C 
BRANCH  14  15
ATOM     15  C   UNL     1      49.420   3.454  17.169  0.00  0.00    +0.000 A 
ATOM     16  C   UNL     1      49.671   4.827  17.248  0.00  0.00    +0.000 A 
ATOM     17  C   UNL     1      50.947   5.286  17.567  0.00  0.00    +0.000 A 
ATOM     18  C   UNL     1      51.976   4.377  17.830  0.00  0.00    +0.000 A 
ATOM     19  C   UNL     1      51.755   2.988  17.794  0.00  0.00    +0.000 A 
ATOM     20  C   UNL     1      50.464   2.552  17.441  0.00  0.00    +0.000 A 
BRANCH  19  21
ATOM     21  C   UNL     1      52.818   2.026  18.157  0.00  0.00    +0.000 A 
ATOM     22  C   UNL     1      52.929   0.762  17.559  0.00  0.00    +0.000 A 
ATOM     23  C   UNL     1      53.929  -0.128  17.951  0.00  0.00    +0.000 A 
ATOM     24  C   UNL     1      54.816   0.271  18.935  0.00  0.00    +0.000 A 
ATOM     25  N   UNL     1      54.760   1.471  19.543  0.00  0.00    +0.000 NA
ATOM     26  C   UNL     1      53.766   2.307  19.146  0.00  0.00    +0.000 A 
ENDBRANCH  19  21
ENDBRANCH  14  15
ENDBRANCH   1  14
TORSDOF 6
ENDMDL
MODEL 8
REMARK VINA RESULT:    -6.530      3.778      7.562
REMARK INTER + INTRA:          -9.820
REMARK INTER:                  -8.939
REMARK INTRA:                  -0.880
REMARK UNBOUND:                -1.000
REMARK  Name = 
REMARK  6 active torsions:
REMARK  status: ('A' for Active; 'I' for Inactive)
REMARK    1  A    between atoms: C_2  and  C_4
REMARK    2  A    between atoms: C_7  and  O_8
REMARK    3  A    between atoms: O_8  and  C_9
REMARK    4  A    between atoms: C_9  and  C_10
REMARK    5  A    between atoms: C_10  and  C_11
REMARK    6  A    between atoms: C_15  and  C_16
REMARK                            x       y       z     vdW  Elec       q    Type
REMARK                         _______ _______ _______ _____ _____    ______ ____
ROOT
ATOM      1  C   UNL     1      49.457   7.335  13.275  0.00  0.00    +0.000 C 
ENDROOT
BRANCH   1   2
ATOM      2  O   UNL     1      49.178   7.753  14.618  0.00  0.00    +0.000 OA
BRANCH   2   6
ATOM      3  C   UNL     1      48.028   4.621  17.041  0.00  0.00    +0.000 A 
ATOM      4  C   UNL     1      48.782   5.667  17.577  0.00  0.00    +0.000 A 
ATOM      5  C   UNL     1      49.171   6.723  16.747  0.00  0.00    +0.000 A 
ATOM      6  C   UNL     1      48.790   6.687  15.414  0.00  0.00    +0.000 A 
ATOM      7  N   UNL     1      48.073   5.683  14.870  0.00  0.00    +0.000 NA
ATOM      8  C   UNL     1      47.717   4.665  15.690  0.00  0.00    +0.000 A 
BRANCH   3  10
ATOM      9  N   UNL     1      48.249   3.158  18.967  0.00  0.00    +0.000 N 
ATOM     10  C   UNL     1      47.557   3.465  17.829  0.00  0.00    +0.000 C 
ATOM     11  O   UNL     1      46.561   2.832  17.504  0.00  0.00    +0.000 OA
ATOM     12  H   UNL     1      47.839   2.444  19.558  0.00  0.00    +0.000 HD
ATOM     13  H   UNL     1      48.893   3.804  19.400  0.00  0.00    +0.000 HD
ENDBRANCH   3  10
ENDBRANCH   2   6
ENDBRANCH   1   2
BRANCH   1  14
ATOM     14  C   UNL     1      48.909   8.367  12.290  0.00  0.00    +0.000 C 
BRANCH  14  15
ATOM     15  C   UNL     1      47.408   8.257  12.181  0.00  0.00    +0.000 A 
ATOM     16  C   UNL     1      46.617   9.400  12.030  0.00  0.00    +0.000 A 
ATOM     17  C   UNL     1      45.240   9.279  11.869  0.00  0.00    +0.000 A 
ATOM     18  C   UNL     1      44.643   8.015  11.835  0.00  0.00    +0.000 A 
ATOM     19  C   UNL     1      45.408   6.840  11.947  0.00  0.00    +0.000 A 
ATOM     20  C   UNL     1      46.794   6.992  12.139  0.00  0.00    +0.000 A 
BRANCH  19  21
ATOM     21  C   UNL     1      44.792   5.502  11.824  0.00  0.00    +0.000 A 
ATOM     22  C   UNL     1      44.530   4.901  10.584  0.00  0.00    +0.000 A 
ATOM     23  C   UNL     1      43.921   3.648  10.511  0.00  0.00    +0.000 A 
ATOM     24  C   UNL     1      43.589   3.009  11.692  0.00  0.00    +0.000 A 
ATOM     25  N   UNL     1      43.816   3.535  12.911  0.00  0.00    +0.000 NA
ATOM     26  C   UNL     1      44.400   4.760  12.944  0.00  0.00    +0.000 A 
ENDBRANCH  19  21
ENDBRANCH  14  15
ENDBRANCH   1  14
TORSDOF 6
ENDMDL
MODEL 9
REMARK VINA RESULT:    -6.439      3.141      7.442
REMARK INTER + INTRA:          -9.697
REMARK INTER:                  -9.044
REMARK INTRA:                  -0.653
REMARK UNBOUND:                -1.000
REMARK  Name = 
REMARK  6 active torsions:
REMARK  status: ('A' for Active; 'I' for Inactive)
REMARK    1  A    between atoms: C_2  and  C_4
REMARK    2  A    between atoms: C_7  and  O_8
REMARK    3  A    between atoms: O_8  and  C_9
REMARK    4  A    between atoms: C_9  and  C_10
REMARK    5  A    between atoms: C_10  and  C_11
REMARK    6  A    between atoms: C_15  and  C_16
REMARK                            x       y       z     vdW  Elec       q    Type
REMARK                         _______ _______ _______ _____ _____    ______ ____
ROOT
ATOM      1  C   UNL     1      45.107   6.838  12.630  0.00  0.00    +0.000 C 
ENDROOT
BRANCH   1   2
ATOM      2  O   UNL     1      46.312   6.065  12.550  0.00  0.00    +0.000 OA
BRANCH   2   6
ATOM      3  C   UNL     1      49.623   8.523  12.507  0.00  0.00    +0.000 A 
ATOM      4  C   UNL     1      48.417   8.981  11.971  0.00  0.00    +0.000 A 
ATOM      5  C   UNL     1      47.301   8.138  11.986  0.00  0.00    +0.000 A 
ATOM      6  C   UNL     1      47.438   6.873  12.536  0.00  0.00    +0.000 A 
ATOM      7  N   UNL     1      48.593   6.404  13.048  0.00  0.00    +0.000 NA
ATOM      8  C   UNL     1      49.664   7.232  13.012  0.00  0.00    +0.000 A 
BRANCH   3  10
ATOM      9  N   UNL     1      51.717   9.107  13.589  0.00  0.00    +0.000 N 
ATOM     10  C   UNL     1      50.857   9.332  12.551  0.00  0.00    +0.000 C 
ATOM     11  O   UNL     1      51.124  10.140  11.672  0.00  0.00    +0.000 OA
ATOM     12  H   UNL     1      52.612   9.579  13.535  0.00  0.00    +0.000 HD
ATOM     13  H   UNL     1      51.663   8.281  14.169  0.00  0.00    +0.000 HD
ENDBRANCH   3  10
ENDBRANCH   2   6
ENDBRANCH   1   2
BRANCH   1  14
ATOM     14  C   UNL     1      44.235   6.562  11.405  0.00  0.00    +0.000 C 
BRANCH  14  15
ATOM     15  C   UNL     1      44.242   5.092  11.065  0.00  0.00    +0.000 A 
ATOM     16  C   UNL     1      43.419   4.196  11.751  0.00  0.00    +0.000 A 
ATOM     17  C   UNL     1      43.390   2.853  11.385  0.00  0.00    +0.000 A 
ATOM     18  C   UNL     1      44.168   2.399  10.316  0.00  0.00    +0.000 A 
ATOM     19  C   UNL     1      44.983   3.275   9.578  0.00  0.00    +0.000 A 
ATOM     20  C   UNL     1      45.015   4.621   9.988  0.00  0.00    +0.000 A 
BRANCH  19  21
ATOM     21  C   UNL     1      45.739   2.815   8.393  0.00  0.00    +0.000 A 
ATOM     22  C   UNL     1      46.228   1.505   8.270  0.00  0.00    +0.000 A 
ATOM     23  C   UNL     1      46.962   1.120   7.149  0.00  0.00    +0.000 A 
ATOM     24  C   UNL     1      47.188   2.057   6.156  0.00  0.00    +0.000 A 
ATOM     25  N   UNL     1      46.744   3.327   6.218  0.00  0.00    +0.000 NA
ATOM     26  C   UNL     1      46.043   3.670   7.329  0.00  0.00    +0.000 A 
ENDBRANCH  19  21
ENDBRANCH  14  15
ENDBRANCH   1  14
TORSDOF 6
ENDMDL
