MODEL 1
REMARK VINA RESULT:    -7.956      0.000      0.000
REMARK INTER + INTRA:         -10.649
REMARK INTER:                 -10.049
REMARK INTRA:                  -0.600
REMARK UNBOUND:                -0.600
REMARK  Name = 
REMARK  5 active torsions:
REMARK  status: ('A' for Active; 'I' for Inactive)
REMARK    1  A    between atoms: C_2  and  C_3
REMARK    2  A    between atoms: C_6  and  N_7
REMARK    3  A    between atoms: N_7  and  C_8
REMARK    4  A    between atoms: C_8  and  C_9
REMARK    5  A    between atoms: C_17  and  N_18
REMARK                            x       y       z     vdW  Elec       q    Type
REMARK                         _______ _______ _______ _____ _____    ______ ____
ROOT
ATOM      1  C   UNL     1      44.944   4.190  12.479  0.00  0.00    +0.000 A 
ATOM      2  C   UNL     1      45.779   3.178  12.906  0.00  0.00    +0.000 A 
ATOM      3  C   UNL     1      46.947   3.579  13.507  0.00  0.00    +0.000 A 
ATOM      4  N   UNL     1      47.290   4.861  13.683  0.00  0.00    +0.000 NA
ATOM      5  C   UNL     1      46.441   5.803  13.247  0.00  0.00    +0.000 A 
ATOM      6  N   UNL     1      46.818   7.123  13.339  0.00  0.00    +0.000 N 
ATOM      7  C   UNL     1      45.891   8.174  12.959  0.00  0.00    +0.000 C 
ATOM      8  C   UNL     1      46.565   9.109  11.956  0.00  0.00    +0.000 C 
ATOM      9  C   UNL     1      47.919   9.623  12.455  0.00  0.00    +0.000 C 
ATOM     10  C   UNL     1      48.813   8.443  12.852  0.00  0.00    +0.000 C 
ATOM     11  C   UNL     1      48.132   7.499  13.846  0.00  0.00    +0.000 C 
ATOM     12  N   UNL     1      45.268   5.491  12.665  0.00  0.00    +0.000 NA
ENDROOT
BRANCH   9  13
ATOM     13  N   UNL     1      47.773  10.577  13.561  0.00  0.00    +0.000 NA
ATOM     14  H   UNL     1      47.453  11.481  13.214  0.00  0.00    +0.000 HD
ATOM     15  H   UNL     1      48.684  10.749  13.987  0.00  0.00    +0.000 HD
ENDBRANCH   9  13
BRANCH   1  16
ATOM     16  C   UNL     1      43.680   3.877  11.682  0.00  0.00    +0.000 C 
BRANCH  16  17
ATOM     17  N   UNL     1      43.762   4.273  10.275  0.00  0.00    +0.000 N 
ATOM     18  H   UNL     1      42.873   4.525   9.852  0.00  0.00    +0.000 HD
BRANCH  17  22
ATOM     19  C   UNL     1      46.576   2.542   7.613  0.00  0.00    +0.000 A 
ATOM     20  C   UNL     1      45.813   1.719   8.444  0.00  0.00    +0.000 A 
ATOM     21  C   UNL     1      44.868   2.272   9.328  0.00  0.00    +0.000 A 
ATOM     22  C   UNL     1      44.636   3.652   9.381  0.00  0.00    +0.000 A 
ATOM     23  C   UNL     1      45.425   4.463   8.545  0.00  0.00    +0.000 A 
ATOM     24  C   UNL     1      46.380   3.923   7.672  0.00  0.00    +0.000 A 
BRANCH  19  26
ATOM     25  N   UNL     1      48.348   1.523   6.006  0.00  0.00    +0.000 NA
ATOM     26  C   UNL     1      47.554   1.979   6.727  0.00  0.00    +0.000 C 
ENDBRANCH  19  26
ENDBRANCH  17  22
ENDBRANCH  16  17
ENDBRANCH   1  16
TORSDOF 5
ENDMDL
MODEL 2
REMARK VINA RESULT:    -7.870      2.236      3.745
REMARK INTER + INTRA:         -10.540
REMARK INTER:                 -10.111
REMARK INTRA:                  -0.429
REMARK UNBOUND:                -0.600
REMARK  Name = 
REMARK  5 active torsions:
REMARK  status: ('A' for Active; 'I' for Inactive)
REMARK    1  A    between atoms: C_2  and  C_3
REMARK    2  A    between atoms: C_6  and  N_7
REMARK    3  A    between atoms: N_7  and  C_8
REMARK    4  A    between atoms: C_8  and  C_9
REMARK    5  A    between atoms: C_17  and  N_18
REMARK                            x       y       z     vdW  Elec       q    Type
REMARK                         _______ _______ _______ _____ _____    ______ ____
ROOT
ATOM      1  C   UNL     1      45.451   4.599  12.635  0.00  0.00    +0.000 A 
ATOM      2  C   UNL     1      45.564   5.893  12.167  0.00  0.00    +0.000 A 
ATOM      3  C   UNL     1      46.448   6.699  12.843  0.00  0.00    +0.000 A 
ATOM      4  N   UNL     1      47.169   6.293  13.896  0.00  0.00    +0.000 NA
ATOM      5  C   UNL     1      47.017   5.026  14.309  0.00  0.00    +0.000 A 
ATOM      6  N   UNL     1      47.682   4.618  15.442  0.00  0.00    +0.000 N 
ATOM      7  C   UNL     1      47.612   3.232  15.869  0.00  0.00    +0.000 C 
ATOM      8  C   UNL     1      47.179   3.173  17.334  0.00  0.00    +0.000 C 
ATOM      9  C   UNL     1      48.044   4.061  18.235  0.00  0.00    +0.000 C 
ATOM     10  C   UNL     1      48.073   5.492  17.687  0.00  0.00    +0.000 C 
ATOM     11  C   UNL     1      48.492   5.550  16.217  0.00  0.00    +0.000 C 
ATOM     12  N   UNL     1      46.186   4.169  13.687  0.00  0.00    +0.000 NA
ENDROOT
BRANCH   9  13
ATOM     13  N   UNL     1      49.401   3.524  18.399  0.00  0.00    +0.000 NA
ATOM     14  H   UNL     1      49.764   3.746  19.325  0.00  0.00    +0.000 HD
ATOM     15  H   UNL     1      50.030   3.978  17.737  0.00  0.00    +0.000 HD
ENDBRANCH   9  13
BRANCH   1  16
ATOM     16  C   UNL     1      44.411   3.646  12.054  0.00  0.00    +0.000 C 
BRANCH  16  17
ATOM     17  N   UNL     1      44.085   3.919  10.653  0.00  0.00    +0.000 N 
ATOM     18  H   UNL     1      43.091   3.935  10.444  0.00  0.00    +0.000 HD
BRANCH  17  22
ATOM     19  C   UNL     1      46.588   2.559   7.509  0.00  0.00    +0.000 A 
ATOM     20  C   UNL     1      45.972   1.632   8.353  0.00  0.00    +0.000 A 
ATOM     21  C   UNL     1      45.131   2.061   9.397  0.00  0.00    +0.000 A 
ATOM     22  C   UNL     1      44.857   3.418   9.602  0.00  0.00    +0.000 A 
ATOM     23  C   UNL     1      45.497   4.335   8.750  0.00  0.00    +0.000 A 
ATOM     24  C   UNL     1      46.349   3.918   7.717  0.00  0.00    +0.000 A 
BRANCH  19  26
ATOM     25  N   UNL     1      48.173   1.767   5.606  0.00  0.00    +0.000 NA
ATOM     26  C   UNL     1      47.462   2.121   6.459  0.00  0.00    +0.000 C 
ENDBRANCH  19  26
ENDBRANCH  17  22
ENDBRANCH  16  17
ENDBRANCH   1  16
TORSDOF 5
ENDMDL
MODEL 3
REMARK VINA RESULT:    -7.007      1.542      2.512
REMARK INTER + INTRA:          -9.450
REMARK INTER:                  -9.052
REMARK INTRA:                  -0.398
REMARK UNBOUND:                -0.600
REMARK  Name = 
REMARK  5 active torsions:
REMARK  status: ('A' for Active; 'I' for Inactive)
REMARK    1  A    between atoms: C_2  and  C_3
REMARK    2  A    between atoms: C_6  and  N_7
REMARK    3  A    between atoms: N_7  and  C_8
REMARK    4  A    between atoms: C_8  and  C_9
REMARK    5  A    between atoms: C_17  and  N_18
REMARK                            x       y       z     vdW  Elec       q    Type
REMARK                         _______ _______ _______ _____ _____    ______ ____
ROOT
ATOM      1  C   UNL     1      44.701   5.704  11.774  0.00  0.00    +0.000 A 
ATOM      2  C   UNL     1      43.955   6.758  11.286  0.00  0.00    +0.000 A 
ATOM      3  C   UNL     1      44.470   8.011  11.512  0.00  0.00    +0.000 A 
ATOM      4  N   UNL     1      45.618   8.237  12.164  0.00  0.00    +0.000 NA
ATOM      5  C   UNL     1      46.301   7.175  12.618  0.00  0.00    +0.000 A 
ATOM      6  N   UNL     1      47.435   7.392  13.365  0.00  0.00    +0.000 N 
ATOM      7  C   UNL     1      48.248   6.269  13.798  0.00  0.00    +0.000 C 
ATOM      8  C   UNL     1      48.467   6.353  15.308  0.00  0.00    +0.000 C 
ATOM      9  C   UNL     1      49.006   7.719  15.746  0.00  0.00    +0.000 C 
ATOM     10  C   UNL     1      48.095   8.833  15.221  0.00  0.00    +0.000 C 
ATOM     11  C   UNL     1      47.864   8.741  13.711  0.00  0.00    +0.000 C 
ATOM     12  N   UNL     1      45.872   5.915  12.419  0.00  0.00    +0.000 NA
ENDROOT
BRANCH   9  13
ATOM     13  N   UNL     1      50.397   7.923  15.324  0.00  0.00    +0.000 NA
ATOM     14  H   UNL     1      50.636   7.293  14.559  0.00  0.00    +0.000 HD
ATOM     15  H   UNL     1      51.026   7.682  16.090  0.00  0.00    +0.000 HD
ENDBRANCH   9  13
BRANCH   1  16
ATOM     16  C   UNL     1      44.174   4.274  11.701  0.00  0.00    +0.000 C 
BRANCH  16  17
ATOM     17  N   UNL     1      43.733   3.879  10.362  0.00  0.00    +0.000 N 
ATOM     18  H   UNL     1      42.814   3.449  10.327  0.00  0.00    +0.000 HD
BRANCH  17  22
ATOM     19  C   UNL     1      46.568   2.465   7.539  0.00  0.00    +0.000 A 
ATOM     20  C   UNL     1      45.910   1.558   8.373  0.00  0.00    +0.000 A 
ATOM     21  C   UNL     1      44.960   2.005   9.310  0.00  0.00    +0.000 A 
ATOM     22  C   UNL     1      44.618   3.358   9.415  0.00  0.00    +0.000 A 
ATOM     23  C   UNL     1      45.302   4.256   8.576  0.00  0.00    +0.000 A 
ATOM     24  C   UNL     1      46.261   3.822   7.649  0.00  0.00    +0.000 A 
BRANCH  19  26
ATOM     25  N   UNL     1      48.348   1.642   5.833  0.00  0.00    +0.000 NA
ATOM     26  C   UNL     1      47.551   2.010   6.599  0.00  0.00    +0.000 C 
ENDBRANCH  19  26
ENDBRANCH  17  22
ENDBRANCH  16  17
ENDBRANCH   1  16
TORSDOF 5
ENDMDL
MODEL 4
REMARK VINA RESULT:    -6.178      4.282      7.855
REMARK INTER + INTRA:          -8.404
REMARK INTER:                  -8.060
REMARK INTRA:                  -0.343
REMARK UNBOUND:                -0.600
REMARK  Name = 
REMARK  5 active torsions:
REMARK  status: ('A' for Active; 'I' for Inactive)
REMARK    1  A    between atoms: C_2  and  C_3
REMARK    2  A    between atoms: C_6  and  N_7
REMARK    3  A    between atoms: N_7  and  C_8
REMARK    4  A    between atoms: C_8  and  C_9
REMARK    5  A    between atoms: C_17  and  N_18
REMARK                            x       y       z     vdW  Elec       q    Type
REMARK                         _______ _______ _______ _____ _____    ______ ____
ROOT
ATOM      1  C   UNL     1      47.367   4.673  15.256  0.00  0.00    +0.000 A 
ATOM      2  C   UNL     1      48.184   5.783  15.340  0.00  0.00    +0.000 A 
ATOM      3  C   UNL     1      48.064   6.693  14.318  0.00  0.00    +0.000 A 
ATOM      4  N   UNL     1      47.223   6.546  13.286  0.00  0.00    +0.000 NA
ATOM      5  C   UNL     1      46.455   5.447  13.255  0.00  0.00    +0.000 A 
ATOM      6  N   UNL     1      45.651   5.236  12.159  0.00  0.00    +0.000 N 
ATOM      7  C   UNL     1      44.742   4.104  12.129  0.00  0.00    +0.000 C 
ATOM      8  C   UNL     1      44.965   3.306  10.845  0.00  0.00    +0.000 C 
ATOM      9  C   UNL     1      44.907   4.186   9.592  0.00  0.00    +0.000 C 
ATOM     10  C   UNL     1      45.881   5.361   9.733  0.00  0.00    +0.000 C 
ATOM     11  C   UNL     1      45.667   6.151  11.025  0.00  0.00    +0.000 C 
ATOM     12  N   UNL     1      46.500   4.518  14.229  0.00  0.00    +0.000 NA
ENDROOT
BRANCH   9  13
ATOM     13  N   UNL     1      43.544   4.654   9.310  0.00  0.00    +0.000 NA
ATOM     14  H   UNL     1      43.520   5.671   9.251  0.00  0.00    +0.000 HD
ATOM     15  H   UNL     1      42.930   4.405  10.085  0.00  0.00    +0.000 HD
ENDBRANCH   9  13
BRANCH   1  16
ATOM     16  C   UNL     1      47.498   3.530  16.258  0.00  0.00    +0.000 C 
BRANCH  16  17
ATOM     17  N   UNL     1      48.398   3.828  17.374  0.00  0.00    +0.000 N 
ATOM     18  H   UNL     1      48.344   4.781  17.720  0.00  0.00    +0.000 HD
BRANCH  17  22
ATOM     19  C   UNL     1      52.328   2.291  17.815  0.00  0.00    +0.000 A 
ATOM     20  C   UNL     1      51.312   1.464  17.329  0.00  0.00    +0.000 A 
ATOM     21  C   UNL     1      50.004   1.957  17.167  0.00  0.00    +0.000 A 
ATOM     22  C   UNL     1      49.684   3.289  17.451  0.00  0.00    +0.000 A 
ATOM     23  C   UNL     1      50.718   4.101  17.952  0.00  0.00    +0.000 A 
ATOM     24  C   UNL     1      52.022   3.615  18.132  0.00  0.00    +0.000 A 
BRANCH  19  26
ATOM     25  N   UNL     1      54.735   1.367  18.147  0.00  0.00    +0.000 NA
ATOM     26  C   UNL     1      53.656   1.782  17.999  0.00  0.00    +0.000 C 
ENDBRANCH  19  26
ENDBRANCH  17  22
ENDBRANCH  16  17
ENDBRANCH   1  16
TORSDOF 5
ENDMDL
MODEL 5
REMARK VINA RESULT:    -6.024      3.207      5.290
REMARK INTER + INTRA:          -8.208
REMARK INTER:                  -7.768
REMARK INTRA:                  -0.440
REMARK UNBOUND:                -0.600
REMARK  Name = 
REMARK  5 active torsions:
REMARK  status: ('A' for Active; 'I' for Inactive)
REMARK    1  A    between atoms: C_2  and  C_3
REMARK    2  A    between atoms: C_6  and  N_7
REMARK    3  A    between atoms: N_7  and  C_8
REMARK    4  A    between atoms: C_8  and  C_9
REMARK    5  A    between atoms: C_17  and  N_18
REMARK                            x       y       z     vdW  Elec       q    Type
REMARK                         _______ _______ _______ _____ _____    ______ ____
ROOT
ATOM      1  C   UNL     1      48.241   7.496  13.779  0.00  0.00    +0.000 A 
ATOM      2  C   UNL     1      49.441   8.139  13.550  0.00  0.00    +0.000 A 
ATOM      3  C   UNL     1      50.468   7.809  14.401  0.00  0.00    +0.000 A 
ATOM      4  N   UNL     1      50.351   6.927  15.402  0.00  0.00    +0.000 NA
ATOM      5  C   UNL     1      49.161   6.334  15.579  0.00  0.00    +0.000 A 
ATOM      6  N   UNL     1      48.997   5.494  16.655  0.00  0.00    +0.000 N 
ATOM      7  C   UNL     1      47.753   4.765  16.829  0.00  0.00    +0.000 C 
ATOM      8  C   UNL     1      47.212   5.013  18.236  0.00  0.00    +0.000 C 
ATOM      9  C   UNL     1      48.256   4.731  19.322  0.00  0.00    +0.000 C 
ATOM     10  C   UNL     1      49.535   5.525  19.035  0.00  0.00    +0.000 C 
ATOM     11  C   UNL     1      50.069   5.288  17.622  0.00  0.00    +0.000 C 
ATOM     12  N   UNL     1      48.111   6.589  14.775  0.00  0.00    +0.000 NA
ENDROOT
BRANCH   9  13
ATOM     13  N   UNL     1      48.537   3.297  19.458  0.00  0.00    +0.000 NA
ATOM     14  H   UNL     1      47.728   2.745  19.174  0.00  0.00    +0.000 HD
ATOM     15  H   UNL     1      48.697   3.072  20.440  0.00  0.00    +0.000 HD
ENDBRANCH   9  13
BRANCH   1  16
ATOM     16  C   UNL     1      46.991   7.870  12.987  0.00  0.00    +0.000 C 
BRANCH  16  17
ATOM     17  N   UNL     1      45.841   7.009  13.268  0.00  0.00    +0.000 N 
ATOM     18  H   UNL     1      45.664   6.845  14.255  0.00  0.00    +0.000 HD
BRANCH  17  22
ATOM     19  C   UNL     1      45.033   3.747  10.678  0.00  0.00    +0.000 A 
ATOM     20  C   UNL     1      45.149   3.527  12.053  0.00  0.00    +0.000 A 
ATOM     21  C   UNL     1      45.408   4.596  12.930  0.00  0.00    +0.000 A 
ATOM     22  C   UNL     1      45.523   5.912  12.465  0.00  0.00    +0.000 A 
ATOM     23  C   UNL     1      45.416   6.109  11.077  0.00  0.00    +0.000 A 
ATOM     24  C   UNL     1      45.174   5.048  10.192  0.00  0.00    +0.000 A 
BRANCH  19  26
ATOM     25  N   UNL     1      44.594   1.766   9.053  0.00  0.00    +0.000 NA
ATOM     26  C   UNL     1      44.790   2.653   9.782  0.00  0.00    +0.000 C 
ENDBRANCH  19  26
ENDBRANCH  17  22
ENDBRANCH  16  17
ENDBRANCH   1  16
TORSDOF 5
ENDMDL
MODEL 6
REMARK VINA RESULT:    -5.976      3.385      7.553
REMARK INTER + INTRA:          -8.149
REMARK INTER:                  -7.723
REMARK INTRA:                  -0.426
REMARK UNBOUND:                -0.600
REMARK  Name = 
REMARK  5 active torsions:
REMARK  status: ('A' for Active; 'I' for Inactive)
REMARK    1  A    between atoms: C_2  and  C_3
REMARK    2  A    between atoms: C_6  and  N_7
REMARK    3  A    between atoms: N_7  and  C_8
REMARK    4  A    between atoms: C_8  and  C_9
REMARK    5  A    between atoms: C_17  and  N_18
REMARK                            x       y       z     vdW  Elec       q    Type
REMARK                         _______ _______ _______ _____ _____    ______ ____
ROOT
ATOM      1  C   UNL     1      48.248   7.140  14.096  0.00  0.00    +0.000 A 
ATOM      2  C   UNL     1      48.983   7.818  13.144  0.00  0.00    +0.000 A 
ATOM      3  C   UNL     1      48.515   7.735  11.856  0.00  0.00    +0.000 A 
ATOM      4  N   UNL     1      47.421   7.047  11.504  0.00  0.00    +0.000 NA
ATOM      5  C   UNL     1      46.747   6.406  12.470  0.00  0.00    +0.000 A 
ATOM      6  N   UNL     1      45.674   5.623  12.116  0.00  0.00    +0.000 N 
ATOM      7  C   UNL     1      44.866   4.985  13.140  0.00  0.00    +0.000 C 
ATOM      8  C   UNL     1      44.755   3.490  12.843  0.00  0.00    +0.000 C 
ATOM      9  C   UNL     1      44.280   3.213  11.412  0.00  0.00    +0.000 C 
ATOM     10  C   UNL     1      45.179   3.947  10.411  0.00  0.00    +0.000 C 
ATOM     11  C   UNL     1      45.302   5.441  10.718  0.00  0.00    +0.000 C 
ATOM     12  N   UNL     1      47.130   6.455  13.760  0.00  0.00    +0.000 NA
ENDROOT
BRANCH   9  13
ATOM     13  N   UNL     1      42.869   3.566  11.221  0.00  0.00    +0.000 NA
ATOM     14  H   UNL     1      42.716   3.935  10.283  0.00  0.00    +0.000 HD
ATOM     15  H   UNL     1      42.615   4.319  11.861  0.00  0.00    +0.000 HD
ENDBRANCH   9  13
BRANCH   1  16
ATOM     16  C   UNL     1      48.735   7.048  15.539  0.00  0.00    +0.000 C 
BRANCH  16  17
ATOM     17  N   UNL     1      48.182   5.907  16.272  0.00  0.00    +0.000 N 
ATOM     18  H   UNL     1      47.444   6.141  16.929  0.00  0.00    +0.000 HD
BRANCH  17  22
ATOM     19  C   UNL     1      50.550   2.570  17.395  0.00  0.00    +0.000 A 
ATOM     20  C   UNL     1      51.072   3.860  17.515  0.00  0.00    +0.000 A 
ATOM     21  C   UNL     1      50.300   4.981  17.156  0.00  0.00    +0.000 A 
ATOM     22  C   UNL     1      48.982   4.846  16.704  0.00  0.00    +0.000 A 
ATOM     23  C   UNL     1      48.481   3.538  16.578  0.00  0.00    +0.000 A 
ATOM     24  C   UNL     1      49.248   2.414  16.918  0.00  0.00    +0.000 A 
BRANCH  19  26
ATOM     25  N   UNL     1      51.989   0.497  18.021  0.00  0.00    +0.000 NA
ATOM     26  C   UNL     1      51.345   1.427  17.741  0.00  0.00    +0.000 C 
ENDBRANCH  19  26
ENDBRANCH  17  22
ENDBRANCH  16  17
ENDBRANCH   1  16
TORSDOF 5
ENDMDL
MODEL 7
REMARK VINA RESULT:    -5.961      3.225      8.159
REMARK INTER + INTRA:          -8.129
REMARK INTER:                  -7.714
REMARK INTRA:                  -0.416
REMARK UNBOUND:                -0.600
REMARK  Name = 
REMARK  5 active torsions:
REMARK  status: ('A' for Active; 'I' for Inactive)
REMARK    1  A    between atoms: C_2  and  C_3
REMARK    2  A    between atoms: C_6  and  N_7
REMARK    3  A    between atoms: N_7  and  C_8
REMARK    4  A    between atoms: C_8  and  C_9
REMARK    5  A    between atoms: C_17  and  N_18
REMARK                            x       y       z     vdW  Elec       q    Type
REMARK                         _______ _______ _______ _____ _____    ______ ____
ROOT
ATOM      1  C   UNL     1      47.042   7.964  13.436  0.00  0.00    +0.000 A 
ATOM      2  C   UNL     1      46.653   9.138  12.823  0.00  0.00    +0.000 A 
ATOM      3  C   UNL     1      45.526   9.061  12.041  0.00  0.00    +0.000 A 
ATOM      4  N   UNL     1      44.823   7.936  11.859  0.00  0.00    +0.000 NA
ATOM      5  C   UNL     1      45.248   6.824  12.478  0.00  0.00    +0.000 A 
ATOM      6  N   UNL     1      44.591   5.641  12.232  0.00  0.00    +0.000 N 
ATOM      7  C   UNL     1      44.965   4.436  12.950  0.00  0.00    +0.000 C 
ATOM      8  C   UNL     1      45.239   3.313  11.951  0.00  0.00    +0.000 C 
ATOM      9  C   UNL     1      44.085   3.116  10.962  0.00  0.00    +0.000 C 
ATOM     10  C   UNL     1      43.752   4.446  10.276  0.00  0.00    +0.000 C 
ATOM     11  C   UNL     1      43.492   5.573  11.277  0.00  0.00    +0.000 C 
ATOM     12  N   UNL     1      46.332   6.823  13.276  0.00  0.00    +0.000 NA
ENDROOT
BRANCH   9  13
ATOM     13  N   UNL     1      42.900   2.536  11.606  0.00  0.00    +0.000 NA
ATOM     14  H   UNL     1      42.368   1.977  10.939  0.00  0.00    +0.000 HD
ATOM     15  H   UNL     1      42.273   3.282  11.905  0.00  0.00    +0.000 HD
ENDBRANCH   9  13
BRANCH   1  16
ATOM     16  C   UNL     1      48.346   7.889  14.224  0.00  0.00    +0.000 C 
BRANCH  16  17
ATOM     17  N   UNL     1      48.676   6.539  14.684  0.00  0.00    +0.000 N 
ATOM     18  H   UNL     1      48.372   5.793  14.065  0.00  0.00    +0.000 HD
BRANCH  17  22
ATOM     19  C   UNL     1      48.584   5.246  18.724  0.00  0.00    +0.000 A 
ATOM     20  C   UNL     1      49.180   6.467  18.402  0.00  0.00    +0.000 A 
ATOM     21  C   UNL     1      49.214   6.919  17.069  0.00  0.00    +0.000 A 
ATOM     22  C   UNL     1      48.626   6.183  16.034  0.00  0.00    +0.000 A 
ATOM     23  C   UNL     1      48.043   4.950  16.378  0.00  0.00    +0.000 A 
ATOM     24  C   UNL     1      48.018   4.484  17.700  0.00  0.00    +0.000 A 
BRANCH  19  26
ATOM     25  N   UNL     1      48.556   4.393  21.180  0.00  0.00    +0.000 NA
ATOM     26  C   UNL     1      48.569   4.777  20.080  0.00  0.00    +0.000 C 
ENDBRANCH  19  26
ENDBRANCH  17  22
ENDBRANCH  16  17
ENDBRANCH   1  16
TORSDOF 5
ENDMDL
MODEL 8
REMARK VINA RESULT:    -5.844      3.478      7.971
REMARK INTER + INTRA:          -7.981
REMARK INTER:                  -7.698
REMARK INTRA:                  -0.283
REMARK UNBOUND:                -0.600
REMARK  Name = 
REMARK  5 active torsions:
REMARK  status: ('A' for Active; 'I' for Inactive)
REMARK    1  A    between atoms: C_2  and  C_3
REMARK    2  A    between atoms: C_6  and  N_7
REMARK    3  A    between atoms: N_7  and  C_8
REMARK    4  A    between atoms: C_8  and  C_9
REMARK    5  A    between atoms: C_17  and  N_18
REMARK                            x       y       z     vdW  Elec       q    Type
REMARK                         _______ _______ _______ _____ _____    ______ ____
ROOT
ATOM      1  C   UNL     1      47.308   7.598  13.614  0.00  0.00    +0.000 A 
ATOM      2  C   UNL     1      46.936   8.842  13.146  0.00  0.00    +0.000 A 
ATOM      3  C   UNL     1      45.763   8.886  12.433  0.00  0.00    +0.000 A 
ATOM      4  N   UNL     1      45.002   7.812  12.184  0.00  0.00    +0.000 NA
ATOM      5  C   UNL     1      45.414   6.628  12.661  0.00  0.00    +0.000 A 
ATOM      6  N   UNL     1      44.694   5.502  12.340  0.00  0.00    +0.000 N 
ATOM      7  C   UNL     1      45.057   4.217  12.910  0.00  0.00    +0.000 C 
ATOM      8  C   UNL     1      45.223   3.192  11.789  0.00  0.00    +0.000 C 
ATOM      9  C   UNL     1      44.006   3.140  10.859  0.00  0.00    +0.000 C 
ATOM     10  C   UNL     1      43.691   4.544  10.332  0.00  0.00    +0.000 C 
ATOM     11  C   UNL     1      43.538   5.572  11.454  0.00  0.00    +0.000 C 
ATOM     12  N   UNL     1      46.542   6.505  13.386  0.00  0.00    +0.000 NA
ENDROOT
BRANCH   9  13
ATOM     13  N   UNL     1      42.837   2.541  11.515  0.00  0.00    +0.000 NA
ATOM     14  H   UNL     1      42.023   2.582  10.903  0.00  0.00    +0.000 HD
ATOM     15  H   UNL     1      42.591   3.086  12.341  0.00  0.00    +0.000 HD
ENDBRANCH   9  13
BRANCH   1  16
ATOM     16  C   UNL     1      48.653   7.394  14.307  0.00  0.00    +0.000 C 
BRANCH  16  17
ATOM     17  N   UNL     1      48.534   7.023  15.718  0.00  0.00    +0.000 N 
ATOM     18  H   UNL     1      48.243   7.777  16.333  0.00  0.00    +0.000 HD
BRANCH  17  22
ATOM     19  C   UNL     1      51.336   4.501  17.665  0.00  0.00    +0.000 A 
ATOM     20  C   UNL     1      49.984   4.152  17.651  0.00  0.00    +0.000 A 
ATOM     21  C   UNL     1      49.039   4.970  17.004  0.00  0.00    +0.000 A 
ATOM     22  C   UNL     1      49.422   6.133  16.327  0.00  0.00    +0.000 A 
ATOM     23  C   UNL     1      50.786   6.474  16.364  0.00  0.00    +0.000 A 
ATOM     24  C   UNL     1      51.733   5.673  17.020  0.00  0.00    +0.000 A 
BRANCH  19  26
ATOM     25  N   UNL     1      53.076   3.008  18.891  0.00  0.00    +0.000 NA
ATOM     26  C   UNL     1      52.295   3.677  18.343  0.00  0.00    +0.000 C 
ENDBRANCH  19  26
ENDBRANCH  17  22
ENDBRANCH  16  17
ENDBRANCH   1  16
TORSDOF 5
ENDMDL
MODEL 9
REMARK VINA RESULT:    -5.423      4.131      7.026
REMARK INTER + INTRA:          -7.449
REMARK INTER:                  -7.021
REMARK INTRA:                  -0.429
REMARK UNBOUND:                -0.600
REMARK  Name = 
REMARK  5 active torsions:
REMARK  status: ('A' for Active; 'I' for Inactive)
REMARK    1  A    between atoms: C_2  and  C_3
REMARK    2  A    between atoms: C_6  and  N_7
REMARK    3  A    between atoms: N_7  and  C_8
REMARK    4  A    between atoms: C_8  and  C_9
REMARK    5  A    between atoms: C_17  and  N_18
REMARK                            x       y       z     vdW  Elec       q    Type
REMARK                         _______ _______ _______ _____ _____    ______ ____
ROOT
ATOM      1  C   UNL     1      50.504   7.428  14.881  0.00  0.00    +0.000 A 
ATOM      2  C   UNL     1      51.839   7.761  14.989  0.00  0.00    +0.000 A 
ATOM      3  C   UNL     1      52.517   7.186  16.037  0.00  0.00    +0.000 A 
ATOM      4  N   UNL     1      51.952   6.353  16.920  0.00  0.00    +0.000 NA
ATOM      5  C   UNL     1      50.651   6.066  16.768  0.00  0.00    +0.000 A 
ATOM      6  N   UNL     1      50.034   5.284  17.716  0.00  0.00    +0.000 N 
ATOM      7  C   UNL     1      48.650   4.880  17.540  0.00  0.00    +0.000 C 
ATOM      8  C   UNL     1      47.851   5.243  18.790  0.00  0.00    +0.000 C 
ATOM      9  C   UNL     1      48.497   4.709  20.073  0.00  0.00    +0.000 C 
ATOM     10  C   UNL     1      49.957   5.170  20.153  0.00  0.00    +0.000 C 
ATOM     11  C   UNL     1      50.754   4.819  18.895  0.00  0.00    +0.000 C 
ATOM     12  N   UNL     1      49.923   6.574  15.756  0.00  0.00    +0.000 NA
ENDROOT
BRANCH   9  13
ATOM     13  N   UNL     1      48.392   3.249  20.177  0.00  0.00    +0.000 NA
ATOM     14  H   UNL     1      47.442   2.975  20.427  0.00  0.00    +0.000 HD
ATOM     15  H   UNL     1      48.986   2.916  20.937  0.00  0.00    +0.000 HD
ENDBRANCH   9  13
BRANCH   1  16
ATOM     16  C   UNL     1      49.613   8.099  13.840  0.00  0.00    +0.000 C 
BRANCH  16  17
ATOM     17  N   UNL     1      49.054   7.168  12.859  0.00  0.00    +0.000 N 
ATOM     18  H   UNL     1      49.357   7.326  11.903  0.00  0.00    +0.000 HD
BRANCH  17  22
ATOM     19  C   UNL     1      45.035   5.807  12.904  0.00  0.00    +0.000 A 
ATOM     20  C   UNL     1      46.036   5.029  13.490  0.00  0.00    +0.000 A 
ATOM     21  C   UNL     1      47.374   5.466  13.494  0.00  0.00    +0.000 A 
ATOM     22  C   UNL     1      47.741   6.700  12.946  0.00  0.00    +0.000 A 
ATOM     23  C   UNL     1      46.720   7.462  12.350  0.00  0.00    +0.000 A 
ATOM     24  C   UNL     1      45.387   7.029  12.327  0.00  0.00    +0.000 A 
BRANCH  19  26
ATOM     25  N   UNL     1      42.571   4.979  12.866  0.00  0.00    +0.000 NA
ATOM     26  C   UNL     1      43.675   5.352  12.883  0.00  0.00    +0.000 C 
ENDBRANCH  19  26
ENDBRANCH  17  22
ENDBRANCH  16  17
ENDBRANCH   1  16
TORSDOF 5
ENDMDL
