MODEL 1
REMARK VINA RESULT:    -7.579      0.000      0.000
REMARK INTER + INTRA:         -11.581
REMARK INTER:                 -10.680
REMARK INTRA:                  -0.900
REMARK UNBOUND:                -0.900
REMARK  Name = 
REMARK  9 active torsions:
REMARK  status: ('A' for Active; 'I' for Inactive)
REMARK    1  A    between atoms: C_1  and  C_2
REMARK    2  A    between atoms: C_2  and  C_3
REMARK    3  A    between atoms: C_3  and  C_4
REMARK    4  A    between atoms: C_7  and  C_8
REMARK    5  A    between atoms: C_11  and  O_12
REMARK    6  A    between atoms: O_12  and  C_13
REMARK    7  A    between atoms: C_13  and  C_14
REMARK    8  A    between atoms: C_14  and  C_15
REMARK    9  A    between atoms: C_19  and  C_20
REMARK                            x       y       z     vdW  Elec       q    Type
REMARK                         _______ _______ _______ _____ _____    ______ ____
ROOT
ATOM      1  C   UNL     1      47.592   6.112  13.104  0.00  0.00    +0.000 A 
ATOM      2  C   UNL     1      47.292   5.180  14.098  0.00  0.00    +0.000 A 
ATOM      3  N   UNL     1      46.208   4.366  14.062  0.00  0.00    +0.000 NA
ATOM      4  C   UNL     1      45.410   4.516  12.962  0.00  0.00    +0.000 A 
ATOM      5  C   UNL     1      45.722   5.422  11.938  0.00  0.00    +0.000 A 
ATOM      6  N   UNL     1      46.804   6.246  12.005  0.00  0.00    +0.000 NA
ENDROOT
BRANCH   4   7
ATOM      7  C   UNL     1      44.202   3.622  12.898  0.00  0.00    +0.000 C 
ATOM      8  N   UNL     1      44.264   2.515  12.072  0.00  0.00    +0.000 N 
ATOM      9  O   UNL     1      43.188   3.816  13.537  0.00  0.00    +0.000 OA
ATOM     10  H   UNL     1      45.095   2.260  11.557  0.00  0.00    +0.000 HD
ATOM     11  H   UNL     1      43.460   1.898  12.059  0.00  0.00    +0.000 HD
ENDBRANCH   4   7
BRANCH   1  12
ATOM     12  C   UNL     1      48.828   6.966  13.208  0.00  0.00    +0.000 C 
BRANCH  12  14
ATOM     13  C   UNL     1      50.378   7.687  11.359  0.00  0.00    +0.000 C 
ATOM     14  C   UNL     1      49.005   7.868  11.987  0.00  0.00    +0.000 C 
ENDBRANCH  12  14
ENDBRANCH   1  12
BRANCH   5  15
ATOM     15  O   UNL     1      44.906   5.508  10.836  0.00  0.00    +0.000 OA
BRANCH  15  16
ATOM     16  C   UNL     1      45.535   5.289   9.564  0.00  0.00    +0.000 C 
BRANCH  16  17
ATOM     17  C   UNL     1      44.714   4.192   8.865  0.00  0.00    +0.000 C 
BRANCH  17  18
ATOM     18  C   UNL     1      45.503   3.089   8.201  0.00  0.00    +0.000 A 
ATOM     19  C   UNL     1      45.537   1.784   8.714  0.00  0.00    +0.000 A 
ATOM     20  C   UNL     1      46.318   0.800   8.102  0.00  0.00    +0.000 A 
ATOM     21  C   UNL     1      47.049   1.096   6.955  0.00  0.00    +0.000 A 
ATOM     22  C   UNL     1      46.998   2.379   6.401  0.00  0.00    +0.000 A 
ATOM     23  C   UNL     1      47.769   2.697   5.155  0.00  0.00    +0.000 C 
ATOM     24  C   UNL     1      46.223   3.366   7.028  0.00  0.00    +0.000 A 
ENDBRANCH  17  18
ENDBRANCH  16  17
ENDBRANCH  15  16
ENDBRANCH   5  15
TORSDOF 7
ENDMDL
MODEL 2
REMARK VINA RESULT:    -7.364      0.871      1.611
REMARK INTER + INTRA:         -11.278
REMARK INTER:                 -10.518
REMARK INTRA:                  -0.760
REMARK UNBOUND:                -0.900
REMARK  Name = 
REMARK  9 active torsions:
REMARK  status: ('A' for Active; 'I' for Inactive)
REMARK    1  A    between atoms: C_1  and  C_2
REMARK    2  A    between atoms: C_2  and  C_3
REMARK    3  A    between atoms: C_3  and  C_4
REMARK    4  A    between atoms: C_7  and  C_8
REMARK    5  A    between atoms: C_11  and  O_12
REMARK    6  A    between atoms: O_12  and  C_13
REMARK    7  A    between atoms: C_13  and  C_14
REMARK    8  A    between atoms: C_14  and  C_15
REMARK    9  A    between atoms: C_19  and  C_20
REMARK                            x       y       z     vdW  Elec       q    Type
REMARK                         _______ _______ _______ _____ _____    ______ ____
ROOT
ATOM      1  C   UNL     1      47.439   6.072  13.184  0.00  0.00    +0.000 A 
ATOM      2  C   UNL     1      46.993   5.150  14.133  0.00  0.00    +0.000 A 
ATOM      3  N   UNL     1      45.841   4.445  14.010  0.00  0.00    +0.000 NA
ATOM      4  C   UNL     1      45.130   4.694  12.870  0.00  0.00    +0.000 A 
ATOM      5  C   UNL     1      45.588   5.588  11.891  0.00  0.00    +0.000 A 
ATOM      6  N   UNL     1      46.736   6.304  12.045  0.00  0.00    +0.000 NA
ENDROOT
BRANCH   4   7
ATOM      7  C   UNL     1      43.850   3.920  12.710  0.00  0.00    +0.000 C 
ATOM      8  N   UNL     1      42.692   4.637  12.469  0.00  0.00    +0.000 N 
ATOM      9  O   UNL     1      43.783   2.710  12.773  0.00  0.00    +0.000 OA
ATOM     10  H   UNL     1      42.682   5.639  12.347  0.00  0.00    +0.000 HD
ATOM     11  H   UNL     1      41.838   4.107  12.329  0.00  0.00    +0.000 HD
ENDBRANCH   4   7
BRANCH   1  12
ATOM     12  C   UNL     1      48.741   6.801  13.385  0.00  0.00    +0.000 C 
BRANCH  12  14
ATOM     13  C   UNL     1      48.899   8.725  11.768  0.00  0.00    +0.000 C 
ATOM     14  C   UNL     1      49.328   7.296  12.063  0.00  0.00    +0.000 C 
ENDBRANCH  12  14
ENDBRANCH   1  12
BRANCH   5  15
ATOM     15  O   UNL     1      44.852   5.775  10.746  0.00  0.00    +0.000 OA
BRANCH  15  16
ATOM     16  C   UNL     1      45.488   5.394   9.516  0.00  0.00    +0.000 C 
BRANCH  16  17
ATOM     17  C   UNL     1      45.020   3.959   9.220  0.00  0.00    +0.000 C 
BRANCH  17  18
ATOM     18  C   UNL     1      45.893   3.151   8.290  0.00  0.00    +0.000 A 
ATOM     19  C   UNL     1      46.670   3.750   7.289  0.00  0.00    +0.000 A 
ATOM     20  C   UNL     1      47.428   2.967   6.413  0.00  0.00    +0.000 A 
ATOM     21  C   UNL     1      47.444   1.581   6.546  0.00  0.00    +0.000 A 
ATOM     22  C   UNL     1      46.711   0.965   7.564  0.00  0.00    +0.000 A 
ATOM     23  C   UNL     1      46.740  -0.526   7.721  0.00  0.00    +0.000 C 
ATOM     24  C   UNL     1      45.941   1.755   8.430  0.00  0.00    +0.000 A 
ENDBRANCH  17  18
ENDBRANCH  16  17
ENDBRANCH  15  16
ENDBRANCH   5  15
TORSDOF 7
ENDMDL
MODEL 3
REMARK VINA RESULT:    -7.281      2.208      2.842
REMARK INTER + INTRA:         -11.161
REMARK INTER:                 -10.391
REMARK INTRA:                  -0.769
REMARK UNBOUND:                -0.900
REMARK  Name = 
REMARK  9 active torsions:
REMARK  status: ('A' for Active; 'I' for Inactive)
REMARK    1  A    between atoms: C_1  and  C_2
REMARK    2  A    between atoms: C_2  and  C_3
REMARK    3  A    between atoms: C_3  and  C_4
REMARK    4  A    between atoms: C_7  and  C_8
REMARK    5  A    between atoms: C_11  and  O_12
REMARK    6  A    between atoms: O_12  and  C_13
REMARK    7  A    between atoms: C_13  and  C_14
REMARK    8  A    between atoms: C_14  and  C_15
REMARK    9  A    between atoms: C_19  and  C_20
REMARK                            x       y       z     vdW  Elec       q    Type
REMARK                         _______ _______ _______ _____ _____    ______ ____
ROOT
ATOM      1  C   UNL     1      46.501   7.625  12.308  0.00  0.00    +0.000 A 
ATOM      2  C   UNL     1      47.651   7.077  12.877  0.00  0.00    +0.000 A 
ATOM      3  N   UNL     1      47.743   5.789  13.292  0.00  0.00    +0.000 NA
ATOM      4  C   UNL     1      46.613   5.041  13.109  0.00  0.00    +0.000 A 
ATOM      5  C   UNL     1      45.465   5.571  12.502  0.00  0.00    +0.000 A 
ATOM      6  N   UNL     1      45.386   6.874  12.113  0.00  0.00    +0.000 NA
ENDROOT
BRANCH   4   7
ATOM      7  C   UNL     1      46.692   3.608  13.559  0.00  0.00    +0.000 C 
ATOM      8  N   UNL     1      45.934   2.677  12.874  0.00  0.00    +0.000 N 
ATOM      9  O   UNL     1      47.388   3.230  14.479  0.00  0.00    +0.000 OA
ATOM     10  H   UNL     1      45.378   2.910  12.064  0.00  0.00    +0.000 HD
ATOM     11  H   UNL     1      46.017   1.708  13.161  0.00  0.00    +0.000 HD
ENDBRANCH   4   7
BRANCH   1  12
ATOM     12  C   UNL     1      46.486   9.061  11.854  0.00  0.00    +0.000 C 
BRANCH  12  14
ATOM     13  C   UNL     1      44.734  10.719  11.132  0.00  0.00    +0.000 C 
ATOM     14  C   UNL     1      45.182   9.765  12.228  0.00  0.00    +0.000 C 
ENDBRANCH  12  14
ENDBRANCH   1  12
BRANCH   5  15
ATOM     15  O   UNL     1      44.368   4.766  12.309  0.00  0.00    +0.000 OA
BRANCH  15  16
ATOM     16  C   UNL     1      43.711   4.887  11.038  0.00  0.00    +0.000 C 
BRANCH  16  17
ATOM     17  C   UNL     1      43.796   3.500  10.380  0.00  0.00    +0.000 C 
BRANCH  17  18
ATOM     18  C   UNL     1      44.863   3.327   9.325  0.00  0.00    +0.000 A 
ATOM     19  C   UNL     1      45.436   4.419   8.658  0.00  0.00    +0.000 A 
ATOM     20  C   UNL     1      46.386   4.218   7.651  0.00  0.00    +0.000 A 
ATOM     21  C   UNL     1      46.797   2.930   7.320  0.00  0.00    +0.000 A 
ATOM     22  C   UNL     1      46.270   1.828   8.001  0.00  0.00    +0.000 A 
ATOM     23  C   UNL     1      46.724   0.440   7.661  0.00  0.00    +0.000 C 
ATOM     24  C   UNL     1      45.307   2.035   9.001  0.00  0.00    +0.000 A 
ENDBRANCH  17  18
ENDBRANCH  16  17
ENDBRANCH  15  16
ENDBRANCH   5  15
TORSDOF 7
ENDMDL
MODEL 4
REMARK VINA RESULT:    -7.171      1.868      3.512
REMARK INTER + INTRA:         -11.005
REMARK INTER:                 -10.182
REMARK INTRA:                  -0.823
REMARK UNBOUND:                -0.900
REMARK  Name = 
REMARK  9 active torsions:
REMARK  status: ('A' for Active; 'I' for Inactive)
REMARK    1  A    between atoms: C_1  and  C_2
REMARK    2  A    between atoms: C_2  and  C_3
REMARK    3  A    between atoms: C_3  and  C_4
REMARK    4  A    between atoms: C_7  and  C_8
REMARK    5  A    between atoms: C_11  and  O_12
REMARK    6  A    between atoms: O_12  and  C_13
REMARK    7  A    between atoms: C_13  and  C_14
REMARK    8  A    between atoms: C_14  and  C_15
REMARK    9  A    between atoms: C_19  and  C_20
REMARK                            x       y       z     vdW  Elec       q    Type
REMARK                         _______ _______ _______ _____ _____    ______ ____
ROOT
ATOM      1  C   UNL     1      47.011   4.317  14.558  0.00  0.00    +0.000 A 
ATOM      2  C   UNL     1      47.494   5.621  14.446  0.00  0.00    +0.000 A 
ATOM      3  N   UNL     1      46.957   6.552  13.618  0.00  0.00    +0.000 NA
ATOM      4  C   UNL     1      45.883   6.124  12.888  0.00  0.00    +0.000 A 
ATOM      5  C   UNL     1      45.365   4.828  13.022  0.00  0.00    +0.000 A 
ATOM      6  N   UNL     1      45.934   3.901  13.842  0.00  0.00    +0.000 NA
ENDROOT
BRANCH   4   7
ATOM      7  C   UNL     1      45.268   7.141  11.965  0.00  0.00    +0.000 C 
ATOM      8  N   UNL     1      44.990   6.746  10.669  0.00  0.00    +0.000 N 
ATOM      9  O   UNL     1      44.999   8.276  12.299  0.00  0.00    +0.000 OA
ATOM     10  H   UNL     1      45.134   5.803  10.339  0.00  0.00    +0.000 HD
ATOM     11  H   UNL     1      44.545   7.426  10.062  0.00  0.00    +0.000 HD
ENDBRANCH   4   7
BRANCH   1  12
ATOM     12  C   UNL     1      47.651   3.347  15.516  0.00  0.00    +0.000 C 
BRANCH  12  14
ATOM     13  C   UNL     1      48.686   3.281  17.811  0.00  0.00    +0.000 C 
ATOM     14  C   UNL     1      47.543   3.821  16.966  0.00  0.00    +0.000 C 
ENDBRANCH  12  14
ENDBRANCH   1  12
BRANCH   5  15
ATOM     15  O   UNL     1      44.262   4.460  12.290  0.00  0.00    +0.000 OA
BRANCH  15  16
ATOM     16  C   UNL     1      44.358   3.213  11.585  0.00  0.00    +0.000 C 
BRANCH  16  17
ATOM     17  C   UNL     1      43.975   3.515  10.127  0.00  0.00    +0.000 C 
BRANCH  17  18
ATOM     18  C   UNL     1      45.020   3.200   9.082  0.00  0.00    +0.000 A 
ATOM     19  C   UNL     1      45.616   4.199   8.300  0.00  0.00    +0.000 A 
ATOM     20  C   UNL     1      46.543   3.865   7.308  0.00  0.00    +0.000 A 
ATOM     21  C   UNL     1      46.909   2.537   7.107  0.00  0.00    +0.000 A 
ATOM     22  C   UNL     1      46.359   1.529   7.904  0.00  0.00    +0.000 A 
ATOM     23  C   UNL     1      46.765   0.099   7.703  0.00  0.00    +0.000 C 
ATOM     24  C   UNL     1      45.419   1.868   8.888  0.00  0.00    +0.000 A 
ENDBRANCH  17  18
ENDBRANCH  16  17
ENDBRANCH  15  16
ENDBRANCH   5  15
TORSDOF 7
ENDMDL
MODEL 5
REMARK VINA RESULT:    -6.951      1.956      6.582
REMARK INTER + INTRA:         -10.696
REMARK INTER:                 -10.027
REMARK INTRA:                  -0.670
REMARK UNBOUND:                -0.900
REMARK  Name = 
REMARK  9 active torsions:
REMARK  status: ('A' for Active; 'I' for Inactive)
REMARK    1  A    between atoms: C_1  and  C_2
REMARK    2  A    between atoms: C_2  and  C_3
REMARK    3  A    between atoms: C_3  and  C_4
REMARK    4  A    between atoms: C_7  and  C_8
REMARK    5  A    between atoms: C_11  and  O_12
REMARK    6  A    between atoms: O_12  and  C_13
REMARK    7  A    between atoms: C_13  and  C_14
REMARK    8  A    between atoms: C_14  and  C_15
REMARK    9  A    between atoms: C_19  and  C_20
REMARK                            x       y       z     vdW  Elec       q    Type
REMARK                         _______ _______ _______ _____ _____    ______ ____
ROOT
ATOM      1  C   UNL     1      45.685   3.930   8.247  0.00  0.00    +0.000 A 
ATOM      2  C   UNL     1      44.889   2.823   8.541  0.00  0.00    +0.000 A 
ATOM      3  N   UNL     1      44.128   2.721   9.659  0.00  0.00    +0.000 NA
ATOM      4  C   UNL     1      44.188   3.800  10.498  0.00  0.00    +0.000 A 
ATOM      5  C   UNL     1      44.954   4.934  10.193  0.00  0.00    +0.000 A 
ATOM      6  N   UNL     1      45.729   5.006   9.075  0.00  0.00    +0.000 NA
ENDROOT
BRANCH   4   7
ATOM      7  C   UNL     1      43.350   3.711  11.744  0.00  0.00    +0.000 C 
ATOM      8  N   UNL     1      42.414   4.706  11.961  0.00  0.00    +0.000 N 
ATOM      9  O   UNL     1      43.447   2.814  12.556  0.00  0.00    +0.000 OA
ATOM     10  H   UNL     1      42.240   5.449  11.300  0.00  0.00    +0.000 HD
ATOM     11  H   UNL     1      41.830   4.622  12.786  0.00  0.00    +0.000 HD
ENDBRANCH   4   7
BRANCH   1  12
ATOM     12  C   UNL     1      46.486   3.975   6.972  0.00  0.00    +0.000 C 
BRANCH  12  14
ATOM     13  C   UNL     1      47.944   1.950   6.635  0.00  0.00    +0.000 C 
ATOM     14  C   UNL     1      46.604   2.596   6.322  0.00  0.00    +0.000 C 
ENDBRANCH  12  14
ENDBRANCH   1  12
BRANCH   5  15
ATOM     15  O   UNL     1      44.950   6.006  11.053  0.00  0.00    +0.000 OA
BRANCH  15  16
ATOM     16  C   UNL     1      46.196   6.297  11.704  0.00  0.00    +0.000 C 
BRANCH  16  17
ATOM     17  C   UNL     1      46.547   5.051  12.534  0.00  0.00    +0.000 C 
BRANCH  17  18
ATOM     18  C   UNL     1      47.196   5.302  13.875  0.00  0.00    +0.000 A 
ATOM     19  C   UNL     1      48.022   6.411  14.106  0.00  0.00    +0.000 A 
ATOM     20  C   UNL     1      48.647   6.585  15.345  0.00  0.00    +0.000 A 
ATOM     21  C   UNL     1      48.430   5.674  16.375  0.00  0.00    +0.000 A 
ATOM     22  C   UNL     1      47.576   4.584  16.180  0.00  0.00    +0.000 A 
ATOM     23  C   UNL     1      47.325   3.611  17.293  0.00  0.00    +0.000 C 
ATOM     24  C   UNL     1      46.963   4.407  14.931  0.00  0.00    +0.000 A 
ENDBRANCH  17  18
ENDBRANCH  16  17
ENDBRANCH  15  16
ENDBRANCH   5  15
TORSDOF 7
ENDMDL
MODEL 6
REMARK VINA RESULT:    -6.909      1.755      6.327
REMARK INTER + INTRA:         -10.637
REMARK INTER:                 -10.011
REMARK INTRA:                  -0.626
REMARK UNBOUND:                -0.900
REMARK  Name = 
REMARK  9 active torsions:
REMARK  status: ('A' for Active; 'I' for Inactive)
REMARK    1  A    between atoms: C_1  and  C_2
REMARK    2  A    between atoms: C_2  and  C_3
REMARK    3  A    between atoms: C_3  and  C_4
REMARK    4  A    between atoms: C_7  and  C_8
REMARK    5  A    between atoms: C_11  and  O_12
REMARK    6  A    between atoms: O_12  and  C_13
REMARK    7  A    between atoms: C_13  and  C_14
REMARK    8  A    between atoms: C_14  and  C_15
REMARK    9  A    between atoms: C_19  and  C_20
REMARK                            x       y       z     vdW  Elec       q    Type
REMARK                         _______ _______ _______ _____ _____    ______ ____
ROOT
ATOM      1  C   UNL     1      45.480   3.666   8.305  0.00  0.00    +0.000 A 
ATOM      2  C   UNL     1      44.658   2.639   8.769  0.00  0.00    +0.000 A 
ATOM      3  N   UNL     1      43.967   2.698   9.934  0.00  0.00    +0.000 NA
ATOM      4  C   UNL     1      44.126   3.857  10.641  0.00  0.00    +0.000 A 
ATOM      5  C   UNL     1      44.918   4.912  10.166  0.00  0.00    +0.000 A 
ATOM      6  N   UNL     1      45.623   4.823   9.003  0.00  0.00    +0.000 NA
ENDROOT
BRANCH   4   7
ATOM      7  C   UNL     1      43.367   3.948  11.937  0.00  0.00    +0.000 C 
ATOM      8  N   UNL     1      42.401   4.930  12.048  0.00  0.00    +0.000 N 
ATOM      9  O   UNL     1      43.552   3.203  12.877  0.00  0.00    +0.000 OA
ATOM     10  H   UNL     1      42.153   5.546  11.287  0.00  0.00    +0.000 HD
ATOM     11  H   UNL     1      41.870   4.964  12.911  0.00  0.00    +0.000 HD
ENDBRANCH   4   7
BRANCH   1  12
ATOM     12  C   UNL     1      46.199   3.530   6.988  0.00  0.00    +0.000 C 
BRANCH  12  14
ATOM     13  C   UNL     1      47.910   2.239   5.667  0.00  0.00    +0.000 C 
ATOM     14  C   UNL     1      47.101   2.297   6.954  0.00  0.00    +0.000 C 
ENDBRANCH  12  14
ENDBRANCH   1  12
BRANCH   5  15
ATOM     15  O   UNL     1      45.016   6.070  10.898  0.00  0.00    +0.000 OA
BRANCH  15  16
ATOM     16  C   UNL     1      45.987   6.070  11.956  0.00  0.00    +0.000 C 
BRANCH  16  17
ATOM     17  C   UNL     1      46.001   7.499  12.524  0.00  0.00    +0.000 C 
BRANCH  17  18
ATOM     18  C   UNL     1      47.200   8.347  12.167  0.00  0.00    +0.000 A 
ATOM     19  C   UNL     1      47.135   9.747  12.125  0.00  0.00    +0.000 A 
ATOM     20  C   UNL     1      48.251  10.498  11.742  0.00  0.00    +0.000 A 
ATOM     21  C   UNL     1      49.450   9.864  11.429  0.00  0.00    +0.000 A 
ATOM     22  C   UNL     1      49.549   8.472  11.505  0.00  0.00    +0.000 A 
ATOM     23  C   UNL     1      50.845   7.787  11.186  0.00  0.00    +0.000 C 
ATOM     24  C   UNL     1      48.423   7.723  11.876  0.00  0.00    +0.000 A 
ENDBRANCH  17  18
ENDBRANCH  16  17
ENDBRANCH  15  16
ENDBRANCH   5  15
TORSDOF 7
ENDMDL
MODEL 7
REMARK VINA RESULT:    -6.781      2.794      6.779
REMARK INTER + INTRA:         -10.456
REMARK INTER:                  -9.665
REMARK INTRA:                  -0.792
REMARK UNBOUND:                -0.900
REMARK  Name = 
REMARK  9 active torsions:
REMARK  status: ('A' for Active; 'I' for Inactive)
REMARK    1  A    between atoms: C_1  and  C_2
REMARK    2  A    between atoms: C_2  and  C_3
REMARK    3  A    between atoms: C_3  and  C_4
REMARK    4  A    between atoms: C_7  and  C_8
REMARK    5  A    between atoms: C_11  and  O_12
REMARK    6  A    between atoms: O_12  and  C_13
REMARK    7  A    between atoms: C_13  and  C_14
REMARK    8  A    between atoms: C_14  and  C_15
REMARK    9  A    between atoms: C_19  and  C_20
REMARK                            x       y       z     vdW  Elec       q    Type
REMARK                         _______ _______ _______ _____ _____    ______ ____
ROOT
ATOM      1  C   UNL     1      45.460   3.671   8.280  0.00  0.00    +0.000 A 
ATOM      2  C   UNL     1      44.662   2.635   8.768  0.00  0.00    +0.000 A 
ATOM      3  N   UNL     1      43.992   2.695   9.945  0.00  0.00    +0.000 NA
ATOM      4  C   UNL     1      44.145   3.864  10.638  0.00  0.00    +0.000 A 
ATOM      5  C   UNL     1      44.912   4.926  10.138  0.00  0.00    +0.000 A 
ATOM      6  N   UNL     1      45.597   4.836   8.964  0.00  0.00    +0.000 NA
ENDROOT
BRANCH   4   7
ATOM      7  C   UNL     1      43.409   3.955  11.947  0.00  0.00    +0.000 C 
ATOM      8  N   UNL     1      42.464   4.954  12.084  0.00  0.00    +0.000 N 
ATOM      9  O   UNL     1      43.594   3.196  12.876  0.00  0.00    +0.000 OA
ATOM     10  H   UNL     1      42.217   5.583  11.333  0.00  0.00    +0.000 HD
ATOM     11  H   UNL     1      41.947   4.989  12.956  0.00  0.00    +0.000 HD
ENDBRANCH   4   7
BRANCH   1  12
ATOM     12  C   UNL     1      46.156   3.534   6.951  0.00  0.00    +0.000 C 
BRANCH  12  14
ATOM     13  C   UNL     1      47.383   1.359   6.626  0.00  0.00    +0.000 C 
ATOM     14  C   UNL     1      47.494   2.806   7.079  0.00  0.00    +0.000 C 
ENDBRANCH  12  14
ENDBRANCH   1  12
BRANCH   5  15
ATOM     15  O   UNL     1      45.005   6.092  10.858  0.00  0.00    +0.000 OA
BRANCH  15  16
ATOM     16  C   UNL     1      46.155   6.220  11.709  0.00  0.00    +0.000 C 
BRANCH  16  17
ATOM     17  C   UNL     1      45.807   7.311  12.736  0.00  0.00    +0.000 C 
BRANCH  17  18
ATOM     18  C   UNL     1      46.006   8.739  12.287  0.00  0.00    +0.000 A 
ATOM     19  C   UNL     1      47.281   9.310  12.163  0.00  0.00    +0.000 A 
ATOM     20  C   UNL     1      47.425  10.651  11.792  0.00  0.00    +0.000 A 
ATOM     21  C   UNL     1      46.304  11.427  11.511  0.00  0.00    +0.000 A 
ATOM     22  C   UNL     1      45.025  10.866  11.587  0.00  0.00    +0.000 A 
ATOM     23  C   UNL     1      43.816  11.693  11.266  0.00  0.00    +0.000 C 
ATOM     24  C   UNL     1      44.886   9.524  11.973  0.00  0.00    +0.000 A 
ENDBRANCH  17  18
ENDBRANCH  16  17
ENDBRANCH  15  16
ENDBRANCH   5  15
TORSDOF 7
ENDMDL
MODEL 8
REMARK VINA RESULT:    -6.650      1.901      2.886
REMARK INTER + INTRA:         -10.271
REMARK INTER:                  -9.508
REMARK INTRA:                  -0.763
REMARK UNBOUND:                -0.900
REMARK  Name = 
REMARK  9 active torsions:
REMARK  status: ('A' for Active; 'I' for Inactive)
REMARK    1  A    between atoms: C_1  and  C_2
REMARK    2  A    between atoms: C_2  and  C_3
REMARK    3  A    between atoms: C_3  and  C_4
REMARK    4  A    between atoms: C_7  and  C_8
REMARK    5  A    between atoms: C_11  and  O_12
REMARK    6  A    between atoms: O_12  and  C_13
REMARK    7  A    between atoms: C_13  and  C_14
REMARK    8  A    between atoms: C_14  and  C_15
REMARK    9  A    between atoms: C_19  and  C_20
REMARK                            x       y       z     vdW  Elec       q    Type
REMARK                         _______ _______ _______ _____ _____    ______ ____
ROOT
ATOM      1  C   UNL     1      47.478   7.251  12.900  0.00  0.00    +0.000 A 
ATOM      2  C   UNL     1      46.750   8.384  13.262  0.00  0.00    +0.000 A 
ATOM      3  N   UNL     1      45.551   8.711  12.720  0.00  0.00    +0.000 NA
ATOM      4  C   UNL     1      45.086   7.837  11.776  0.00  0.00    +0.000 A 
ATOM      5  C   UNL     1      45.791   6.674  11.433  0.00  0.00    +0.000 A 
ATOM      6  N   UNL     1      47.005   6.377  11.974  0.00  0.00    +0.000 NA
ENDROOT
BRANCH   4   7
ATOM      7  C   UNL     1      43.756   8.177  11.162  0.00  0.00    +0.000 C 
ATOM      8  N   UNL     1      42.786   7.192  11.145  0.00  0.00    +0.000 N 
ATOM      9  O   UNL     1      43.491   9.265  10.693  0.00  0.00    +0.000 OA
ATOM     10  H   UNL     1      42.917   6.285  11.568  0.00  0.00    +0.000 HD
ATOM     11  H   UNL     1      41.880   7.439  10.760  0.00  0.00    +0.000 HD
ENDBRANCH   4   7
BRANCH   1  12
ATOM     12  C   UNL     1      48.795   6.947  13.565  0.00  0.00    +0.000 C 
BRANCH  12  14
ATOM     13  C   UNL     1      50.216   7.933  11.734  0.00  0.00    +0.000 C 
ATOM     14  C   UNL     1      49.865   7.981  13.213  0.00  0.00    +0.000 C 
ENDBRANCH  12  14
ENDBRANCH   1  12
BRANCH   5  15
ATOM     15  O   UNL     1      45.263   5.810  10.505  0.00  0.00    +0.000 OA
BRANCH  15  16
ATOM     16  C   UNL     1      45.019   4.469  10.956  0.00  0.00    +0.000 C 
BRANCH  16  17
ATOM     17  C   UNL     1      44.376   3.729   9.771  0.00  0.00    +0.000 C 
BRANCH  17  18
ATOM     18  C   UNL     1      45.325   3.188   8.728  0.00  0.00    +0.000 A 
ATOM     19  C   UNL     1      45.937   4.016   7.776  0.00  0.00    +0.000 A 
ATOM     20  C   UNL     1      46.771   3.474   6.793  0.00  0.00    +0.000 A 
ATOM     21  C   UNL     1      47.029   2.106   6.768  0.00  0.00    +0.000 A 
ATOM     22  C   UNL     1      46.464   1.267   7.733  0.00  0.00    +0.000 A 
ATOM     23  C   UNL     1      46.755  -0.204   7.721  0.00  0.00    +0.000 C 
ATOM     24  C   UNL     1      45.617   1.815   8.708  0.00  0.00    +0.000 A 
ENDBRANCH  17  18
ENDBRANCH  16  17
ENDBRANCH  15  16
ENDBRANCH   5  15
TORSDOF 7
ENDMDL
MODEL 9
REMARK VINA RESULT:    -6.419      2.249      4.098
REMARK INTER + INTRA:          -9.946
REMARK INTER:                  -9.151
REMARK INTRA:                  -0.796
REMARK UNBOUND:                -0.900
REMARK  Name = 
REMARK  9 active torsions:
REMARK  status: ('A' for Active; 'I' for Inactive)
REMARK    1  A    between atoms: C_1  and  C_2
REMARK    2  A    between atoms: C_2  and  C_3
REMARK    3  A    between atoms: C_3  and  C_4
REMARK    4  A    between atoms: C_7  and  C_8
REMARK    5  A    between atoms: C_11  and  O_12
REMARK    6  A    between atoms: O_12  and  C_13
REMARK    7  A    between atoms: C_13  and  C_14
REMARK    8  A    between atoms: C_14  and  C_15
REMARK    9  A    between atoms: C_19  and  C_20
REMARK                            x       y       z     vdW  Elec       q    Type
REMARK                         _______ _______ _______ _____ _____    ______ ____
ROOT
ATOM      1  C   UNL     1      47.433   4.605  15.738  0.00  0.00    +0.000 A 
ATOM      2  C   UNL     1      48.319   5.681  15.788  0.00  0.00    +0.000 A 
ATOM      3  N   UNL     1      48.528   6.531  14.752  0.00  0.00    +0.000 NA
ATOM      4  C   UNL     1      47.795   6.264  13.629  0.00  0.00    +0.000 A 
ATOM      5  C   UNL     1      46.872   5.209  13.581  0.00  0.00    +0.000 A 
ATOM      6  N   UNL     1      46.694   4.353  14.626  0.00  0.00    +0.000 NA
ENDROOT
BRANCH   4   7
ATOM      7  C   UNL     1      48.008   7.195  12.467  0.00  0.00    +0.000 C 
ATOM      8  N   UNL     1      46.966   8.033  12.116  0.00  0.00    +0.000 N 
ATOM      9  O   UNL     1      49.042   7.254  11.834  0.00  0.00    +0.000 OA
ATOM     10  H   UNL     1      46.100   8.079  12.633  0.00  0.00    +0.000 HD
ATOM     11  H   UNL     1      47.127   8.681  11.353  0.00  0.00    +0.000 HD
ENDBRANCH   4   7
BRANCH   1  12
ATOM     12  C   UNL     1      47.242   3.719  16.941  0.00  0.00    +0.000 C 
BRANCH  12  14
ATOM     13  C   UNL     1      49.523   2.971  17.701  0.00  0.00    +0.000 C 
ATOM     14  C   UNL     1      48.251   2.571  16.970  0.00  0.00    +0.000 C 
ENDBRANCH  12  14
ENDBRANCH   1  12
BRANCH   5  15
ATOM     15  O   UNL     1      46.134   5.006  12.440  0.00  0.00    +0.000 OA
BRANCH  15  16
ATOM     16  C   UNL     1      44.747   5.371  12.511  0.00  0.00    +0.000 C 
BRANCH  16  17
ATOM     17  C   UNL     1      44.269   5.519  11.057  0.00  0.00    +0.000 C 
BRANCH  17  18
ATOM     18  C   UNL     1      44.604   4.379  10.125  0.00  0.00    +0.000 A 
ATOM     19  C   UNL     1      44.122   3.079  10.334  0.00  0.00    +0.000 A 
ATOM     20  C   UNL     1      44.493   2.037   9.479  0.00  0.00    +0.000 A 
ATOM     21  C   UNL     1      45.324   2.285   8.390  0.00  0.00    +0.000 A 
ATOM     22  C   UNL     1      45.783   3.581   8.138  0.00  0.00    +0.000 A 
ATOM     23  C   UNL     1      46.663   3.855   6.955  0.00  0.00    +0.000 C 
ATOM     24  C   UNL     1      45.418   4.620   9.007  0.00  0.00    +0.000 A 
ENDBRANCH  17  18
ENDBRANCH  16  17
ENDBRANCH  15  16
ENDBRANCH   5  15
TORSDOF 7
ENDMDL
