MODEL 1
REMARK VINA RESULT:    -8.095      0.000      0.000
REMARK INTER + INTRA:         -11.147
REMARK INTER:                 -10.462
REMARK INTRA:                  -0.686
REMARK UNBOUND:                -0.686
REMARK  Name = 
REMARK  5 active torsions:
REMARK  status: ('A' for Active; 'I' for Inactive)
REMARK    1  A    between atoms: C_2  and  C_4
REMARK    2  A    between atoms: C_8  and  C_9
REMARK    3  A    between atoms: C_9  and  C_10
REMARK    4  A    between atoms: C_10  and  C_11
REMARK    5  A    between atoms: C_15  and  C_16
REMARK                            x       y       z     vdW  Elec       q    Type
REMARK                         _______ _______ _______ _____ _____    ______ ____
ROOT
ATOM      1  C   UNL     1      44.252   6.506  11.378  0.00  0.00    +0.000 C 
ENDROOT
BRANCH   1   2
ATOM      2  C   UNL     1      44.183   5.067  10.924  0.00  0.00    +0.000 A 
ATOM      3  C   UNL     1      43.339   4.165  11.555  0.00  0.00    +0.000 A 
ATOM      4  N   UNL     1      43.236   2.862  11.213  0.00  0.00    +0.000 NA
ATOM      5  C   UNL     1      44.021   2.429  10.194  0.00  0.00    +0.000 A 
ATOM      6  C   UNL     1      44.921   3.222   9.485  0.00  0.00    +0.000 A 
ATOM      7  C   UNL     1      44.987   4.562   9.891  0.00  0.00    +0.000 A 
BRANCH   6   8
ATOM      8  C   UNL     1      45.746   2.715   8.365  0.00  0.00    +0.000 A 
ATOM      9  C   UNL     1      46.187   3.556   7.335  0.00  0.00    +0.000 A 
ATOM     10  C   UNL     1      46.990   3.036   6.327  0.00  0.00    +0.000 A 
ATOM     11  N   UNL     1      47.391   1.753   6.272  0.00  0.00    +0.000 NA
ATOM     12  C   UNL     1      46.964   0.948   7.262  0.00  0.00    +0.000 A 
ATOM     13  C   UNL     1      46.153   1.372   8.304  0.00  0.00    +0.000 A 
ENDBRANCH   6   8
ENDBRANCH   1   2
BRANCH   1  14
ATOM     14  C   UNL     1      45.642   7.142  11.224  0.00  0.00    +0.000 C 
BRANCH  14  19
ATOM     15  C   UNL     1      47.312   5.487  14.207  0.00  0.00    +0.000 A 
ATOM     16  C   UNL     1      48.255   6.464  14.492  0.00  0.00    +0.000 A 
ATOM     17  N   UNL     1      48.392   7.611  13.780  0.00  0.00    +0.000 NA
ATOM     18  C   UNL     1      47.540   7.794  12.748  0.00  0.00    +0.000 A 
ATOM     19  C   UNL     1      46.547   6.886  12.393  0.00  0.00    +0.000 A 
ATOM     20  C   UNL     1      46.431   5.714  13.150  0.00  0.00    +0.000 A 
BRANCH  15  22
ATOM     21  N   UNL     1      47.051   4.421  16.374  0.00  0.00    +0.000 N 
ATOM     22  C   UNL     1      47.274   4.262  15.034  0.00  0.00    +0.000 C 
ATOM     23  O   UNL     1      47.396   3.151  14.539  0.00  0.00    +0.000 OA
ATOM     24  H   UNL     1      46.910   3.569  16.904  0.00  0.00    +0.000 HD
ATOM     25  H   UNL     1      46.673   5.274  16.763  0.00  0.00    +0.000 HD
ENDBRANCH  15  22
ENDBRANCH  14  19
ENDBRANCH   1  14
TORSDOF 5
ENDMDL
MODEL 2
REMARK VINA RESULT:    -7.995      2.621      6.815
REMARK INTER + INTRA:         -11.018
REMARK INTER:                 -10.365
REMARK INTRA:                  -0.653
REMARK UNBOUND:                -0.686
REMARK  Name = 
REMARK  5 active torsions:
REMARK  status: ('A' for Active; 'I' for Inactive)
REMARK    1  A    between atoms: C_2  and  C_4
REMARK    2  A    between atoms: C_8  and  C_9
REMARK    3  A    between atoms: C_9  and  C_10
REMARK    4  A    between atoms: C_10  and  C_11
REMARK    5  A    between atoms: C_15  and  C_16
REMARK                            x       y       z     vdW  Elec       q    Type
REMARK                         _______ _______ _______ _____ _____    ______ ____
ROOT
ATOM      1  C   UNL     1      44.629   2.814  12.039  0.00  0.00    +0.000 C 
ENDROOT
BRANCH   1   2
ATOM      2  C   UNL     1      45.480   3.976  12.493  0.00  0.00    +0.000 A 
ATOM      3  C   UNL     1      46.591   3.767  13.299  0.00  0.00    +0.000 A 
ATOM      4  N   UNL     1      47.389   4.757  13.755  0.00  0.00    +0.000 NA
ATOM      5  C   UNL     1      47.063   6.025  13.398  0.00  0.00    +0.000 A 
ATOM      6  C   UNL     1      45.970   6.377  12.607  0.00  0.00    +0.000 A 
ATOM      7  C   UNL     1      45.176   5.307  12.172  0.00  0.00    +0.000 A 
BRANCH   6   8
ATOM      8  C   UNL     1      45.660   7.773  12.224  0.00  0.00    +0.000 A 
ATOM      9  C   UNL     1      46.491   8.840  12.589  0.00  0.00    +0.000 A 
ATOM     10  C   UNL     1      46.172  10.126  12.171  0.00  0.00    +0.000 A 
ATOM     11  N   UNL     1      45.101  10.428  11.415  0.00  0.00    +0.000 NA
ATOM     12  C   UNL     1      44.304   9.400  11.067  0.00  0.00    +0.000 A 
ATOM     13  C   UNL     1      44.534   8.085  11.444  0.00  0.00    +0.000 A 
ENDBRANCH   6   8
ENDBRANCH   1   2
BRANCH   1  14
ATOM     14  C   UNL     1      43.901   3.059  10.709  0.00  0.00    +0.000 C 
BRANCH  14  19
ATOM     15  C   UNL     1      46.337   2.176   7.932  0.00  0.00    +0.000 A 
ATOM     16  C   UNL     1      46.477   3.435   7.364  0.00  0.00    +0.000 A 
ATOM     17  N   UNL     1      45.830   4.541   7.811  0.00  0.00    +0.000 NA
ATOM     18  C   UNL     1      45.020   4.383   8.880  0.00  0.00    +0.000 A 
ATOM     19  C   UNL     1      44.827   3.170   9.535  0.00  0.00    +0.000 A 
ATOM     20  C   UNL     1      45.512   2.049   9.049  0.00  0.00    +0.000 A 
BRANCH  15  22
ATOM     21  N   UNL     1      46.644  -0.220   7.680  0.00  0.00    +0.000 N 
ATOM     22  C   UNL     1      47.069   1.036   7.342  0.00  0.00    +0.000 C 
ATOM     23  O   UNL     1      47.989   1.203   6.554  0.00  0.00    +0.000 OA
ATOM     24  H   UNL     1      47.078  -0.985   7.176  0.00  0.00    +0.000 HD
ATOM     25  H   UNL     1      45.737  -0.393   8.090  0.00  0.00    +0.000 HD
ENDBRANCH  15  22
ENDBRANCH  14  19
ENDBRANCH   1  14
TORSDOF 5
ENDMDL
MODEL 3
REMARK VINA RESULT:    -7.862      2.445      7.019
REMARK INTER + INTRA:         -10.846
REMARK INTER:                 -10.118
REMARK INTRA:                  -0.727
REMARK UNBOUND:                -0.686
REMARK  Name = 
REMARK  5 active torsions:
REMARK  status: ('A' for Active; 'I' for Inactive)
REMARK    1  A    between atoms: C_2  and  C_4
REMARK    2  A    between atoms: C_8  and  C_9
REMARK    3  A    between atoms: C_9  and  C_10
REMARK    4  A    between atoms: C_10  and  C_11
REMARK    5  A    between atoms: C_15  and  C_16
REMARK                            x       y       z     vdW  Elec       q    Type
REMARK                         _______ _______ _______ _____ _____    ______ ____
ROOT
ATOM      1  C   UNL     1      43.857   4.429  10.617  0.00  0.00    +0.000 C 
ENDROOT
BRANCH   1   2
ATOM      2  C   UNL     1      44.970   4.627  11.618  0.00  0.00    +0.000 A 
ATOM      3  C   UNL     1      45.167   3.717  12.647  0.00  0.00    +0.000 A 
ATOM      4  N   UNL     1      46.131   3.836  13.586  0.00  0.00    +0.000 NA
ATOM      5  C   UNL     1      46.939   4.924  13.505  0.00  0.00    +0.000 A 
ATOM      6  C   UNL     1      46.843   5.921  12.535  0.00  0.00    +0.000 A 
ATOM      7  C   UNL     1      45.819   5.743  11.594  0.00  0.00    +0.000 A 
BRANCH   6   8
ATOM      8  C   UNL     1      47.757   7.083  12.470  0.00  0.00    +0.000 A 
ATOM      9  C   UNL     1      49.113   6.974  12.807  0.00  0.00    +0.000 A 
ATOM     10  C   UNL     1      49.936   8.088  12.693  0.00  0.00    +0.000 A 
ATOM     11  N   UNL     1      49.516   9.292  12.263  0.00  0.00    +0.000 NA
ATOM     12  C   UNL     1      48.213   9.393  11.941  0.00  0.00    +0.000 A 
ATOM     13  C   UNL     1      47.313   8.341  12.032  0.00  0.00    +0.000 A 
ENDBRANCH   6   8
ENDBRANCH   1   2
BRANCH   1  14
ATOM     14  C   UNL     1      44.306   4.565   9.154  0.00  0.00    +0.000 C 
BRANCH  14  19
ATOM     15  C   UNL     1      46.616   2.333   7.128  0.00  0.00    +0.000 A 
ATOM     16  C   UNL     1      46.369   1.129   7.774  0.00  0.00    +0.000 A 
ATOM     17  N   UNL     1      45.517   0.996   8.822  0.00  0.00    +0.000 NA
ATOM     18  C   UNL     1      44.875   2.112   9.232  0.00  0.00    +0.000 A 
ATOM     19  C   UNL     1      45.037   3.361   8.640  0.00  0.00    +0.000 A 
ATOM     20  C   UNL     1      45.922   3.463   7.559  0.00  0.00    +0.000 A 
BRANCH  15  22
ATOM     21  N   UNL     1      47.428   3.344   5.075  0.00  0.00    +0.000 N 
ATOM     22  C   UNL     1      47.589   2.365   6.016  0.00  0.00    +0.000 C 
ATOM     23  O   UNL     1      48.522   1.577   5.957  0.00  0.00    +0.000 OA
ATOM     24  H   UNL     1      48.169   3.425   4.388  0.00  0.00    +0.000 HD
ATOM     25  H   UNL     1      46.858   4.163   5.237  0.00  0.00    +0.000 HD
ENDBRANCH  15  22
ENDBRANCH  14  19
ENDBRANCH   1  14
TORSDOF 5
ENDMDL
MODEL 4
REMARK VINA RESULT:    -7.742      2.040      2.943
REMARK INTER + INTRA:         -10.690
REMARK INTER:                  -9.900
REMARK INTRA:                  -0.790
REMARK UNBOUND:                -0.686
REMARK  Name = 
REMARK  5 active torsions:
REMARK  status: ('A' for Active; 'I' for Inactive)
REMARK    1  A    between atoms: C_2  and  C_4
REMARK    2  A    between atoms: C_8  and  C_9
REMARK    3  A    between atoms: C_9  and  C_10
REMARK    4  A    between atoms: C_10  and  C_11
REMARK    5  A    between atoms: C_15  and  C_16
REMARK                            x       y       z     vdW  Elec       q    Type
REMARK                         _______ _______ _______ _____ _____    ______ ____
ROOT
ATOM      1  C   UNL     1      44.451   6.611  11.261  0.00  0.00    +0.000 C 
ENDROOT
BRANCH   1   2
ATOM      2  C   UNL     1      44.330   5.172  10.818  0.00  0.00    +0.000 A 
ATOM      3  C   UNL     1      43.458   4.305  11.460  0.00  0.00    +0.000 A 
ATOM      4  N   UNL     1      43.307   3.003  11.130  0.00  0.00    +0.000 NA
ATOM      5  C   UNL     1      44.071   2.535  10.110  0.00  0.00    +0.000 A 
ATOM      6  C   UNL     1      44.996   3.290   9.391  0.00  0.00    +0.000 A 
ATOM      7  C   UNL     1      45.111   4.630   9.786  0.00  0.00    +0.000 A 
BRANCH   6   8
ATOM      8  C   UNL     1      45.797   2.745   8.272  0.00  0.00    +0.000 A 
ATOM      9  C   UNL     1      46.200   3.546   7.196  0.00  0.00    +0.000 A 
ATOM     10  C   UNL     1      46.983   2.993   6.189  0.00  0.00    +0.000 A 
ATOM     11  N   UNL     1      47.398   1.713   6.177  0.00  0.00    +0.000 NA
ATOM     12  C   UNL     1      47.008   0.946   7.212  0.00  0.00    +0.000 A 
ATOM     13  C   UNL     1      46.219   1.406   8.257  0.00  0.00    +0.000 A 
ENDBRANCH   6   8
ENDBRANCH   1   2
BRANCH   1  14
ATOM     14  C   UNL     1      45.035   6.780  12.671  0.00  0.00    +0.000 C 
BRANCH  14  19
ATOM     15  C   UNL     1      48.539   8.148  12.142  0.00  0.00    +0.000 A 
ATOM     16  C   UNL     1      49.257   7.144  12.778  0.00  0.00    +0.000 A 
ATOM     17  N   UNL     1      48.684   6.067  13.372  0.00  0.00    +0.000 NA
ATOM     18  C   UNL     1      47.338   5.984  13.316  0.00  0.00    +0.000 A 
ATOM     19  C   UNL     1      46.528   6.924  12.685  0.00  0.00    +0.000 A 
ATOM     20  C   UNL     1      47.151   8.022  12.080  0.00  0.00    +0.000 A 
BRANCH  15  22
ATOM     21  N   UNL     1      50.607   9.127  11.328  0.00  0.00    +0.000 N 
ATOM     22  C   UNL     1      49.268   9.291  11.555  0.00  0.00    +0.000 C 
ATOM     23  O   UNL     1      48.695  10.327  11.247  0.00  0.00    +0.000 OA
ATOM     24  H   UNL     1      51.065   9.873  10.818  0.00  0.00    +0.000 HD
ATOM     25  H   UNL     1      51.045   8.216  11.305  0.00  0.00    +0.000 HD
ENDBRANCH  15  22
ENDBRANCH  14  19
ENDBRANCH   1  14
TORSDOF 5
ENDMDL
MODEL 5
REMARK VINA RESULT:    -7.698      1.230      1.504
REMARK INTER + INTRA:         -10.633
REMARK INTER:                  -9.882
REMARK INTRA:                  -0.752
REMARK UNBOUND:                -0.686
REMARK  Name = 
REMARK  5 active torsions:
REMARK  status: ('A' for Active; 'I' for Inactive)
REMARK    1  A    between atoms: C_2  and  C_4
REMARK    2  A    between atoms: C_8  and  C_9
REMARK    3  A    between atoms: C_9  and  C_10
REMARK    4  A    between atoms: C_10  and  C_11
REMARK    5  A    between atoms: C_15  and  C_16
REMARK                            x       y       z     vdW  Elec       q    Type
REMARK                         _______ _______ _______ _____ _____    ______ ____
ROOT
ATOM      1  C   UNL     1      45.121   5.795  12.559  0.00  0.00    +0.000 C 
ENDROOT
BRANCH   1   2
ATOM      2  C   UNL     1      44.709   4.613  11.713  0.00  0.00    +0.000 A 
ATOM      3  C   UNL     1      43.641   3.811  12.090  0.00  0.00    +0.000 A 
ATOM      4  N   UNL     1      43.225   2.731  11.393  0.00  0.00    +0.000 NA
ATOM      5  C   UNL     1      43.913   2.425  10.264  0.00  0.00    +0.000 A 
ATOM      6  C   UNL     1      45.012   3.133   9.779  0.00  0.00    +0.000 A 
ATOM      7  C   UNL     1      45.398   4.239  10.551  0.00  0.00    +0.000 A 
BRANCH   6   8
ATOM      8  C   UNL     1      45.724   2.777   8.531  0.00  0.00    +0.000 A 
ATOM      9  C   UNL     1      45.978   3.725   7.532  0.00  0.00    +0.000 A 
ATOM     10  C   UNL     1      46.683   3.346   6.396  0.00  0.00    +0.000 A 
ATOM     11  N   UNL     1      47.158   2.105   6.185  0.00  0.00    +0.000 NA
ATOM     12  C   UNL     1      46.911   1.197   7.147  0.00  0.00    +0.000 A 
ATOM     13  C   UNL     1      46.208   1.478   8.309  0.00  0.00    +0.000 A 
ENDBRANCH   6   8
ENDBRANCH   1   2
BRANCH   1  14
ATOM     14  C   UNL     1      46.632   6.071  12.547  0.00  0.00    +0.000 C 
BRANCH  14  19
ATOM     15  C   UNL     1      47.709   4.531  15.847  0.00  0.00    +0.000 A 
ATOM     16  C   UNL     1      48.539   5.549  16.296  0.00  0.00    +0.000 A 
ATOM     17  N   UNL     1      48.779   6.689  15.600  0.00  0.00    +0.000 NA
ATOM     18  C   UNL     1      48.152   6.821  14.412  0.00  0.00    +0.000 A 
ATOM     19  C   UNL     1      47.286   5.870  13.881  0.00  0.00    +0.000 A 
ATOM     20  C   UNL     1      47.058   4.706  14.626  0.00  0.00    +0.000 A 
BRANCH  15  22
ATOM     21  N   UNL     1      48.592   2.438  16.707  0.00  0.00    +0.000 N 
ATOM     22  C   UNL     1      47.545   3.319  16.677  0.00  0.00    +0.000 C 
ATOM     23  O   UNL     1      46.536   3.128  17.340  0.00  0.00    +0.000 OA
ATOM     24  H   UNL     1      48.510   1.676  17.371  0.00  0.00    +0.000 HD
ATOM     25  H   UNL     1      49.523   2.692  16.409  0.00  0.00    +0.000 HD
ENDBRANCH  15  22
ENDBRANCH  14  19
ENDBRANCH   1  14
TORSDOF 5
ENDMDL
MODEL 6
REMARK VINA RESULT:    -7.315      2.301      7.480
REMARK INTER + INTRA:         -10.139
REMARK INTER:                  -9.444
REMARK INTRA:                  -0.695
REMARK UNBOUND:                -0.686
REMARK  Name = 
REMARK  5 active torsions:
REMARK  status: ('A' for Active; 'I' for Inactive)
REMARK    1  A    between atoms: C_2  and  C_4
REMARK    2  A    between atoms: C_8  and  C_9
REMARK    3  A    between atoms: C_9  and  C_10
REMARK    4  A    between atoms: C_10  and  C_11
REMARK    5  A    between atoms: C_15  and  C_16
REMARK                            x       y       z     vdW  Elec       q    Type
REMARK                         _______ _______ _______ _____ _____    ______ ____
ROOT
ATOM      1  C   UNL     1      44.293   4.464  10.985  0.00  0.00    +0.000 C 
ENDROOT
BRANCH   1   2
ATOM      2  C   UNL     1      45.418   5.228  11.642  0.00  0.00    +0.000 A 
ATOM      3  C   UNL     1      46.023   6.295  10.993  0.00  0.00    +0.000 A 
ATOM      4  N   UNL     1      47.042   7.014  11.511  0.00  0.00    +0.000 NA
ATOM      5  C   UNL     1      47.492   6.649  12.739  0.00  0.00    +0.000 A 
ATOM      6  C   UNL     1      46.986   5.592  13.494  0.00  0.00    +0.000 A 
ATOM      7  C   UNL     1      45.935   4.880  12.898  0.00  0.00    +0.000 A 
BRANCH   6   8
ATOM      8  C   UNL     1      47.492   5.238  14.839  0.00  0.00    +0.000 A 
ATOM      9  C   UNL     1      48.445   6.025  15.498  0.00  0.00    +0.000 A 
ATOM     10  C   UNL     1      48.859   5.667  16.776  0.00  0.00    +0.000 A 
ATOM     11  N   UNL     1      48.393   4.597  17.445  0.00  0.00    +0.000 NA
ATOM     12  C   UNL     1      47.478   3.843  16.808  0.00  0.00    +0.000 A 
ATOM     13  C   UNL     1      47.012   4.114  15.530  0.00  0.00    +0.000 A 
ENDBRANCH   6   8
ENDBRANCH   1   2
BRANCH   1  14
ATOM     14  C   UNL     1      44.330   4.501   9.450  0.00  0.00    +0.000 C 
BRANCH  14  19
ATOM     15  C   UNL     1      46.583   2.363   7.266  0.00  0.00    +0.000 A 
ATOM     16  C   UNL     1      46.278   1.118   7.799  0.00  0.00    +0.000 A 
ATOM     17  N   UNL     1      45.404   0.929   8.819  0.00  0.00    +0.000 NA
ATOM     18  C   UNL     1      44.800   2.029   9.318  0.00  0.00    +0.000 A 
ATOM     19  C   UNL     1      45.021   3.318   8.841  0.00  0.00    +0.000 A 
ATOM     20  C   UNL     1      45.928   3.478   7.786  0.00  0.00    +0.000 A 
BRANCH  15  22
ATOM     21  N   UNL     1      47.351   3.391   5.203  0.00  0.00    +0.000 N 
ATOM     22  C   UNL     1      47.575   2.452   6.174  0.00  0.00    +0.000 C 
ATOM     23  O   UNL     1      48.574   1.748   6.155  0.00  0.00    +0.000 OA
ATOM     24  H   UNL     1      48.098   3.519   4.531  0.00  0.00    +0.000 HD
ATOM     25  H   UNL     1      46.709   4.160   5.332  0.00  0.00    +0.000 HD
ENDBRANCH  15  22
ENDBRANCH  14  19
ENDBRANCH   1  14
TORSDOF 5
ENDMDL
MODEL 7
REMARK VINA RESULT:    -7.268      2.584      3.186
REMARK INTER + INTRA:         -10.078
REMARK INTER:                  -9.417
REMARK INTRA:                  -0.661
REMARK UNBOUND:                -0.686
REMARK  Name = 
REMARK  5 active torsions:
REMARK  status: ('A' for Active; 'I' for Inactive)
REMARK    1  A    between atoms: C_2  and  C_4
REMARK    2  A    between atoms: C_8  and  C_9
REMARK    3  A    between atoms: C_9  and  C_10
REMARK    4  A    between atoms: C_10  and  C_11
REMARK    5  A    between atoms: C_15  and  C_16
REMARK                            x       y       z     vdW  Elec       q    Type
REMARK                         _______ _______ _______ _____ _____    ______ ____
ROOT
ATOM      1  C   UNL     1      44.435   6.649  11.370  0.00  0.00    +0.000 C 
ENDROOT
BRANCH   1   2
ATOM      2  C   UNL     1      44.291   5.216  10.915  0.00  0.00    +0.000 A 
ATOM      3  C   UNL     1      43.377   4.368  11.525  0.00  0.00    +0.000 A 
ATOM      4  N   UNL     1      43.203   3.073  11.182  0.00  0.00    +0.000 NA
ATOM      5  C   UNL     1      43.985   2.590  10.183  0.00  0.00    +0.000 A 
ATOM      6  C   UNL     1      44.951   3.325   9.497  0.00  0.00    +0.000 A 
ATOM      7  C   UNL     1      45.088   4.660   9.904  0.00  0.00    +0.000 A 
BRANCH   6   8
ATOM      8  C   UNL     1      45.771   2.766   8.399  0.00  0.00    +0.000 A 
ATOM      9  C   UNL     1      46.158   1.420   8.381  0.00  0.00    +0.000 A 
ATOM     10  C   UNL     1      46.898   0.937   7.308  0.00  0.00    +0.000 A 
ATOM     11  N   UNL     1      47.270   1.686   6.254  0.00  0.00    +0.000 NA
ATOM     12  C   UNL     1      46.896   2.979   6.275  0.00  0.00    +0.000 A 
ATOM     13  C   UNL     1      46.168   3.554   7.306  0.00  0.00    +0.000 A 
ENDBRANCH   6   8
ENDBRANCH   1   2
BRANCH   1  14
ATOM     14  C   UNL     1      45.453   6.841  12.504  0.00  0.00    +0.000 C 
BRANCH  14  19
ATOM     15  C   UNL     1      48.648   8.779  11.822  0.00  0.00    +0.000 A 
ATOM     16  C   UNL     1      48.114  10.059  11.776  0.00  0.00    +0.000 A 
ATOM     17  N   UNL     1      46.795  10.333  11.939  0.00  0.00    +0.000 NA
ATOM     18  C   UNL     1      45.978   9.283  12.172  0.00  0.00    +0.000 A 
ATOM     19  C   UNL     1      46.415   7.965  12.258  0.00  0.00    +0.000 A 
ATOM     20  C   UNL     1      47.783   7.717  12.087  0.00  0.00    +0.000 A 
BRANCH  15  22
ATOM     21  N   UNL     1      50.587   7.322  11.690  0.00  0.00    +0.000 N 
ATOM     22  C   UNL     1      50.097   8.597  11.599  0.00  0.00    +0.000 C 
ATOM     23  O   UNL     1      50.824   9.535  11.307  0.00  0.00    +0.000 OA
ATOM     24  H   UNL     1      51.555   7.199  11.419  0.00  0.00    +0.000 HD
ATOM     25  H   UNL     1      49.989   6.509  11.649  0.00  0.00    +0.000 HD
ENDBRANCH  15  22
ENDBRANCH  14  19
ENDBRANCH   1  14
TORSDOF 5
ENDMDL
MODEL 8
REMARK VINA RESULT:    -7.232      1.668      2.095
REMARK INTER + INTRA:         -10.031
REMARK INTER:                  -9.318
REMARK INTRA:                  -0.713
REMARK UNBOUND:                -0.686
REMARK  Name = 
REMARK  5 active torsions:
REMARK  status: ('A' for Active; 'I' for Inactive)
REMARK    1  A    between atoms: C_2  and  C_4
REMARK    2  A    between atoms: C_8  and  C_9
REMARK    3  A    between atoms: C_9  and  C_10
REMARK    4  A    between atoms: C_10  and  C_11
REMARK    5  A    between atoms: C_15  and  C_16
REMARK                            x       y       z     vdW  Elec       q    Type
REMARK                         _______ _______ _______ _____ _____    ______ ____
ROOT
ATOM      1  C   UNL     1      44.662   6.636  11.334  0.00  0.00    +0.000 C 
ENDROOT
BRANCH   1   2
ATOM      2  C   UNL     1      44.474   5.220  10.843  0.00  0.00    +0.000 A 
ATOM      3  C   UNL     1      43.536   4.384  11.433  0.00  0.00    +0.000 A 
ATOM      4  N   UNL     1      43.322   3.104  11.057  0.00  0.00    +0.000 NA
ATOM      5  C   UNL     1      44.088   2.624  10.045  0.00  0.00    +0.000 A 
ATOM      6  C   UNL     1      45.075   3.347   9.376  0.00  0.00    +0.000 A 
ATOM      7  C   UNL     1      45.253   4.666   9.817  0.00  0.00    +0.000 A 
BRANCH   6   8
ATOM      8  C   UNL     1      45.876   2.792   8.262  0.00  0.00    +0.000 A 
ATOM      9  C   UNL     1      46.292   1.454   8.249  0.00  0.00    +0.000 A 
ATOM     10  C   UNL     1      47.011   0.974   7.161  0.00  0.00    +0.000 A 
ATOM     11  N   UNL     1      47.339   1.718   6.089  0.00  0.00    +0.000 NA
ATOM     12  C   UNL     1      46.938   3.003   6.106  0.00  0.00    +0.000 A 
ATOM     13  C   UNL     1      46.226   3.574   7.150  0.00  0.00    +0.000 A 
ENDBRANCH   6   8
ENDBRANCH   1   2
BRANCH   1  14
ATOM     14  C   UNL     1      45.257   6.729  12.748  0.00  0.00    +0.000 C 
BRANCH  14  19
ATOM     15  C   UNL     1      48.863   7.036  13.899  0.00  0.00    +0.000 A 
ATOM     16  C   UNL     1      49.438   7.424  12.696  0.00  0.00    +0.000 A 
ATOM     17  N   UNL     1      48.741   7.582  11.543  0.00  0.00    +0.000 NA
ATOM     18  C   UNL     1      47.410   7.354  11.598  0.00  0.00    +0.000 A 
ATOM     19  C   UNL     1      46.735   6.982  12.757  0.00  0.00    +0.000 A 
ATOM     20  C   UNL     1      47.484   6.830  13.930  0.00  0.00    +0.000 A 
BRANCH  15  22
ATOM     21  N   UNL     1      51.012   7.325  14.993  0.00  0.00    +0.000 N 
ATOM     22  C   UNL     1      49.726   6.867  15.086  0.00  0.00    +0.000 C 
ATOM     23  O   UNL     1      49.303   6.375  16.122  0.00  0.00    +0.000 OA
ATOM     24  H   UNL     1      51.552   7.310  15.850  0.00  0.00    +0.000 HD
ATOM     25  H   UNL     1      51.305   7.974  14.275  0.00  0.00    +0.000 HD
ENDBRANCH  15  22
ENDBRANCH  14  19
ENDBRANCH   1  14
TORSDOF 5
ENDMDL
MODEL 9
REMARK VINA RESULT:    -6.694      2.317      7.482
REMARK INTER + INTRA:          -9.336
REMARK INTER:                  -8.534
REMARK INTRA:                  -0.802
REMARK UNBOUND:                -0.686
REMARK  Name = 
REMARK  5 active torsions:
REMARK  status: ('A' for Active; 'I' for Inactive)
REMARK    1  A    between atoms: C_2  and  C_4
REMARK    2  A    between atoms: C_8  and  C_9
REMARK    3  A    between atoms: C_9  and  C_10
REMARK    4  A    between atoms: C_10  and  C_11
REMARK    5  A    between atoms: C_15  and  C_16
REMARK                            x       y       z     vdW  Elec       q    Type
REMARK                         _______ _______ _______ _____ _____    ______ ____
ROOT
ATOM      1  C   UNL     1      46.826   6.915  11.823  0.00  0.00    +0.000 C 
ENDROOT
BRANCH   1   2
ATOM      2  C   UNL     1      47.688   7.013  13.059  0.00  0.00    +0.000 A 
ATOM      3  C   UNL     1      48.599   8.050  13.206  0.00  0.00    +0.000 A 
ATOM      4  N   UNL     1      49.412   8.194  14.275  0.00  0.00    +0.000 NA
ATOM      5  C   UNL     1      49.322   7.253  15.249  0.00  0.00    +0.000 A 
ATOM      6  C   UNL     1      48.463   6.155  15.223  0.00  0.00    +0.000 A 
ATOM      7  C   UNL     1      47.651   6.057  14.084  0.00  0.00    +0.000 A 
BRANCH   6   8
ATOM      8  C   UNL     1      48.381   5.160  16.316  0.00  0.00    +0.000 A 
ATOM      9  C   UNL     1      47.323   4.247  16.403  0.00  0.00    +0.000 A 
ATOM     10  C   UNL     1      47.314   3.309  17.429  0.00  0.00    +0.000 A 
ATOM     11  N   UNL     1      48.276   3.208  18.364  0.00  0.00    +0.000 NA
ATOM     12  C   UNL     1      49.291   4.088  18.277  0.00  0.00    +0.000 A 
ATOM     13  C   UNL     1      49.382   5.065  17.297  0.00  0.00    +0.000 A 
ENDBRANCH   6   8
ENDBRANCH   1   2
BRANCH   1  14
ATOM     14  C   UNL     1      45.321   6.826  12.120  0.00  0.00    +0.000 C 
BRANCH  14  19
ATOM     15  C   UNL     1      44.345   3.544  10.475  0.00  0.00    +0.000 A 
ATOM     16  C   UNL     1      43.712   2.945  11.556  0.00  0.00    +0.000 A 
ATOM     17  N   UNL     1      43.592   3.525  12.776  0.00  0.00    +0.000 NA
ATOM     18  C   UNL     1      44.114   4.763  12.917  0.00  0.00    +0.000 A 
ATOM     19  C   UNL     1      44.749   5.458  11.893  0.00  0.00    +0.000 A 
ATOM     20  C   UNL     1      44.854   4.831  10.645  0.00  0.00    +0.000 A 
BRANCH  15  22
ATOM     21  N   UNL     1      44.294   3.526   8.047  0.00  0.00    +0.000 N 
ATOM     22  C   UNL     1      44.443   2.805   9.200  0.00  0.00    +0.000 C 
ATOM     23  O   UNL     1      44.687   1.607   9.170  0.00  0.00    +0.000 OA
ATOM     24  H   UNL     1      44.482   3.028   7.185  0.00  0.00    +0.000 HD
ATOM     25  H   UNL     1      44.373   4.533   8.025  0.00  0.00    +0.000 HD
ENDBRANCH  15  22
ENDBRANCH  14  19
ENDBRANCH   1  14
TORSDOF 5
ENDMDL
