MODEL 1
REMARK VINA RESULT:    -7.748      0.000      0.000
REMARK INTER + INTRA:         -13.232
REMARK INTER:                 -12.278
REMARK INTRA:                  -0.954
REMARK UNBOUND:                -0.954
REMARK  Name = 
REMARK  11 active torsions:
REMARK  status: ('A' for Active; 'I' for Inactive)
REMARK    1  A    between atoms: C_1  and  O_2
REMARK    2  A    between atoms: O_2  and  C_3
REMARK    3  A    between atoms: C_3  and  C_4
REMARK    4  A    between atoms: C_4  and  N_5
REMARK    5  A    between atoms: C_4  and  C_13
REMARK    6  A    between atoms: N_5  and  C_6
REMARK    7  A    between atoms: C_6  and  C_7
REMARK    8  A    between atoms: C_16  and  C_17
REMARK    9  A    between atoms: C_17  and  C_18
REMARK   10  A    between atoms: C_18  and  N_19
REMARK   11  A    between atoms: N_19  and  C_20
REMARK                            x       y       z     vdW  Elec       q    Type
REMARK                         _______ _______ _______ _____ _____    ______ ____
ROOT
ATOM      1  C   UNL     1      45.766   5.619  11.615  0.00  0.00    +0.000 A 
ATOM      2  C   UNL     1      45.949   6.983  11.425  0.00  0.00    +0.000 A 
ATOM      3  C   UNL     1      46.706   7.694  12.347  0.00  0.00    +0.000 A 
ATOM      4  C   UNL     1      47.312   7.038  13.425  0.00  0.00    +0.000 A 
ATOM      5  C   UNL     1      47.075   5.674  13.534  0.00  0.00    +0.000 A 
ATOM      6  N   UNL     1      46.307   4.967  12.676  0.00  0.00    +0.000 NA
ENDROOT
BRANCH   1   7
ATOM      7  C   UNL     1      44.887   4.824  10.644  0.00  0.00    +0.000 C 
BRANCH   7   8
ATOM      8  N   UNL     1      45.210   5.080   9.215  0.00  0.00    +0.000 NA
ATOM      9  H   UNL     1      46.222   5.152   9.119  0.00  0.00    +0.000 HD
BRANCH   8  10
ATOM     10  C   UNL     1      44.704   4.030   8.332  0.00  0.00    +0.000 C 
BRANCH  10  11
ATOM     11  C   UNL     1      45.766   3.123   7.754  0.00  0.00    +0.000 A 
ATOM     12  C   UNL     1      45.922   1.830   8.283  0.00  0.00    +0.000 A 
ATOM     13  C   UNL     1      46.822   0.928   7.714  0.00  0.00    +0.000 A 
ATOM     14  C   UNL     1      47.574   1.305   6.602  0.00  0.00    +0.000 A 
ATOM     15  C   UNL     1      47.427   2.584   6.069  0.00  0.00    +0.000 A 
ATOM     16  C   UNL     1      46.527   3.488   6.634  0.00  0.00    +0.000 A 
ENDBRANCH  10  11
ENDBRANCH   8  10
ENDBRANCH   7   8
BRANCH   7  17
ATOM     17  C   UNL     1      43.407   5.160  10.974  0.00  0.00    +0.000 C 
BRANCH  17  19
ATOM     18  C   UNL     1      43.419   2.905  11.615  0.00  0.00    +0.000 C 
ATOM     19  O   UNL     1      42.793   4.169  11.805  0.00  0.00    +0.000 OA
ENDBRANCH  17  19
ENDBRANCH   7  17
ENDBRANCH   1   7
BRANCH   4  20
ATOM     20  C   UNL     1      48.203   7.720  14.437  0.00  0.00    +0.000 C 
BRANCH  20  21
ATOM     21  C   UNL     1      49.002   6.736  15.291  0.00  0.00    +0.000 C 
BRANCH  21  22
ATOM     22  N   UNL     1      48.465   6.580  16.642  0.00  0.00    +0.000 N 
ATOM     23  H   UNL     1      47.611   7.119  16.786  0.00  0.00    +0.000 HD
BRANCH  22  24
ATOM     24  C   UNL     1      48.272   5.234  17.023  0.00  0.00    +0.000 A 
ATOM     25  C   UNL     1      49.370   4.454  17.385  0.00  0.00    +0.000 A 
ATOM     26  C   UNL     1      49.200   3.115  17.738  0.00  0.00    +0.000 A 
ATOM     27  C   UNL     1      47.924   2.572  17.689  0.00  0.00    +0.000 A 
ATOM     28  N   UNL     1      46.839   3.263  17.296  0.00  0.00    +0.000 NA
ATOM     29  C   UNL     1      47.046   4.557  16.955  0.00  0.00    +0.000 A 
ENDBRANCH  22  24
ENDBRANCH  21  22
ENDBRANCH  20  21
ENDBRANCH   4  20
TORSDOF 10
ENDMDL
MODEL 2
REMARK VINA RESULT:    -7.672      1.638      2.203
REMARK INTER + INTRA:         -13.112
REMARK INTER:                 -12.319
REMARK INTRA:                  -0.793
REMARK UNBOUND:                -0.954
REMARK  Name = 
REMARK  11 active torsions:
REMARK  status: ('A' for Active; 'I' for Inactive)
REMARK    1  A    between atoms: C_1  and  O_2
REMARK    2  A    between atoms: O_2  and  C_3
REMARK    3  A    between atoms: C_3  and  C_4
REMARK    4  A    between atoms: C_4  and  N_5
REMARK    5  A    between atoms: C_4  and  C_13
REMARK    6  A    between atoms: N_5  and  C_6
REMARK    7  A    between atoms: C_6  and  C_7
REMARK    8  A    between atoms: C_16  and  C_17
REMARK    9  A    between atoms: C_17  and  C_18
REMARK   10  A    between atoms: C_18  and  N_19
REMARK   11  A    between atoms: N_19  and  C_20
REMARK                            x       y       z     vdW  Elec       q    Type
REMARK                         _______ _______ _______ _____ _____    ______ ____
ROOT
ATOM      1  C   UNL     1      45.676   4.621  12.583  0.00  0.00    +0.000 A 
ATOM      2  C   UNL     1      46.176   5.897  12.362  0.00  0.00    +0.000 A 
ATOM      3  C   UNL     1      47.076   6.434  13.273  0.00  0.00    +0.000 A 
ATOM      4  C   UNL     1      47.506   5.683  14.372  0.00  0.00    +0.000 A 
ATOM      5  C   UNL     1      46.953   4.416  14.514  0.00  0.00    +0.000 A 
ATOM      6  N   UNL     1      46.044   3.887  13.666  0.00  0.00    +0.000 NA
ENDROOT
BRANCH   1   7
ATOM      7  C   UNL     1      44.638   4.029  11.624  0.00  0.00    +0.000 C 
BRANCH   7   8
ATOM      8  N   UNL     1      45.105   2.791  10.944  0.00  0.00    +0.000 NA
ATOM      9  H   UNL     1      44.900   1.994  11.545  0.00  0.00    +0.000 HD
BRANCH   8  10
ATOM     10  C   UNL     1      44.476   2.600   9.638  0.00  0.00    +0.000 C 
BRANCH  10  11
ATOM     11  C   UNL     1      45.442   2.440   8.487  0.00  0.00    +0.000 A 
ATOM     12  C   UNL     1      45.733   3.553   7.680  0.00  0.00    +0.000 A 
ATOM     13  C   UNL     1      46.693   3.473   6.670  0.00  0.00    +0.000 A 
ATOM     14  C   UNL     1      47.381   2.279   6.459  0.00  0.00    +0.000 A 
ATOM     15  C   UNL     1      47.101   1.169   7.253  0.00  0.00    +0.000 A 
ATOM     16  C   UNL     1      46.143   1.246   8.265  0.00  0.00    +0.000 A 
ENDBRANCH  10  11
ENDBRANCH   8  10
ENDBRANCH   7   8
BRANCH   7  17
ATOM     17  C   UNL     1      44.256   5.140  10.609  0.00  0.00    +0.000 C 
BRANCH  17  19
ATOM     18  C   UNL     1      42.430   5.364  12.062  0.00  0.00    +0.000 C 
ATOM     19  O   UNL     1      42.886   5.541  10.725  0.00  0.00    +0.000 OA
ENDBRANCH  17  19
ENDBRANCH   7  17
ENDBRANCH   1   7
BRANCH   4  20
ATOM     20  C   UNL     1      48.528   6.162  15.377  0.00  0.00    +0.000 C 
BRANCH  20  21
ATOM     21  C   UNL     1      48.450   5.422  16.711  0.00  0.00    +0.000 C 
BRANCH  21  22
ATOM     22  N   UNL     1      49.744   5.308  17.381  0.00  0.00    +0.000 N 
ATOM     23  H   UNL     1      49.725   5.683  18.330  0.00  0.00    +0.000 HD
BRANCH  22  24
ATOM     24  C   UNL     1      50.270   3.996  17.378  0.00  0.00    +0.000 A 
ATOM     25  C   UNL     1      51.558   3.767  17.859  0.00  0.00    +0.000 A 
ATOM     26  C   UNL     1      52.103   2.483  17.838  0.00  0.00    +0.000 A 
ATOM     27  C   UNL     1      51.349   1.451  17.299  0.00  0.00    +0.000 A 
ATOM     28  N   UNL     1      50.123   1.625  16.772  0.00  0.00    +0.000 NA
ATOM     29  C   UNL     1      49.632   2.886  16.805  0.00  0.00    +0.000 A 
ENDBRANCH  22  24
ENDBRANCH  21  22
ENDBRANCH  20  21
ENDBRANCH   4  20
TORSDOF 10
ENDMDL
MODEL 3
REMARK VINA RESULT:    -7.438      2.154      8.593
REMARK INTER + INTRA:         -12.741
REMARK INTER:                 -11.811
REMARK INTRA:                  -0.930
REMARK UNBOUND:                -0.954
REMARK  Name = 
REMARK  11 active torsions:
REMARK  status: ('A' for Active; 'I' for Inactive)
REMARK    1  A    between atoms: C_1  and  O_2
REMARK    2  A    between atoms: O_2  and  C_3
REMARK    3  A    between atoms: C_3  and  C_4
REMARK    4  A    between atoms: C_4  and  N_5
REMARK    5  A    between atoms: C_4  and  C_13
REMARK    6  A    between atoms: N_5  and  C_6
REMARK    7  A    between atoms: C_6  and  C_7
REMARK    8  A    between atoms: C_16  and  C_17
REMARK    9  A    between atoms: C_17  and  C_18
REMARK   10  A    between atoms: C_18  and  N_19
REMARK   11  A    between atoms: N_19  and  C_20
REMARK                            x       y       z     vdW  Elec       q    Type
REMARK                         _______ _______ _______ _____ _____    ______ ____
ROOT
ATOM      1  C   UNL     1      46.506   4.758  13.562  0.00  0.00    +0.000 A 
ATOM      2  C   UNL     1      46.454   5.834  12.687  0.00  0.00    +0.000 A 
ATOM      3  C   UNL     1      45.568   5.789  11.618  0.00  0.00    +0.000 A 
ATOM      4  C   UNL     1      44.711   4.696  11.452  0.00  0.00    +0.000 A 
ATOM      5  C   UNL     1      44.832   3.666  12.375  0.00  0.00    +0.000 A 
ATOM      6  N   UNL     1      45.715   3.665  13.398  0.00  0.00    +0.000 NA
ENDROOT
BRANCH   1   7
ATOM      7  C   UNL     1      47.514   4.758  14.715  0.00  0.00    +0.000 C 
BRANCH   7   8
ATOM      8  N   UNL     1      46.966   4.188  15.975  0.00  0.00    +0.000 NA
ATOM      9  H   UNL     1      46.941   3.173  15.888  0.00  0.00    +0.000 HD
BRANCH   8  10
ATOM     10  C   UNL     1      47.756   4.563  17.148  0.00  0.00    +0.000 C 
BRANCH  10  11
ATOM     11  C   UNL     1      49.105   3.891  17.243  0.00  0.00    +0.000 A 
ATOM     12  C   UNL     1      50.227   4.658  17.603  0.00  0.00    +0.000 A 
ATOM     13  C   UNL     1      51.472   4.057  17.798  0.00  0.00    +0.000 A 
ATOM     14  C   UNL     1      51.609   2.679  17.643  0.00  0.00    +0.000 A 
ATOM     15  C   UNL     1      50.504   1.908  17.287  0.00  0.00    +0.000 A 
ATOM     16  C   UNL     1      49.258   2.505  17.093  0.00  0.00    +0.000 A 
ENDBRANCH  10  11
ENDBRANCH   8  10
ENDBRANCH   7   8
BRANCH   7  17
ATOM     17  C   UNL     1      48.005   6.219  14.904  0.00  0.00    +0.000 C 
BRANCH  17  19
ATOM     18  C   UNL     1      49.662   7.729  14.219  0.00  0.00    +0.000 C 
ATOM     19  O   UNL     1      49.390   6.378  14.578  0.00  0.00    +0.000 OA
ENDBRANCH  17  19
ENDBRANCH   7  17
ENDBRANCH   1   7
BRANCH   4  20
ATOM     20  C   UNL     1      43.674   4.592  10.357  0.00  0.00    +0.000 C 
BRANCH  20  21
ATOM     21  C   UNL     1      44.272   4.227   8.999  0.00  0.00    +0.000 C 
BRANCH  21  22
ATOM     22  N   UNL     1      44.491   2.792   8.834  0.00  0.00    +0.000 N 
ATOM     23  H   UNL     1      43.658   2.306   8.502  0.00  0.00    +0.000 HD
BRANCH  22  24
ATOM     24  C   UNL     1      45.604   2.478   8.022  0.00  0.00    +0.000 A 
ATOM     25  C   UNL     1      45.985   3.351   7.004  0.00  0.00    +0.000 A 
ATOM     26  C   UNL     1      47.064   3.044   6.174  0.00  0.00    +0.000 A 
ATOM     27  C   UNL     1      47.724   1.839   6.365  0.00  0.00    +0.000 A 
ATOM     28  N   UNL     1      47.367   0.936   7.296  0.00  0.00    +0.000 NA
ATOM     29  C   UNL     1      46.310   1.268   8.075  0.00  0.00    +0.000 A 
ENDBRANCH  22  24
ENDBRANCH  21  22
ENDBRANCH  20  21
ENDBRANCH   4  20
TORSDOF 10
ENDMDL
MODEL 4
REMARK VINA RESULT:    -7.348      1.831      2.349
REMARK INTER + INTRA:         -12.598
REMARK INTER:                 -11.738
REMARK INTRA:                  -0.860
REMARK UNBOUND:                -0.954
REMARK  Name = 
REMARK  11 active torsions:
REMARK  status: ('A' for Active; 'I' for Inactive)
REMARK    1  A    between atoms: C_1  and  O_2
REMARK    2  A    between atoms: O_2  and  C_3
REMARK    3  A    between atoms: C_3  and  C_4
REMARK    4  A    between atoms: C_4  and  N_5
REMARK    5  A    between atoms: C_4  and  C_13
REMARK    6  A    between atoms: N_5  and  C_6
REMARK    7  A    between atoms: C_6  and  C_7
REMARK    8  A    between atoms: C_16  and  C_17
REMARK    9  A    between atoms: C_17  and  C_18
REMARK   10  A    between atoms: C_18  and  N_19
REMARK   11  A    between atoms: N_19  and  C_20
REMARK                            x       y       z     vdW  Elec       q    Type
REMARK                         _______ _______ _______ _____ _____    ______ ____
ROOT
ATOM      1  C   UNL     1      45.484   4.339  12.375  0.00  0.00    +0.000 A 
ATOM      2  C   UNL     1      45.980   5.520  11.838  0.00  0.00    +0.000 A 
ATOM      3  C   UNL     1      46.874   6.275  12.587  0.00  0.00    +0.000 A 
ATOM      4  C   UNL     1      47.302   5.830  13.842  0.00  0.00    +0.000 A 
ATOM      5  C   UNL     1      46.755   4.638  14.298  0.00  0.00    +0.000 A 
ATOM      6  N   UNL     1      45.852   3.906  13.610  0.00  0.00    +0.000 NA
ENDROOT
BRANCH   1   7
ATOM      7  C   UNL     1      44.454   3.517  11.594  0.00  0.00    +0.000 C 
BRANCH   7   8
ATOM      8  N   UNL     1      45.067   2.476  10.727  0.00  0.00    +0.000 NA
ATOM      9  H   UNL     1      44.909   1.564  11.154  0.00  0.00    +0.000 HD
BRANCH   8  10
ATOM     10  C   UNL     1      44.522   2.487   9.370  0.00  0.00    +0.000 C 
BRANCH  10  11
ATOM     11  C   UNL     1      45.557   2.416   8.272  0.00  0.00    +0.000 A 
ATOM     12  C   UNL     1      45.810   3.561   7.497  0.00  0.00    +0.000 A 
ATOM     13  C   UNL     1      46.826   3.566   6.539  0.00  0.00    +0.000 A 
ATOM     14  C   UNL     1      47.608   2.428   6.350  0.00  0.00    +0.000 A 
ATOM     15  C   UNL     1      47.367   1.288   7.114  0.00  0.00    +0.000 A 
ATOM     16  C   UNL     1      46.353   1.280   8.073  0.00  0.00    +0.000 A 
ENDBRANCH  10  11
ENDBRANCH   8  10
ENDBRANCH   7   8
BRANCH   7  17
ATOM     17  C   UNL     1      43.585   4.514  10.779  0.00  0.00    +0.000 C 
BRANCH  17  19
ATOM     18  C   UNL     1      42.460   6.406  11.585  0.00  0.00    +0.000 C 
ATOM     19  O   UNL     1      42.452   4.984  11.518  0.00  0.00    +0.000 OA
ENDBRANCH  17  19
ENDBRANCH   7  17
ENDBRANCH   1   7
BRANCH   4  20
ATOM     20  C   UNL     1      48.318   6.554  14.694  0.00  0.00    +0.000 C 
BRANCH  20  21
ATOM     21  C   UNL     1      48.486   5.936  16.082  0.00  0.00    +0.000 C 
BRANCH  21  22
ATOM     22  N   UNL     1      48.314   6.902  17.166  0.00  0.00    +0.000 N 
ATOM     23  H   UNL     1      47.514   7.517  17.016  0.00  0.00    +0.000 HD
BRANCH  22  24
ATOM     24  C   UNL     1      48.252   6.310  18.447  0.00  0.00    +0.000 A 
ATOM     25  C   UNL     1      47.488   6.909  19.448  0.00  0.00    +0.000 A 
ATOM     26  C   UNL     1      47.437   6.354  20.727  0.00  0.00    +0.000 A 
ATOM     27  C   UNL     1      48.186   5.215  20.986  0.00  0.00    +0.000 A 
ATOM     28  N   UNL     1      48.981   4.627  20.074  0.00  0.00    +0.000 NA
ATOM     29  C   UNL     1      49.009   5.200  18.848  0.00  0.00    +0.000 A 
ENDBRANCH  22  24
ENDBRANCH  21  22
ENDBRANCH  20  21
ENDBRANCH   4  20
TORSDOF 10
ENDMDL
MODEL 5
REMARK VINA RESULT:    -7.224      3.088      8.147
REMARK INTER + INTRA:         -12.402
REMARK INTER:                 -11.200
REMARK INTRA:                  -1.202
REMARK UNBOUND:                -0.954
REMARK  Name = 
REMARK  11 active torsions:
REMARK  status: ('A' for Active; 'I' for Inactive)
REMARK    1  A    between atoms: C_1  and  O_2
REMARK    2  A    between atoms: O_2  and  C_3
REMARK    3  A    between atoms: C_3  and  C_4
REMARK    4  A    between atoms: C_4  and  N_5
REMARK    5  A    between atoms: C_4  and  C_13
REMARK    6  A    between atoms: N_5  and  C_6
REMARK    7  A    between atoms: C_6  and  C_7
REMARK    8  A    between atoms: C_16  and  C_17
REMARK    9  A    between atoms: C_17  and  C_18
REMARK   10  A    between atoms: C_18  and  N_19
REMARK   11  A    between atoms: N_19  and  C_20
REMARK                            x       y       z     vdW  Elec       q    Type
REMARK                         _______ _______ _______ _____ _____    ______ ____
ROOT
ATOM      1  C   UNL     1      46.312   6.501  12.321  0.00  0.00    +0.000 A 
ATOM      2  C   UNL     1      46.188   6.334  10.948  0.00  0.00    +0.000 A 
ATOM      3  C   UNL     1      45.504   5.226  10.465  0.00  0.00    +0.000 A 
ATOM      4  C   UNL     1      44.910   4.318  11.349  0.00  0.00    +0.000 A 
ATOM      5  C   UNL     1      45.085   4.565  12.704  0.00  0.00    +0.000 A 
ATOM      6  N   UNL     1      45.783   5.610  13.200  0.00  0.00    +0.000 NA
ENDROOT
BRANCH   1   7
ATOM      7  C   UNL     1      47.112   7.683  12.878  0.00  0.00    +0.000 C 
BRANCH   7   8
ATOM      8  N   UNL     1      46.692   8.994  12.313  0.00  0.00    +0.000 NA
ATOM      9  H   UNL     1      46.857   8.981  11.307  0.00  0.00    +0.000 HD
BRANCH   8  10
ATOM     10  C   UNL     1      45.285   9.292  12.579  0.00  0.00    +0.000 C 
BRANCH  10  11
ATOM     11  C   UNL     1      44.621  10.175  11.549  0.00  0.00    +0.000 A 
ATOM     12  C   UNL     1      43.593   9.641  10.753  0.00  0.00    +0.000 A 
ATOM     13  C   UNL     1      42.887  10.449   9.859  0.00  0.00    +0.000 A 
ATOM     14  C   UNL     1      43.195  11.804   9.756  0.00  0.00    +0.000 A 
ATOM     15  C   UNL     1      44.212  12.345  10.541  0.00  0.00    +0.000 A 
ATOM     16  C   UNL     1      44.918  11.541  11.437  0.00  0.00    +0.000 A 
ENDBRANCH  10  11
ENDBRANCH   8  10
ENDBRANCH   7   8
BRANCH   7  17
ATOM     17  C   UNL     1      48.615   7.393  12.618  0.00  0.00    +0.000 C 
BRANCH  17  19
ATOM     18  C   UNL     1      48.858   6.967  14.910  0.00  0.00    +0.000 C 
ATOM     19  O   UNL     1      49.181   6.517  13.599  0.00  0.00    +0.000 OA
ENDBRANCH  17  19
ENDBRANCH   7  17
ENDBRANCH   1   7
BRANCH   4  20
ATOM     20  C   UNL     1      44.095   3.122  10.912  0.00  0.00    +0.000 C 
BRANCH  20  21
ATOM     21  C   UNL     1      44.256   2.798   9.427  0.00  0.00    +0.000 C 
BRANCH  21  22
ATOM     22  N   UNL     1      45.179   1.692   9.177  0.00  0.00    +0.000 N 
ATOM     23  H   UNL     1      44.696   0.802   9.056  0.00  0.00    +0.000 HD
BRANCH  22  24
ATOM     24  C   UNL     1      46.065   1.926   8.102  0.00  0.00    +0.000 A 
ATOM     25  C   UNL     1      45.969   3.110   7.372  0.00  0.00    +0.000 A 
ATOM     26  C   UNL     1      46.817   3.344   6.289  0.00  0.00    +0.000 A 
ATOM     27  C   UNL     1      47.733   2.362   5.939  0.00  0.00    +0.000 A 
ATOM     28  N   UNL     1      47.833   1.181   6.575  0.00  0.00    +0.000 NA
ATOM     29  C   UNL     1      46.987   0.988   7.614  0.00  0.00    +0.000 A 
ENDBRANCH  22  24
ENDBRANCH  21  22
ENDBRANCH  20  21
ENDBRANCH   4  20
TORSDOF 10
ENDMDL
MODEL 6
REMARK VINA RESULT:    -7.171      2.171      8.410
REMARK INTER + INTRA:         -12.318
REMARK INTER:                 -11.186
REMARK INTRA:                  -1.131
REMARK UNBOUND:                -0.954
REMARK  Name = 
REMARK  11 active torsions:
REMARK  status: ('A' for Active; 'I' for Inactive)
REMARK    1  A    between atoms: C_1  and  O_2
REMARK    2  A    between atoms: O_2  and  C_3
REMARK    3  A    between atoms: C_3  and  C_4
REMARK    4  A    between atoms: C_4  and  N_5
REMARK    5  A    between atoms: C_4  and  C_13
REMARK    6  A    between atoms: N_5  and  C_6
REMARK    7  A    between atoms: C_6  and  C_7
REMARK    8  A    between atoms: C_16  and  C_17
REMARK    9  A    between atoms: C_17  and  C_18
REMARK   10  A    between atoms: C_18  and  N_19
REMARK   11  A    between atoms: N_19  and  C_20
REMARK                            x       y       z     vdW  Elec       q    Type
REMARK                         _______ _______ _______ _____ _____    ______ ____
ROOT
ATOM      1  C   UNL     1      47.234   5.753  13.079  0.00  0.00    +0.000 A 
ATOM      2  C   UNL     1      46.583   6.323  11.993  0.00  0.00    +0.000 A 
ATOM      3  C   UNL     1      45.581   5.603  11.355  0.00  0.00    +0.000 A 
ATOM      4  C   UNL     1      45.203   4.342  11.828  0.00  0.00    +0.000 A 
ATOM      5  C   UNL     1      45.908   3.851  12.919  0.00  0.00    +0.000 A 
ATOM      6  N   UNL     1      46.915   4.512  13.530  0.00  0.00    +0.000 NA
ENDROOT
BRANCH   1   7
ATOM      7  C   UNL     1      48.381   6.503  13.763  0.00  0.00    +0.000 C 
BRANCH   7   8
ATOM      8  N   UNL     1      48.015   7.042  15.100  0.00  0.00    +0.000 NA
ATOM      9  H   UNL     1      47.106   6.665  15.364  0.00  0.00    +0.000 HD
BRANCH   8  10
ATOM     10  C   UNL     1      49.004   6.710  16.125  0.00  0.00    +0.000 C 
BRANCH  10  11
ATOM     11  C   UNL     1      48.795   5.372  16.796  0.00  0.00    +0.000 A 
ATOM     12  C   UNL     1      47.493   4.853  16.895  0.00  0.00    +0.000 A 
ATOM     13  C   UNL     1      47.268   3.579  17.418  0.00  0.00    +0.000 A 
ATOM     14  C   UNL     1      48.345   2.803  17.843  0.00  0.00    +0.000 A 
ATOM     15  C   UNL     1      49.641   3.307  17.749  0.00  0.00    +0.000 A 
ATOM     16  C   UNL     1      49.869   4.579  17.225  0.00  0.00    +0.000 A 
ENDBRANCH  10  11
ENDBRANCH   8  10
ENDBRANCH   7   8
BRANCH   7  17
ATOM     17  C   UNL     1      48.849   7.622  12.794  0.00  0.00    +0.000 C 
BRANCH  17  19
ATOM     18  C   UNL     1      47.909   9.760  12.590  0.00  0.00    +0.000 C 
ATOM     19  O   UNL     1      48.753   8.927  13.377  0.00  0.00    +0.000 OA
ENDBRANCH  17  19
ENDBRANCH   7  17
ENDBRANCH   1   7
BRANCH   4  20
ATOM     20  C   UNL     1      44.083   3.517  11.236  0.00  0.00    +0.000 C 
BRANCH  20  21
ATOM     21  C   UNL     1      44.266   3.242   9.744  0.00  0.00    +0.000 C 
BRANCH  21  22
ATOM     22  N   UNL     1      44.998   2.006   9.473  0.00  0.00    +0.000 N 
ATOM     23  H   UNL     1      44.380   1.199   9.387  0.00  0.00    +0.000 HD
BRANCH  22  24
ATOM     24  C   UNL     1      45.860   2.090   8.357  0.00  0.00    +0.000 A 
ATOM     25  C   UNL     1      45.900   3.262   7.602  0.00  0.00    +0.000 A 
ATOM     26  C   UNL     1      46.725   3.353   6.481  0.00  0.00    +0.000 A 
ATOM     27  C   UNL     1      47.477   2.244   6.119  0.00  0.00    +0.000 A 
ATOM     28  N   UNL     1      47.437   1.073   6.779  0.00  0.00    +0.000 NA
ATOM     29  C   UNL     1      46.618   1.022   7.857  0.00  0.00    +0.000 A 
ENDBRANCH  22  24
ENDBRANCH  21  22
ENDBRANCH  20  21
ENDBRANCH   4  20
TORSDOF 10
ENDMDL
MODEL 7
REMARK VINA RESULT:    -6.940      1.672      2.266
REMARK INTER + INTRA:         -11.951
REMARK INTER:                 -11.031
REMARK INTRA:                  -0.920
REMARK UNBOUND:                -0.954
REMARK  Name = 
REMARK  11 active torsions:
REMARK  status: ('A' for Active; 'I' for Inactive)
REMARK    1  A    between atoms: C_1  and  O_2
REMARK    2  A    between atoms: O_2  and  C_3
REMARK    3  A    between atoms: C_3  and  C_4
REMARK    4  A    between atoms: C_4  and  N_5
REMARK    5  A    between atoms: C_4  and  C_13
REMARK    6  A    between atoms: N_5  and  C_6
REMARK    7  A    between atoms: C_6  and  C_7
REMARK    8  A    between atoms: C_16  and  C_17
REMARK    9  A    between atoms: C_17  and  C_18
REMARK   10  A    between atoms: C_18  and  N_19
REMARK   11  A    between atoms: N_19  and  C_20
REMARK                            x       y       z     vdW  Elec       q    Type
REMARK                         _______ _______ _______ _____ _____    ______ ____
ROOT
ATOM      1  C   UNL     1      45.975   5.426  11.875  0.00  0.00    +0.000 A 
ATOM      2  C   UNL     1      46.256   4.809  13.086  0.00  0.00    +0.000 A 
ATOM      3  C   UNL     1      47.176   5.398  13.944  0.00  0.00    +0.000 A 
ATOM      4  C   UNL     1      47.778   6.617  13.610  0.00  0.00    +0.000 A 
ATOM      5  C   UNL     1      47.437   7.161  12.379  0.00  0.00    +0.000 A 
ATOM      6  N   UNL     1      46.578   6.587  11.508  0.00  0.00    +0.000 NA
ENDROOT
BRANCH   1   7
ATOM      7  C   UNL     1      45.007   4.767  10.887  0.00  0.00    +0.000 C 
BRANCH   7   8
ATOM      8  N   UNL     1      45.268   5.140   9.471  0.00  0.00    +0.000 NA
ATOM      9  H   UNL     1      46.275   5.215   9.336  0.00  0.00    +0.000 HD
BRANCH   8  10
ATOM     10  C   UNL     1      44.714   4.170   8.527  0.00  0.00    +0.000 C 
BRANCH  10  11
ATOM     11  C   UNL     1      45.721   3.202   7.951  0.00  0.00    +0.000 A 
ATOM     12  C   UNL     1      45.776   1.892   8.456  0.00  0.00    +0.000 A 
ATOM     13  C   UNL     1      46.622   0.940   7.885  0.00  0.00    +0.000 A 
ATOM     14  C   UNL     1      47.419   1.284   6.795  0.00  0.00    +0.000 A 
ATOM     15  C   UNL     1      47.373   2.580   6.285  0.00  0.00    +0.000 A 
ATOM     16  C   UNL     1      46.527   3.534   6.852  0.00  0.00    +0.000 A 
ENDBRANCH  10  11
ENDBRANCH   8  10
ENDBRANCH   7   8
BRANCH   7  17
ATOM     17  C   UNL     1      43.566   5.139  11.329  0.00  0.00    +0.000 C 
BRANCH  17  19
ATOM     18  C   UNL     1      43.333   2.841  11.729  0.00  0.00    +0.000 C 
ATOM     19  O   UNL     1      42.979   4.145  12.176  0.00  0.00    +0.000 OA
ENDBRANCH  17  19
ENDBRANCH   7  17
ENDBRANCH   1   7
BRANCH   4  20
ATOM     20  C   UNL     1      48.740   7.359  14.509  0.00  0.00    +0.000 C 
BRANCH  20  21
ATOM     21  C   UNL     1      49.062   6.603  15.796  0.00  0.00    +0.000 C 
BRANCH  21  22
ATOM     22  N   UNL     1      49.587   7.464  16.854  0.00  0.00    +0.000 N 
ATOM     23  H   UNL     1      49.616   8.446  16.577  0.00  0.00    +0.000 HD
BRANCH  22  24
ATOM     24  C   UNL     1      48.918   7.318  18.089  0.00  0.00    +0.000 A 
ATOM     25  C   UNL     1      48.142   6.184  18.324  0.00  0.00    +0.000 A 
ATOM     26  C   UNL     1      47.451   6.036  19.528  0.00  0.00    +0.000 A 
ATOM     27  C   UNL     1      47.530   7.055  20.467  0.00  0.00    +0.000 A 
ATOM     28  N   UNL     1      48.220   8.193  20.271  0.00  0.00    +0.000 NA
ATOM     29  C   UNL     1      48.869   8.302  19.088  0.00  0.00    +0.000 A 
ENDBRANCH  22  24
ENDBRANCH  21  22
ENDBRANCH  20  21
ENDBRANCH   4  20
TORSDOF 10
ENDMDL
MODEL 8
REMARK VINA RESULT:    -6.853      2.472      9.105
REMARK INTER + INTRA:         -11.813
REMARK INTER:                 -10.969
REMARK INTRA:                  -0.844
REMARK UNBOUND:                -0.954
REMARK  Name = 
REMARK  11 active torsions:
REMARK  status: ('A' for Active; 'I' for Inactive)
REMARK    1  A    between atoms: C_1  and  O_2
REMARK    2  A    between atoms: O_2  and  C_3
REMARK    3  A    between atoms: C_3  and  C_4
REMARK    4  A    between atoms: C_4  and  N_5
REMARK    5  A    between atoms: C_4  and  C_13
REMARK    6  A    between atoms: N_5  and  C_6
REMARK    7  A    between atoms: C_6  and  C_7
REMARK    8  A    between atoms: C_16  and  C_17
REMARK    9  A    between atoms: C_17  and  C_18
REMARK   10  A    between atoms: C_18  and  N_19
REMARK   11  A    between atoms: N_19  and  C_20
REMARK                            x       y       z     vdW  Elec       q    Type
REMARK                         _______ _______ _______ _____ _____    ______ ____
ROOT
ATOM      1  C   UNL     1      46.916   5.546  13.660  0.00  0.00    +0.000 A 
ATOM      2  C   UNL     1      46.792   6.456  12.620  0.00  0.00    +0.000 A 
ATOM      3  C   UNL     1      45.772   6.284  11.693  0.00  0.00    +0.000 A 
ATOM      4  C   UNL     1      44.857   5.235  11.833  0.00  0.00    +0.000 A 
ATOM      5  C   UNL     1      45.058   4.374  12.904  0.00  0.00    +0.000 A 
ATOM      6  N   UNL     1      46.067   4.494  13.793  0.00  0.00    +0.000 NA
ENDROOT
BRANCH   1   7
ATOM      7  C   UNL     1      48.068   5.681  14.661  0.00  0.00    +0.000 C 
BRANCH   7   8
ATOM      8  N   UNL     1      47.613   5.735  16.076  0.00  0.00    +0.000 NA
ATOM      9  H   UNL     1      46.605   5.581  16.099  0.00  0.00    +0.000 HD
BRANCH   8  10
ATOM     10  C   UNL     1      48.283   4.744  16.917  0.00  0.00    +0.000 C 
BRANCH  10  11
ATOM     11  C   UNL     1      48.120   4.961  18.403  0.00  0.00    +0.000 A 
ATOM     12  C   UNL     1      48.891   4.194  19.294  0.00  0.00    +0.000 A 
ATOM     13  C   UNL     1      48.843   4.432  20.669  0.00  0.00    +0.000 A 
ATOM     14  C   UNL     1      48.030   5.447  21.170  0.00  0.00    +0.000 A 
ATOM     15  C   UNL     1      47.262   6.215  20.296  0.00  0.00    +0.000 A 
ATOM     16  C   UNL     1      47.309   5.980  18.921  0.00  0.00    +0.000 A 
ENDBRANCH  10  11
ENDBRANCH   8  10
ENDBRANCH   7   8
BRANCH   7  17
ATOM     17  C   UNL     1      48.883   6.942  14.265  0.00  0.00    +0.000 C 
BRANCH  17  19
ATOM     18  C   UNL     1      50.301   8.115  15.717  0.00  0.00    +0.000 C 
ATOM     19  O   UNL     1      50.177   6.972  14.878  0.00  0.00    +0.000 OA
ENDBRANCH  17  19
ENDBRANCH   7  17
ENDBRANCH   1   7
BRANCH   4  20
ATOM     20  C   UNL     1      43.681   5.009  10.910  0.00  0.00    +0.000 C 
BRANCH  20  21
ATOM     21  C   UNL     1      43.914   3.880   9.908  0.00  0.00    +0.000 C 
BRANCH  21  22
ATOM     22  N   UNL     1      44.715   4.289   8.756  0.00  0.00    +0.000 N 
ATOM     23  H   UNL     1      45.243   5.144   8.933  0.00  0.00    +0.000 HD
BRANCH  22  24
ATOM     24  C   UNL     1      45.567   3.274   8.268  0.00  0.00    +0.000 A 
ATOM     25  C   UNL     1      46.457   3.556   7.233  0.00  0.00    +0.000 A 
ATOM     26  C   UNL     1      47.287   2.558   6.721  0.00  0.00    +0.000 A 
ATOM     27  C   UNL     1      47.182   1.276   7.242  0.00  0.00    +0.000 A 
ATOM     28  N   UNL     1      46.304   0.936   8.203  0.00  0.00    +0.000 NA
ATOM     29  C   UNL     1      45.512   1.930   8.668  0.00  0.00    +0.000 A 
ENDBRANCH  22  24
ENDBRANCH  21  22
ENDBRANCH  20  21
ENDBRANCH   4  20
TORSDOF 10
ENDMDL
MODEL 9
REMARK VINA RESULT:    -6.792      3.567      7.926
REMARK INTER + INTRA:         -11.718
REMARK INTER:                 -10.755
REMARK INTRA:                  -0.963
REMARK UNBOUND:                -0.954
REMARK  Name = 
REMARK  11 active torsions:
REMARK  status: ('A' for Active; 'I' for Inactive)
REMARK    1  A    between atoms: C_1  and  O_2
REMARK    2  A    between atoms: O_2  and  C_3
REMARK    3  A    between atoms: C_3  and  C_4
REMARK    4  A    between atoms: C_4  and  N_5
REMARK    5  A    between atoms: C_4  and  C_13
REMARK    6  A    between atoms: N_5  and  C_6
REMARK    7  A    between atoms: C_6  and  C_7
REMARK    8  A    between atoms: C_16  and  C_17
REMARK    9  A    between atoms: C_17  and  C_18
REMARK   10  A    between atoms: C_18  and  N_19
REMARK   11  A    between atoms: N_19  and  C_20
REMARK                            x       y       z     vdW  Elec       q    Type
REMARK                         _______ _______ _______ _____ _____    ______ ____
ROOT
ATOM      1  C   UNL     1      47.252   6.096  13.001  0.00  0.00    +0.000 A 
ATOM      2  C   UNL     1      46.485   6.497  11.916  0.00  0.00    +0.000 A 
ATOM      3  C   UNL     1      45.562   5.607  11.380  0.00  0.00    +0.000 A 
ATOM      4  C   UNL     1      45.377   4.345  11.953  0.00  0.00    +0.000 A 
ATOM      5  C   UNL     1      46.188   4.030  13.036  0.00  0.00    +0.000 A 
ATOM      6  N   UNL     1      47.122   4.859  13.549  0.00  0.00    +0.000 NA
ENDROOT
BRANCH   1   7
ATOM      7  C   UNL     1      48.316   7.037  13.574  0.00  0.00    +0.000 C 
BRANCH   7   8
ATOM      8  N   UNL     1      49.631   6.923  12.887  0.00  0.00    +0.000 NA
ATOM      9  H   UNL     1      49.494   6.433  12.004  0.00  0.00    +0.000 HD
BRANCH   8  10
ATOM     10  C   UNL     1      50.246   8.227  12.639  0.00  0.00    +0.000 C 
BRANCH  10  11
ATOM     11  C   UNL     1      51.356   8.217  11.615  0.00  0.00    +0.000 A 
ATOM     12  C   UNL     1      51.305   7.290  10.560  0.00  0.00    +0.000 A 
ATOM     13  C   UNL     1      52.259   7.314   9.540  0.00  0.00    +0.000 A 
ATOM     14  C   UNL     1      53.272   8.271   9.558  0.00  0.00    +0.000 A 
ATOM     15  C   UNL     1      53.332   9.196  10.599  0.00  0.00    +0.000 A 
ATOM     16  C   UNL     1      52.379   9.177  11.619  0.00  0.00    +0.000 A 
ENDBRANCH  10  11
ENDBRANCH   8  10
ENDBRANCH   7   8
BRANCH   7  17
ATOM     17  C   UNL     1      48.428   6.743  15.094  0.00  0.00    +0.000 C 
BRANCH  17  19
ATOM     18  C   UNL     1      49.694   5.760  16.805  0.00  0.00    +0.000 C 
ATOM     19  O   UNL     1      49.712   6.223  15.459  0.00  0.00    +0.000 OA
ENDBRANCH  17  19
ENDBRANCH   7  17
ENDBRANCH   1   7
BRANCH   4  20
ATOM     20  C   UNL     1      44.354   3.340  11.476  0.00  0.00    +0.000 C 
BRANCH  20  21
ATOM     21  C   UNL     1      44.367   3.145   9.961  0.00  0.00    +0.000 C 
BRANCH  21  22
ATOM     22  N   UNL     1      45.013   1.901   9.547  0.00  0.00    +0.000 N 
ATOM     23  H   UNL     1      44.344   1.144   9.404  0.00  0.00    +0.000 HD
BRANCH  22  24
ATOM     24  C   UNL     1      45.848   2.044   8.416  0.00  0.00    +0.000 A 
ATOM     25  C   UNL     1      45.889   3.261   7.737  0.00  0.00    +0.000 A 
ATOM     26  C   UNL     1      46.686   3.411   6.602  0.00  0.00    +0.000 A 
ATOM     27  C   UNL     1      47.409   2.317   6.150  0.00  0.00    +0.000 A 
ATOM     28  N   UNL     1      47.366   1.106   6.735  0.00  0.00    +0.000 NA
ATOM     29  C   UNL     1      46.575   0.999   7.828  0.00  0.00    +0.000 A 
ENDBRANCH  22  24
ENDBRANCH  21  22
ENDBRANCH  20  21
ENDBRANCH   4  20
TORSDOF 10
ENDMDL
