MODEL 1
REMARK VINA RESULT:    -7.837      0.000      0.000
REMARK INTER + INTRA:         -12.666
REMARK INTER:                 -11.503
REMARK INTRA:                  -1.164
REMARK UNBOUND:                -1.164
REMARK  Name = 
REMARK  9 active torsions:
REMARK  status: ('A' for Active; 'I' for Inactive)
REMARK    1  A    between atoms: C_1  and  C_2
REMARK    2  A    between atoms: C_2  and  N_3
REMARK    3  A    between atoms: C_2  and  C_20
REMARK    4  A    between atoms: N_3  and  C_4
REMARK    5  A    between atoms: C_4  and  C_5
REMARK    6  A    between atoms: C_8  and  C_9
REMARK    7  A    between atoms: C_9  and  N_10
REMARK    8  A    between atoms: N_10  and  C_11
REMARK    9  A    between atoms: C_11  and  C_12
REMARK                            x       y       z     vdW  Elec       q    Type
REMARK                         _______ _______ _______ _____ _____    ______ ____
ROOT
ATOM      1  C   UNL     1      47.089   6.135  12.424  0.00  0.00    +0.000 A 
ATOM      2  C   UNL     1      46.748   5.014  13.190  0.00  0.00    +0.000 A 
ATOM      3  C   UNL     1      45.626   4.256  12.850  0.00  0.00    +0.000 A 
ATOM      4  C   UNL     1      44.864   4.640  11.749  0.00  0.00    +0.000 A 
ATOM      5  N   UNL     1      45.141   5.756  11.030  0.00  0.00    +0.000 NA
ATOM      6  C   UNL     1      46.233   6.474  11.384  0.00  0.00    +0.000 A 
ENDROOT
BRANCH   1   7
ATOM      7  C   UNL     1      48.375   6.891  12.649  0.00  0.00    +0.000 C 
BRANCH   7   8
ATOM      8  N   UNL     1      49.107   6.446  13.839  0.00  0.00    +0.000 NA
ATOM      9  H   UNL     1      50.098   6.626  13.681  0.00  0.00    +0.000 HD
BRANCH   8  11
ATOM     10  C   UNL     1      49.107   8.631  15.063  0.00  0.00    +0.000 C 
ATOM     11  C   UNL     1      48.723   7.148  15.094  0.00  0.00    +0.000 C 
BRANCH  11  12
ATOM     12  C   UNL     1      49.299   6.357  16.248  0.00  0.00    +0.000 A 
ATOM     13  C   UNL     1      50.581   6.438  16.769  0.00  0.00    +0.000 A 
ATOM     14  N   UNL     1      50.871   5.224  17.335  0.00  0.00    +0.000 N 
ATOM     15  C   UNL     1      49.754   4.425  17.330  0.00  0.00    +0.000 A 
ATOM     16  C   UNL     1      49.588   3.094  17.682  0.00  0.00    +0.000 A 
ATOM     17  N   UNL     1      48.345   2.563  17.679  0.00  0.00    +0.000 NA
ATOM     18  C   UNL     1      47.300   3.347  17.329  0.00  0.00    +0.000 A 
ATOM     19  C   UNL     1      47.409   4.652  16.873  0.00  0.00    +0.000 A 
ATOM     20  C   UNL     1      48.700   5.196  16.843  0.00  0.00    +0.000 A 
ATOM     21  H   UNL     1      51.788   4.935  17.647  0.00  0.00    +0.000 HD
ENDBRANCH  11  12
ENDBRANCH   8  11
ENDBRANCH   7   8
ENDBRANCH   1   7
BRANCH   4  22
ATOM     22  C   UNL     1      43.717   3.774  11.263  0.00  0.00    +0.000 C 
BRANCH  22  23
ATOM     23  N   UNL     1      43.758   3.483   9.817  0.00  0.00    +0.000 NA
ATOM     24  H   UNL     1      44.347   4.208   9.396  0.00  0.00    +0.000 HD
BRANCH  23  25
ATOM     25  C   UNL     1      44.406   2.191   9.540  0.00  0.00    +0.000 C 
BRANCH  25  26
ATOM     26  C   UNL     1      45.468   2.290   8.467  0.00  0.00    +0.000 A 
ATOM     27  C   UNL     1      45.636   3.465   7.738  0.00  0.00    +0.000 A 
ATOM     28  C   UNL     1      46.621   3.513   6.755  0.00  0.00    +0.000 A 
ATOM     29  C   UNL     1      47.417   2.400   6.525  0.00  0.00    +0.000 A 
ATOM     30  C   UNL     1      47.195   1.271   7.292  0.00  0.00    +0.000 A 
ATOM     31  N   UNL     1      46.242   1.198   8.249  0.00  0.00    +0.000 NA
ENDBRANCH  25  26
ENDBRANCH  23  25
ENDBRANCH  22  23
ENDBRANCH   4  22
TORSDOF 8
ENDMDL
MODEL 2
REMARK VINA RESULT:    -7.746      1.913      2.536
REMARK INTER + INTRA:         -12.532
REMARK INTER:                 -11.637
REMARK INTRA:                  -0.896
REMARK UNBOUND:                -1.164
REMARK  Name = 
REMARK  9 active torsions:
REMARK  status: ('A' for Active; 'I' for Inactive)
REMARK    1  A    between atoms: C_1  and  C_2
REMARK    2  A    between atoms: C_2  and  N_3
REMARK    3  A    between atoms: C_2  and  C_20
REMARK    4  A    between atoms: N_3  and  C_4
REMARK    5  A    between atoms: C_4  and  C_5
REMARK    6  A    between atoms: C_8  and  C_9
REMARK    7  A    between atoms: C_9  and  N_10
REMARK    8  A    between atoms: N_10  and  C_11
REMARK    9  A    between atoms: C_11  and  C_12
REMARK                            x       y       z     vdW  Elec       q    Type
REMARK                         _______ _______ _______ _____ _____    ______ ____
ROOT
ATOM      1  C   UNL     1      46.822   5.778  12.989  0.00  0.00    +0.000 A 
ATOM      2  C   UNL     1      46.427   6.165  11.702  0.00  0.00    +0.000 A 
ATOM      3  C   UNL     1      45.402   5.474  11.055  0.00  0.00    +0.000 A 
ATOM      4  C   UNL     1      44.795   4.404  11.708  0.00  0.00    +0.000 A 
ATOM      5  N   UNL     1      45.202   3.974  12.928  0.00  0.00    +0.000 NA
ATOM      6  C   UNL     1      46.200   4.661  13.533  0.00  0.00    +0.000 A 
ENDROOT
BRANCH   1   7
ATOM      7  C   UNL     1      47.808   6.587  13.794  0.00  0.00    +0.000 C 
BRANCH   7   8
ATOM      8  N   UNL     1      48.495   5.802  14.826  0.00  0.00    +0.000 NA
ATOM      9  H   UNL     1      49.310   5.366  14.395  0.00  0.00    +0.000 HD
BRANCH   8  11
ATOM     10  C   UNL     1      50.462   6.965  15.850  0.00  0.00    +0.000 C 
ATOM     11  C   UNL     1      48.980   6.600  15.984  0.00  0.00    +0.000 C 
BRANCH  11  12
ATOM     12  C   UNL     1      48.613   5.842  17.241  0.00  0.00    +0.000 A 
ATOM     13  C   UNL     1      47.928   4.641  17.330  0.00  0.00    +0.000 A 
ATOM     14  N   UNL     1      47.303   4.615  18.549  0.00  0.00    +0.000 N 
ATOM     15  C   UNL     1      47.697   5.693  19.302  0.00  0.00    +0.000 A 
ATOM     16  C   UNL     1      47.255   6.152  20.534  0.00  0.00    +0.000 A 
ATOM     17  N   UNL     1      47.887   7.198  21.111  0.00  0.00    +0.000 NA
ATOM     18  C   UNL     1      48.929   7.769  20.468  0.00  0.00    +0.000 A 
ATOM     19  C   UNL     1      49.356   7.425  19.193  0.00  0.00    +0.000 A 
ATOM     20  C   UNL     1      48.683   6.362  18.577  0.00  0.00    +0.000 A 
ATOM     21  H   UNL     1      46.602   3.941  18.826  0.00  0.00    +0.000 HD
ENDBRANCH  11  12
ENDBRANCH   8  11
ENDBRANCH   7   8
ENDBRANCH   1   7
BRANCH   4  22
ATOM     22  C   UNL     1      43.590   3.710  11.100  0.00  0.00    +0.000 C 
BRANCH  22  23
ATOM     23  N   UNL     1      43.761   3.347   9.680  0.00  0.00    +0.000 NA
ATOM     24  H   UNL     1      44.311   4.101   9.256  0.00  0.00    +0.000 HD
BRANCH  23  25
ATOM     25  C   UNL     1      44.543   2.109   9.526  0.00  0.00    +0.000 C 
BRANCH  25  26
ATOM     26  C   UNL     1      45.593   2.215   8.441  0.00  0.00    +0.000 A 
ATOM     27  C   UNL     1      45.766   3.401   7.730  0.00  0.00    +0.000 A 
ATOM     28  C   UNL     1      46.739   3.454   6.736  0.00  0.00    +0.000 A 
ATOM     29  C   UNL     1      47.517   2.335   6.476  0.00  0.00    +0.000 A 
ATOM     30  C   UNL     1      47.292   1.196   7.225  0.00  0.00    +0.000 A 
ATOM     31  N   UNL     1      46.351   1.118   8.194  0.00  0.00    +0.000 NA
ENDBRANCH  25  26
ENDBRANCH  23  25
ENDBRANCH  22  23
ENDBRANCH   4  22
TORSDOF 8
ENDMDL
MODEL 3
REMARK VINA RESULT:    -7.450      1.402      2.406
REMARK INTER + INTRA:         -12.098
REMARK INTER:                 -11.373
REMARK INTRA:                  -0.724
REMARK UNBOUND:                -1.164
REMARK  Name = 
REMARK  9 active torsions:
REMARK  status: ('A' for Active; 'I' for Inactive)
REMARK    1  A    between atoms: C_1  and  C_2
REMARK    2  A    between atoms: C_2  and  N_3
REMARK    3  A    between atoms: C_2  and  C_20
REMARK    4  A    between atoms: N_3  and  C_4
REMARK    5  A    between atoms: C_4  and  C_5
REMARK    6  A    between atoms: C_8  and  C_9
REMARK    7  A    between atoms: C_9  and  N_10
REMARK    8  A    between atoms: N_10  and  C_11
REMARK    9  A    between atoms: C_11  and  C_12
REMARK                            x       y       z     vdW  Elec       q    Type
REMARK                         _______ _______ _______ _____ _____    ______ ____
ROOT
ATOM      1  C   UNL     1      47.215   5.735  13.314  0.00  0.00    +0.000 A 
ATOM      2  C   UNL     1      46.955   6.578  12.227  0.00  0.00    +0.000 A 
ATOM      3  C   UNL     1      45.905   6.283  11.356  0.00  0.00    +0.000 A 
ATOM      4  C   UNL     1      45.138   5.144  11.589  0.00  0.00    +0.000 A 
ATOM      5  N   UNL     1      45.410   4.281  12.599  0.00  0.00    +0.000 NA
ATOM      6  C   UNL     1      46.435   4.591  13.428  0.00  0.00    +0.000 A 
ENDROOT
BRANCH   1   7
ATOM      7  C   UNL     1      48.229   6.091  14.372  0.00  0.00    +0.000 C 
BRANCH   7   8
ATOM      8  N   UNL     1      47.741   5.875  15.738  0.00  0.00    +0.000 NA
ATOM      9  H   UNL     1      46.721   5.877  15.709  0.00  0.00    +0.000 HD
BRANCH   8  11
ATOM     10  C   UNL     1      46.994   3.852  17.010  0.00  0.00    +0.000 C 
ATOM     11  C   UNL     1      48.164   4.584  16.345  0.00  0.00    +0.000 C 
BRANCH  11  12
ATOM     12  C   UNL     1      49.341   4.874  17.249  0.00  0.00    +0.000 A 
ATOM     13  C   UNL     1      49.750   6.107  17.732  0.00  0.00    +0.000 A 
ATOM     14  N   UNL     1      51.097   6.028  17.971  0.00  0.00    +0.000 N 
ATOM     15  C   UNL     1      51.528   4.736  17.805  0.00  0.00    +0.000 A 
ATOM     16  C   UNL     1      52.805   4.195  17.822  0.00  0.00    +0.000 A 
ATOM     17  N   UNL     1      52.953   2.854  17.728  0.00  0.00    +0.000 NA
ATOM     18  C   UNL     1      51.850   2.080  17.617  0.00  0.00    +0.000 A 
ATOM     19  C   UNL     1      50.555   2.563  17.493  0.00  0.00    +0.000 A 
ATOM     20  C   UNL     1      50.400   3.955  17.557  0.00  0.00    +0.000 A 
ATOM     21  H   UNL     1      51.696   6.817  18.172  0.00  0.00    +0.000 HD
ENDBRANCH  11  12
ENDBRANCH   8  11
ENDBRANCH   7   8
ENDBRANCH   1   7
BRANCH   4  22
ATOM     22  C   UNL     1      43.907   4.856  10.749  0.00  0.00    +0.000 C 
BRANCH  22  23
ATOM     23  N   UNL     1      44.209   4.402   9.378  0.00  0.00    +0.000 NA
ATOM     24  H   UNL     1      45.108   4.826   9.129  0.00  0.00    +0.000 HD
BRANCH  23  25
ATOM     25  C   UNL     1      44.393   2.942   9.317  0.00  0.00    +0.000 C 
BRANCH  25  26
ATOM     26  C   UNL     1      45.514   2.536   8.386  0.00  0.00    +0.000 A 
ATOM     27  C   UNL     1      46.070   3.454   7.497  0.00  0.00    +0.000 A 
ATOM     28  C   UNL     1      47.096   3.037   6.652  0.00  0.00    +0.000 A 
ATOM     29  C   UNL     1      47.547   1.726   6.714  0.00  0.00    +0.000 A 
ATOM     30  C   UNL     1      46.950   0.874   7.625  0.00  0.00    +0.000 A 
ATOM     31  N   UNL     1      45.950   1.253   8.453  0.00  0.00    +0.000 NA
ENDBRANCH  25  26
ENDBRANCH  23  25
ENDBRANCH  22  23
ENDBRANCH   4  22
TORSDOF 8
ENDMDL
MODEL 4
REMARK VINA RESULT:    -7.285      2.536      4.831
REMARK INTER + INTRA:         -11.856
REMARK INTER:                 -10.848
REMARK INTRA:                  -1.009
REMARK UNBOUND:                -1.164
REMARK  Name = 
REMARK  9 active torsions:
REMARK  status: ('A' for Active; 'I' for Inactive)
REMARK    1  A    between atoms: C_1  and  C_2
REMARK    2  A    between atoms: C_2  and  N_3
REMARK    3  A    between atoms: C_2  and  C_20
REMARK    4  A    between atoms: N_3  and  C_4
REMARK    5  A    between atoms: C_4  and  C_5
REMARK    6  A    between atoms: C_8  and  C_9
REMARK    7  A    between atoms: C_9  and  N_10
REMARK    8  A    between atoms: N_10  and  C_11
REMARK    9  A    between atoms: C_11  and  C_12
REMARK                            x       y       z     vdW  Elec       q    Type
REMARK                         _______ _______ _______ _____ _____    ______ ____
ROOT
ATOM      1  C   UNL     1      46.708   5.932  13.092  0.00  0.00    +0.000 A 
ATOM      2  C   UNL     1      45.775   5.003  13.569  0.00  0.00    +0.000 A 
ATOM      3  C   UNL     1      44.689   4.639  12.771  0.00  0.00    +0.000 A 
ATOM      4  C   UNL     1      44.556   5.216  11.511  0.00  0.00    +0.000 A 
ATOM      5  N   UNL     1      45.414   6.162  11.053  0.00  0.00    +0.000 NA
ATOM      6  C   UNL     1      46.457   6.499  11.849  0.00  0.00    +0.000 A 
ENDROOT
BRANCH   1   7
ATOM      7  C   UNL     1      47.980   6.238  13.842  0.00  0.00    +0.000 C 
BRANCH   7   8
ATOM      8  N   UNL     1      49.126   6.490  12.962  0.00  0.00    +0.000 NA
ATOM      9  H   UNL     1      48.765   6.672  12.025  0.00  0.00    +0.000 HD
BRANCH   8  11
ATOM     10  C   UNL     1      49.442   8.327  14.633  0.00  0.00    +0.000 C 
ATOM     11  C   UNL     1      49.956   7.661  13.353  0.00  0.00    +0.000 C 
BRANCH  11  12
ATOM     12  C   UNL     1      50.053   8.569  12.147  0.00  0.00    +0.000 A 
ATOM     13  C   UNL     1      51.173   8.827  11.374  0.00  0.00    +0.000 A 
ATOM     14  N   UNL     1      51.014  10.071  10.822  0.00  0.00    +0.000 N 
ATOM     15  C   UNL     1      49.755  10.547  11.093  0.00  0.00    +0.000 A 
ATOM     16  C   UNL     1      49.179  11.785  10.850  0.00  0.00    +0.000 A 
ATOM     17  N   UNL     1      47.870  11.968  11.131  0.00  0.00    +0.000 NA
ATOM     18  C   UNL     1      47.160  10.939  11.646  0.00  0.00    +0.000 A 
ATOM     19  C   UNL     1      47.697   9.711  12.005  0.00  0.00    +0.000 A 
ATOM     20  C   UNL     1      49.062   9.527  11.745  0.00  0.00    +0.000 A 
ATOM     21  H   UNL     1      51.739  10.590  10.346  0.00  0.00    +0.000 HD
ENDBRANCH  11  12
ENDBRANCH   8  11
ENDBRANCH   7   8
ENDBRANCH   1   7
BRANCH   4  22
ATOM     22  C   UNL     1      43.470   4.753  10.559  0.00  0.00    +0.000 C 
BRANCH  22  23
ATOM     23  N   UNL     1      43.982   4.198   9.290  0.00  0.00    +0.000 NA
ATOM     24  H   UNL     1      44.716   4.840   8.974  0.00  0.00    +0.000 HD
BRANCH  23  25
ATOM     25  C   UNL     1      44.617   2.885   9.488  0.00  0.00    +0.000 C 
BRANCH  25  26
ATOM     26  C   UNL     1      45.613   2.551   8.400  0.00  0.00    +0.000 A 
ATOM     27  C   UNL     1      45.996   3.511   7.465  0.00  0.00    +0.000 A 
ATOM     28  C   UNL     1      46.912   3.160   6.476  0.00  0.00    +0.000 A 
ATOM     29  C   UNL     1      47.428   1.873   6.443  0.00  0.00    +0.000 A 
ATOM     30  C   UNL     1      47.005   0.976   7.407  0.00  0.00    +0.000 A 
ATOM     31  N   UNL     1      46.115   1.291   8.375  0.00  0.00    +0.000 NA
ENDBRANCH  25  26
ENDBRANCH  23  25
ENDBRANCH  22  23
ENDBRANCH   4  22
TORSDOF 8
ENDMDL
MODEL 5
REMARK VINA RESULT:    -7.146      2.118      2.949
REMARK INTER + INTRA:         -11.652
REMARK INTER:                 -10.611
REMARK INTRA:                  -1.040
REMARK UNBOUND:                -1.164
REMARK  Name = 
REMARK  9 active torsions:
REMARK  status: ('A' for Active; 'I' for Inactive)
REMARK    1  A    between atoms: C_1  and  C_2
REMARK    2  A    between atoms: C_2  and  N_3
REMARK    3  A    between atoms: C_2  and  C_20
REMARK    4  A    between atoms: N_3  and  C_4
REMARK    5  A    between atoms: C_4  and  C_5
REMARK    6  A    between atoms: C_8  and  C_9
REMARK    7  A    between atoms: C_9  and  N_10
REMARK    8  A    between atoms: N_10  and  C_11
REMARK    9  A    between atoms: C_11  and  C_12
REMARK                            x       y       z     vdW  Elec       q    Type
REMARK                         _______ _______ _______ _____ _____    ______ ____
ROOT
ATOM      1  C   UNL     1      47.046   6.014  12.929  0.00  0.00    +0.000 A 
ATOM      2  C   UNL     1      46.874   6.528  11.638  0.00  0.00    +0.000 A 
ATOM      3  C   UNL     1      45.801   6.098  10.857  0.00  0.00    +0.000 A 
ATOM      4  C   UNL     1      44.921   5.155  11.384  0.00  0.00    +0.000 A 
ATOM      5  N   UNL     1      45.102   4.599  12.608  0.00  0.00    +0.000 NA
ATOM      6  C   UNL     1      46.153   5.034  13.343  0.00  0.00    +0.000 A 
ENDROOT
BRANCH   1   7
ATOM      7  C   UNL     1      48.089   6.561  13.871  0.00  0.00    +0.000 C 
BRANCH   7   8
ATOM      8  N   UNL     1      49.374   6.832  13.217  0.00  0.00    +0.000 NA
ATOM      9  H   UNL     1      49.278   6.594  12.229  0.00  0.00    +0.000 HD
BRANCH   8  11
ATOM     10  C   UNL     1      49.760   8.940  11.922  0.00  0.00    +0.000 C 
ATOM     11  C   UNL     1      49.813   8.252  13.289  0.00  0.00    +0.000 C 
BRANCH  11  12
ATOM     12  C   UNL     1      51.163   8.274  13.971  0.00  0.00    +0.000 A 
ATOM     13  C   UNL     1      52.399   8.501  13.386  0.00  0.00    +0.000 A 
ATOM     14  N   UNL     1      53.339   7.866  14.154  0.00  0.00    +0.000 N 
ATOM     15  C   UNL     1      52.758   7.374  15.296  0.00  0.00    +0.000 A 
ATOM     16  C   UNL     1      53.272   6.571  16.303  0.00  0.00    +0.000 A 
ATOM     17  N   UNL     1      52.508   6.305  17.386  0.00  0.00    +0.000 NA
ATOM     18  C   UNL     1      51.263   6.828  17.454  0.00  0.00    +0.000 A 
ATOM     19  C   UNL     1      50.655   7.554  16.439  0.00  0.00    +0.000 A 
ATOM     20  C   UNL     1      51.432   7.805  15.300  0.00  0.00    +0.000 A 
ATOM     21  H   UNL     1      54.303   7.721  13.885  0.00  0.00    +0.000 HD
ENDBRANCH  11  12
ENDBRANCH   8  11
ENDBRANCH   7   8
ENDBRANCH   1   7
BRANCH   4  22
ATOM     22  C   UNL     1      43.668   4.758  10.625  0.00  0.00    +0.000 C 
BRANCH  22  23
ATOM     23  N   UNL     1      43.931   4.201   9.285  0.00  0.00    +0.000 NA
ATOM     24  H   UNL     1      44.701   4.751   8.892  0.00  0.00    +0.000 HD
BRANCH  23  25
ATOM     25  C   UNL     1      44.395   2.805   9.358  0.00  0.00    +0.000 C 
BRANCH  25  26
ATOM     26  C   UNL     1      45.508   2.510   8.377  0.00  0.00    +0.000 A 
ATOM     27  C   UNL     1      45.954   3.488   7.490  0.00  0.00    +0.000 A 
ATOM     28  C   UNL     1      46.977   3.173   6.599  0.00  0.00    +0.000 A 
ATOM     29  C   UNL     1      47.533   1.902   6.613  0.00  0.00    +0.000 A 
ATOM     30  C   UNL     1      47.042   0.985   7.524  0.00  0.00    +0.000 A 
ATOM     31  N   UNL     1      46.047   1.266   8.397  0.00  0.00    +0.000 NA
ENDBRANCH  25  26
ENDBRANCH  23  25
ENDBRANCH  22  23
ENDBRANCH   4  22
TORSDOF 8
ENDMDL
MODEL 6
REMARK VINA RESULT:    -7.040      1.620      8.673
REMARK INTER + INTRA:         -11.496
REMARK INTER:                 -10.585
REMARK INTRA:                  -0.912
REMARK UNBOUND:                -1.164
REMARK  Name = 
REMARK  9 active torsions:
REMARK  status: ('A' for Active; 'I' for Inactive)
REMARK    1  A    between atoms: C_1  and  C_2
REMARK    2  A    between atoms: C_2  and  N_3
REMARK    3  A    between atoms: C_2  and  C_20
REMARK    4  A    between atoms: N_3  and  C_4
REMARK    5  A    between atoms: C_4  and  C_5
REMARK    6  A    between atoms: C_8  and  C_9
REMARK    7  A    between atoms: C_9  and  N_10
REMARK    8  A    between atoms: N_10  and  C_11
REMARK    9  A    between atoms: C_11  and  C_12
REMARK                            x       y       z     vdW  Elec       q    Type
REMARK                         _______ _______ _______ _____ _____    ______ ____
ROOT
ATOM      1  C   UNL     1      44.789   6.097  12.182  0.00  0.00    +0.000 A 
ATOM      2  C   UNL     1      45.024   7.469  12.025  0.00  0.00    +0.000 A 
ATOM      3  C   UNL     1      46.138   8.055  12.628  0.00  0.00    +0.000 A 
ATOM      4  C   UNL     1      46.994   7.255  13.382  0.00  0.00    +0.000 A 
ATOM      5  N   UNL     1      46.752   5.938  13.598  0.00  0.00    +0.000 NA
ATOM      6  C   UNL     1      45.663   5.395  13.003  0.00  0.00    +0.000 A 
ENDROOT
BRANCH   1   7
ATOM      7  C   UNL     1      43.696   5.386  11.424  0.00  0.00    +0.000 C 
BRANCH   7   8
ATOM      8  N   UNL     1      43.960   5.288   9.985  0.00  0.00    +0.000 NA
ATOM      9  H   UNL     1      44.815   5.807   9.788  0.00  0.00    +0.000 HD
BRANCH   8  11
ATOM     10  C   UNL     1      43.949   2.860  10.596  0.00  0.00    +0.000 C 
ATOM     11  C   UNL     1      44.162   3.898   9.491  0.00  0.00    +0.000 C 
BRANCH  11  12
ATOM     12  C   UNL     1      45.514   3.852   8.814  0.00  0.00    +0.000 A 
ATOM     13  C   UNL     1      46.266   4.924   8.360  0.00  0.00    +0.000 A 
ATOM     14  N   UNL     1      47.055   4.467   7.336  0.00  0.00    +0.000 N 
ATOM     15  C   UNL     1      46.942   3.103   7.229  0.00  0.00    +0.000 A 
ATOM     16  C   UNL     1      47.447   2.221   6.286  0.00  0.00    +0.000 A 
ATOM     17  N   UNL     1      47.270   0.893   6.467  0.00  0.00    +0.000 NA
ATOM     18  C   UNL     1      46.603   0.464   7.561  0.00  0.00    +0.000 A 
ATOM     19  C   UNL     1      45.988   1.295   8.487  0.00  0.00    +0.000 A 
ATOM     20  C   UNL     1      46.141   2.673   8.286  0.00  0.00    +0.000 A 
ATOM     21  H   UNL     1      47.586   5.055   6.709  0.00  0.00    +0.000 HD
ENDBRANCH  11  12
ENDBRANCH   8  11
ENDBRANCH   7   8
ENDBRANCH   1   7
BRANCH   4  22
ATOM     22  C   UNL     1      48.285   7.819  13.944  0.00  0.00    +0.000 C 
BRANCH  22  23
ATOM     23  N   UNL     1      49.376   6.830  14.048  0.00  0.00    +0.000 NA
ATOM     24  H   UNL     1      50.091   7.121  13.374  0.00  0.00    +0.000 HD
BRANCH  23  25
ATOM     25  C   UNL     1      50.006   6.853  15.378  0.00  0.00    +0.000 C 
BRANCH  25  26
ATOM     26  C   UNL     1      49.084   6.352  16.468  0.00  0.00    +0.000 A 
ATOM     27  C   UNL     1      48.752   7.164  17.550  0.00  0.00    +0.000 A 
ATOM     28  C   UNL     1      47.904   6.662  18.534  0.00  0.00    +0.000 A 
ATOM     29  C   UNL     1      47.405   5.372  18.418  0.00  0.00    +0.000 A 
ATOM     30  C   UNL     1      47.775   4.627  17.314  0.00  0.00    +0.000 A 
ATOM     31  N   UNL     1      48.599   5.091  16.347  0.00  0.00    +0.000 NA
ENDBRANCH  25  26
ENDBRANCH  23  25
ENDBRANCH  22  23
ENDBRANCH   4  22
TORSDOF 8
ENDMDL
MODEL 7
REMARK VINA RESULT:    -6.671      1.543      2.283
REMARK INTER + INTRA:         -10.955
REMARK INTER:                 -10.117
REMARK INTRA:                  -0.838
REMARK UNBOUND:                -1.164
REMARK  Name = 
REMARK  9 active torsions:
REMARK  status: ('A' for Active; 'I' for Inactive)
REMARK    1  A    between atoms: C_1  and  C_2
REMARK    2  A    between atoms: C_2  and  N_3
REMARK    3  A    between atoms: C_2  and  C_20
REMARK    4  A    between atoms: N_3  and  C_4
REMARK    5  A    between atoms: C_4  and  C_5
REMARK    6  A    between atoms: C_8  and  C_9
REMARK    7  A    between atoms: C_9  and  N_10
REMARK    8  A    between atoms: N_10  and  C_11
REMARK    9  A    between atoms: C_11  and  C_12
REMARK                            x       y       z     vdW  Elec       q    Type
REMARK                         _______ _______ _______ _____ _____    ______ ____
ROOT
ATOM      1  C   UNL     1      48.238   7.722  13.564  0.00  0.00    +0.000 A 
ATOM      2  C   UNL     1      47.029   8.408  13.735  0.00  0.00    +0.000 A 
ATOM      3  C   UNL     1      45.926   8.075  12.948  0.00  0.00    +0.000 A 
ATOM      4  C   UNL     1      46.057   7.063  11.999  0.00  0.00    +0.000 A 
ATOM      5  N   UNL     1      47.235   6.429  11.775  0.00  0.00    +0.000 NA
ATOM      6  C   UNL     1      48.289   6.773  12.552  0.00  0.00    +0.000 A 
ENDROOT
BRANCH   1   7
ATOM      7  C   UNL     1      49.408   7.930  14.494  0.00  0.00    +0.000 C 
BRANCH   7   8
ATOM      8  N   UNL     1      49.708   6.754  15.318  0.00  0.00    +0.000 NA
ATOM      9  H   UNL     1      50.703   6.552  15.223  0.00  0.00    +0.000 HD
BRANCH   8  11
ATOM     10  C   UNL     1      49.858   8.318  17.268  0.00  0.00    +0.000 C 
ATOM     11  C   UNL     1      49.429   6.935  16.769  0.00  0.00    +0.000 C 
BRANCH  11  12
ATOM     12  C   UNL     1      50.052   5.765  17.498  0.00  0.00    +0.000 A 
ATOM     13  C   UNL     1      51.222   5.761  18.241  0.00  0.00    +0.000 A 
ATOM     14  N   UNL     1      51.725   4.486  18.208  0.00  0.00    +0.000 N 
ATOM     15  C   UNL     1      50.829   3.644  17.598  0.00  0.00    +0.000 A 
ATOM     16  C   UNL     1      50.939   2.311  17.232  0.00  0.00    +0.000 A 
ATOM     17  N   UNL     1      49.858   1.676  16.726  0.00  0.00    +0.000 NA
ATOM     18  C   UNL     1      48.701   2.362  16.588  0.00  0.00    +0.000 A 
ATOM     19  C   UNL     1      48.552   3.718  16.840  0.00  0.00    +0.000 A 
ATOM     20  C   UNL     1      49.680   4.388  17.334  0.00  0.00    +0.000 A 
ATOM     21  H   UNL     1      52.648   4.220  18.522  0.00  0.00    +0.000 HD
ENDBRANCH  11  12
ENDBRANCH   8  11
ENDBRANCH   7   8
ENDBRANCH   1   7
BRANCH   4  22
ATOM     22  C   UNL     1      44.852   6.578  11.215  0.00  0.00    +0.000 C 
BRANCH  22  23
ATOM     23  N   UNL     1      44.647   5.117  11.276  0.00  0.00    +0.000 NA
ATOM     24  H   UNL     1      44.030   4.949  12.076  0.00  0.00    +0.000 HD
BRANCH  23  25
ATOM     25  C   UNL     1      43.947   4.616  10.081  0.00  0.00    +0.000 C 
BRANCH  25  26
ATOM     26  C   UNL     1      44.846   3.797   9.181  0.00  0.00    +0.000 A 
ATOM     27  C   UNL     1      44.936   2.415   9.332  0.00  0.00    +0.000 A 
ATOM     28  C   UNL     1      45.780   1.699   8.487  0.00  0.00    +0.000 A 
ATOM     29  C   UNL     1      46.506   2.368   7.512  0.00  0.00    +0.000 A 
ATOM     30  C   UNL     1      46.361   3.740   7.419  0.00  0.00    +0.000 A 
ATOM     31  N   UNL     1      45.551   4.459   8.230  0.00  0.00    +0.000 NA
ENDBRANCH  25  26
ENDBRANCH  23  25
ENDBRANCH  22  23
ENDBRANCH   4  22
TORSDOF 8
ENDMDL
MODEL 8
REMARK VINA RESULT:    -6.515      2.042      8.561
REMARK INTER + INTRA:         -10.726
REMARK INTER:                 -10.111
REMARK INTRA:                  -0.615
REMARK UNBOUND:                -1.164
REMARK  Name = 
REMARK  9 active torsions:
REMARK  status: ('A' for Active; 'I' for Inactive)
REMARK    1  A    between atoms: C_1  and  C_2
REMARK    2  A    between atoms: C_2  and  N_3
REMARK    3  A    between atoms: C_2  and  C_20
REMARK    4  A    between atoms: N_3  and  C_4
REMARK    5  A    between atoms: C_4  and  C_5
REMARK    6  A    between atoms: C_8  and  C_9
REMARK    7  A    between atoms: C_9  and  N_10
REMARK    8  A    between atoms: N_10  and  C_11
REMARK    9  A    between atoms: C_11  and  C_12
REMARK                            x       y       z     vdW  Elec       q    Type
REMARK                         _______ _______ _______ _____ _____    ______ ____
ROOT
ATOM      1  C   UNL     1      47.403   5.514  14.039  0.00  0.00    +0.000 A 
ATOM      2  C   UNL     1      46.804   4.410  14.657  0.00  0.00    +0.000 A 
ATOM      3  C   UNL     1      47.183   4.048  15.951  0.00  0.00    +0.000 A 
ATOM      4  C   UNL     1      48.161   4.799  16.599  0.00  0.00    +0.000 A 
ATOM      5  N   UNL     1      48.797   5.835  15.997  0.00  0.00    +0.000 NA
ATOM      6  C   UNL     1      48.411   6.162  14.741  0.00  0.00    +0.000 A 
ENDROOT
BRANCH   1   7
ATOM      7  C   UNL     1      46.918   6.043  12.712  0.00  0.00    +0.000 C 
BRANCH   7   8
ATOM      8  N   UNL     1      45.617   6.715  12.797  0.00  0.00    +0.000 NA
ATOM      9  H   UNL     1      45.762   7.618  13.249  0.00  0.00    +0.000 HD
BRANCH   8  11
ATOM     10  C   UNL     1      44.242   8.323  11.458  0.00  0.00    +0.000 C 
ATOM     11  C   UNL     1      44.974   6.977  11.480  0.00  0.00    +0.000 C 
BRANCH  11  12
ATOM     12  C   UNL     1      44.122   5.773  11.146  0.00  0.00    +0.000 A 
ATOM     13  C   UNL     1      43.033   5.289  11.854  0.00  0.00    +0.000 A 
ATOM     14  N   UNL     1      42.943   3.946  11.599  0.00  0.00    +0.000 N 
ATOM     15  C   UNL     1      43.845   3.591  10.627  0.00  0.00    +0.000 A 
ATOM     16  C   UNL     1      44.199   2.347  10.127  0.00  0.00    +0.000 A 
ATOM     17  N   UNL     1      45.058   2.277   9.085  0.00  0.00    +0.000 NA
ATOM     18  C   UNL     1      45.548   3.424   8.563  0.00  0.00    +0.000 A 
ATOM     19  C   UNL     1      45.312   4.690   9.077  0.00  0.00    +0.000 A 
ATOM     20  C   UNL     1      44.448   4.765  10.178  0.00  0.00    +0.000 A 
ATOM     21  H   UNL     1      42.349   3.300  12.101  0.00  0.00    +0.000 HD
ENDBRANCH  11  12
ENDBRANCH   8  11
ENDBRANCH   7   8
ENDBRANCH   1   7
BRANCH   4  22
ATOM     22  C   UNL     1      48.508   4.527  18.051  0.00  0.00    +0.000 C 
BRANCH  22  23
ATOM     23  N   UNL     1      48.938   3.140  18.313  0.00  0.00    +0.000 NA
ATOM     24  H   UNL     1      48.084   2.574  18.329  0.00  0.00    +0.000 HD
BRANCH  23  25
ATOM     25  C   UNL     1      49.779   2.616  17.224  0.00  0.00    +0.000 C 
BRANCH  25  26
ATOM     26  C   UNL     1      51.210   2.379  17.656  0.00  0.00    +0.000 A 
ATOM     27  C   UNL     1      51.811   1.134  17.480  0.00  0.00    +0.000 A 
ATOM     28  C   UNL     1      53.128   0.957  17.897  0.00  0.00    +0.000 A 
ATOM     29  C   UNL     1      53.815   2.017  18.470  0.00  0.00    +0.000 A 
ATOM     30  C   UNL     1      53.155   3.224  18.607  0.00  0.00    +0.000 A 
ATOM     31  N   UNL     1      51.876   3.420  18.214  0.00  0.00    +0.000 NA
ENDBRANCH  25  26
ENDBRANCH  23  25
ENDBRANCH  22  23
ENDBRANCH   4  22
TORSDOF 8
ENDMDL
MODEL 9
REMARK VINA RESULT:    -6.276      2.410      8.497
REMARK INTER + INTRA:         -10.376
REMARK INTER:                  -9.102
REMARK INTRA:                  -1.274
REMARK UNBOUND:                -1.164
REMARK  Name = 
REMARK  9 active torsions:
REMARK  status: ('A' for Active; 'I' for Inactive)
REMARK    1  A    between atoms: C_1  and  C_2
REMARK    2  A    between atoms: C_2  and  N_3
REMARK    3  A    between atoms: C_2  and  C_20
REMARK    4  A    between atoms: N_3  and  C_4
REMARK    5  A    between atoms: C_4  and  C_5
REMARK    6  A    between atoms: C_8  and  C_9
REMARK    7  A    between atoms: C_9  and  N_10
REMARK    8  A    between atoms: N_10  and  C_11
REMARK    9  A    between atoms: C_11  and  C_12
REMARK                            x       y       z     vdW  Elec       q    Type
REMARK                         _______ _______ _______ _____ _____    ______ ____
ROOT
ATOM      1  C   UNL     1      46.339   6.864  12.714  0.00  0.00    +0.000 A 
ATOM      2  C   UNL     1      47.650   6.610  12.293  0.00  0.00    +0.000 A 
ATOM      3  C   UNL     1      48.491   7.675  11.965  0.00  0.00    +0.000 A 
ATOM      4  C   UNL     1      48.000   8.974  12.061  0.00  0.00    +0.000 A 
ATOM      5  N   UNL     1      46.716   9.240  12.408  0.00  0.00    +0.000 NA
ATOM      6  C   UNL     1      45.921   8.189  12.718  0.00  0.00    +0.000 A 
ENDROOT
BRANCH   1   7
ATOM      7  C   UNL     1      45.443   5.766  13.231  0.00  0.00    +0.000 C 
BRANCH   7   8
ATOM      8  N   UNL     1      45.262   4.668  12.275  0.00  0.00    +0.000 NA
ATOM      9  H   UNL     1      44.690   3.954  12.726  0.00  0.00    +0.000 HD
BRANCH   8  11
ATOM     10  C   UNL     1      43.232   5.750  11.286  0.00  0.00    +0.000 C 
ATOM     11  C   UNL     1      44.572   5.058  11.016  0.00  0.00    +0.000 C 
BRANCH  11  12
ATOM     12  C   UNL     1      44.497   3.826  10.141  0.00  0.00    +0.000 A 
ATOM     13  C   UNL     1      43.888   2.617  10.439  0.00  0.00    +0.000 A 
ATOM     14  N   UNL     1      44.531   1.646   9.717  0.00  0.00    +0.000 N 
ATOM     15  C   UNL     1      45.427   2.220   8.850  0.00  0.00    +0.000 A 
ATOM     16  C   UNL     1      46.375   1.650   8.014  0.00  0.00    +0.000 A 
ATOM     17  N   UNL     1      47.075   2.446   7.175  0.00  0.00    +0.000 NA
ATOM     18  C   UNL     1      46.832   3.776   7.179  0.00  0.00    +0.000 A 
ATOM     19  C   UNL     1      45.972   4.419   8.057  0.00  0.00    +0.000 A 
ATOM     20  C   UNL     1      45.268   3.602   8.951  0.00  0.00    +0.000 A 
ATOM     21  H   UNL     1      44.413   0.651   9.853  0.00  0.00    +0.000 HD
ENDBRANCH  11  12
ENDBRANCH   8  11
ENDBRANCH   7   8
ENDBRANCH   1   7
BRANCH   4  22
ATOM     22  C   UNL     1      48.916  10.165  11.845  0.00  0.00    +0.000 C 
BRANCH  22  23
ATOM     23  N   UNL     1      50.292   9.959  12.338  0.00  0.00    +0.000 NA
ATOM     24  H   UNL     1      50.887  10.593  11.796  0.00  0.00    +0.000 HD
BRANCH  23  25
ATOM     25  C   UNL     1      50.427  10.350  13.752  0.00  0.00    +0.000 C 
BRANCH  25  26
ATOM     26  C   UNL     1      50.192   9.195  14.700  0.00  0.00    +0.000 A 
ATOM     27  C   UNL     1      49.038   9.136  15.478  0.00  0.00    +0.000 A 
ATOM     28  C   UNL     1      48.863   8.058  16.343  0.00  0.00    +0.000 A 
ATOM     29  C   UNL     1      49.831   7.066  16.409  0.00  0.00    +0.000 A 
ATOM     30  C   UNL     1      50.947   7.190  15.602  0.00  0.00    +0.000 A 
ATOM     31  N   UNL     1      51.142   8.229  14.758  0.00  0.00    +0.000 NA
ENDBRANCH  25  26
ENDBRANCH  23  25
ENDBRANCH  22  23
ENDBRANCH   4  22
TORSDOF 8
ENDMDL
