MODEL 1
REMARK VINA RESULT:    -8.266      0.000      0.000
REMARK INTER + INTRA:         -11.750
REMARK INTER:                 -10.682
REMARK INTRA:                  -1.068
REMARK UNBOUND:                -1.068
REMARK  Name = 
REMARK  5 active torsions:
REMARK  status: ('A' for Active; 'I' for Inactive)
REMARK    1  A    between atoms: C_2  and  C_3
REMARK    2  A    between atoms: C_8  and  C_9
REMARK    3  A    between atoms: C_9  and  C_10
REMARK    4  A    between atoms: C_10  and  C_11
REMARK    5  A    between atoms: C_15  and  C_16
REMARK                            x       y       z     vdW  Elec       q    Type
REMARK                         _______ _______ _______ _____ _____    ______ ____
ROOT
ATOM      1  C   UNL     1      44.246   5.336  11.185  0.00  0.00    +0.000 A 
ATOM      2  C   UNL     1      43.367   4.548  11.921  0.00  0.00    +0.000 A 
ATOM      3  C   UNL     1      43.246   3.196  11.612  0.00  0.00    +0.000 A 
ATOM      4  C   UNL     1      43.987   2.666  10.564  0.00  0.00    +0.000 A 
ATOM      5  C   UNL     1      44.842   3.502   9.849  0.00  0.00    +0.000 A 
ATOM      6  N   UNL     1      44.969   4.821  10.157  0.00  0.00    +0.000 NA
ENDROOT
BRANCH   5   7
ATOM      7  C   UNL     1      45.624   3.026   8.690  0.00  0.00    +0.000 A 
ATOM      8  C   UNL     1      46.029   3.915   7.675  0.00  0.00    +0.000 A 
ATOM      9  C   UNL     1      46.711   3.468   6.537  0.00  0.00    +0.000 A 
ATOM     10  C   UNL     1      47.008   2.116   6.397  0.00  0.00    +0.000 A 
ATOM     11  C   UNL     1      46.642   1.232   7.401  0.00  0.00    +0.000 A 
ATOM     12  F   UNL     1      46.929  -0.069   7.275  0.00  0.00    +0.000 F 
ATOM     13  C   UNL     1      45.968   1.672   8.537  0.00  0.00    +0.000 A 
ENDBRANCH   5   7
BRANCH   1  14
ATOM     14  C   UNL     1      44.416   6.825  11.413  0.00  0.00    +0.000 C 
BRANCH  14  15
ATOM     15  C   UNL     1      45.092   7.221  12.734  0.00  0.00    +0.000 C 
BRANCH  15  21
ATOM     16  C   UNL     1      47.415   6.143  13.082  0.00  0.00    +0.000 A 
ATOM     17  N   UNL     1      48.772   6.151  12.971  0.00  0.00    +0.000 NA
ATOM     18  C   UNL     1      49.355   7.259  12.466  0.00  0.00    +0.000 A 
ATOM     19  C   UNL     1      48.647   8.376  12.070  0.00  0.00    +0.000 A 
ATOM     20  C   UNL     1      47.261   8.354  12.187  0.00  0.00    +0.000 A 
ATOM     21  C   UNL     1      46.606   7.218  12.693  0.00  0.00    +0.000 A 
BRANCH  16  23
ATOM     22  N   UNL     1      46.482   3.913  14.055  0.00  0.00    +0.000 NA
ATOM     23  C   UNL     1      46.898   4.905  13.622  0.00  0.00    +0.000 C 
ENDBRANCH  16  23
ENDBRANCH  15  21
ENDBRANCH  14  15
ENDBRANCH   1  14
TORSDOF 5
ENDMDL
MODEL 2
REMARK VINA RESULT:    -7.606      1.449      2.016
REMARK INTER + INTRA:         -10.897
REMARK INTER:                  -9.975
REMARK INTRA:                  -0.923
REMARK UNBOUND:                -1.068
REMARK  Name = 
REMARK  5 active torsions:
REMARK  status: ('A' for Active; 'I' for Inactive)
REMARK    1  A    between atoms: C_2  and  C_3
REMARK    2  A    between atoms: C_8  and  C_9
REMARK    3  A    between atoms: C_9  and  C_10
REMARK    4  A    between atoms: C_10  and  C_11
REMARK    5  A    between atoms: C_15  and  C_16
REMARK                            x       y       z     vdW  Elec       q    Type
REMARK                         _______ _______ _______ _____ _____    ______ ____
ROOT
ATOM      1  C   UNL     1      45.241   6.216  11.459  0.00  0.00    +0.000 A 
ATOM      2  C   UNL     1      43.879   6.210  11.746  0.00  0.00    +0.000 A 
ATOM      3  C   UNL     1      43.051   5.304  11.088  0.00  0.00    +0.000 A 
ATOM      4  C   UNL     1      43.596   4.443  10.145  0.00  0.00    +0.000 A 
ATOM      5  C   UNL     1      44.963   4.500   9.884  0.00  0.00    +0.000 A 
ATOM      6  N   UNL     1      45.774   5.377  10.535  0.00  0.00    +0.000 NA
ENDROOT
BRANCH   5   7
ATOM      7  C   UNL     1      45.607   3.654   8.860  0.00  0.00    +0.000 A 
ATOM      8  C   UNL     1      46.203   4.225   7.718  0.00  0.00    +0.000 A 
ATOM      9  C   UNL     1      46.756   3.433   6.705  0.00  0.00    +0.000 A 
ATOM     10  C   UNL     1      46.731   2.047   6.821  0.00  0.00    +0.000 A 
ATOM     11  C   UNL     1      46.175   1.470   7.953  0.00  0.00    +0.000 A 
ATOM     12  F   UNL     1      46.153   0.137   8.074  0.00  0.00    +0.000 F 
ATOM     13  C   UNL     1      45.627   2.253   8.966  0.00  0.00    +0.000 A 
ENDBRANCH   5   7
BRANCH   1  14
ATOM     14  C   UNL     1      46.217   7.192  12.088  0.00  0.00    +0.000 C 
BRANCH  14  15
ATOM     15  C   UNL     1      47.621   6.638  12.368  0.00  0.00    +0.000 C 
BRANCH  15  21
ATOM     16  C   UNL     1      47.517   5.080  14.428  0.00  0.00    +0.000 A 
ATOM     17  N   UNL     1      47.825   4.773  15.718  0.00  0.00    +0.000 NA
ATOM     18  C   UNL     1      48.510   5.687  16.437  0.00  0.00    +0.000 A 
ATOM     19  C   UNL     1      48.899   6.912  15.932  0.00  0.00    +0.000 A 
ATOM     20  C   UNL     1      48.579   7.213  14.612  0.00  0.00    +0.000 A 
ATOM     21  C   UNL     1      47.882   6.287  13.818  0.00  0.00    +0.000 A 
BRANCH  16  23
ATOM     22  N   UNL     1      46.221   3.179  13.206  0.00  0.00    +0.000 NA
ATOM     23  C   UNL     1      46.797   4.025  13.750  0.00  0.00    +0.000 C 
ENDBRANCH  16  23
ENDBRANCH  15  21
ENDBRANCH  14  15
ENDBRANCH   1  14
TORSDOF 5
ENDMDL
MODEL 3
REMARK VINA RESULT:    -7.091      2.950      6.551
REMARK INTER + INTRA:         -10.231
REMARK INTER:                  -9.431
REMARK INTRA:                  -0.800
REMARK UNBOUND:                -1.068
REMARK  Name = 
REMARK  5 active torsions:
REMARK  status: ('A' for Active; 'I' for Inactive)
REMARK    1  A    between atoms: C_2  and  C_3
REMARK    2  A    between atoms: C_8  and  C_9
REMARK    3  A    between atoms: C_9  and  C_10
REMARK    4  A    between atoms: C_10  and  C_11
REMARK    5  A    between atoms: C_15  and  C_16
REMARK                            x       y       z     vdW  Elec       q    Type
REMARK                         _______ _______ _______ _____ _____    ______ ____
ROOT
ATOM      1  C   UNL     1      44.311   3.883  10.600  0.00  0.00    +0.000 A 
ATOM      2  C   UNL     1      43.312   3.556  11.512  0.00  0.00    +0.000 A 
ATOM      3  C   UNL     1      43.373   4.079  12.801  0.00  0.00    +0.000 A 
ATOM      4  C   UNL     1      44.437   4.896  13.157  0.00  0.00    +0.000 A 
ATOM      5  C   UNL     1      45.419   5.181  12.211  0.00  0.00    +0.000 A 
ATOM      6  N   UNL     1      45.355   4.679  10.947  0.00  0.00    +0.000 NA
ENDROOT
BRANCH   5   7
ATOM      7  C   UNL     1      46.607   5.998  12.527  0.00  0.00    +0.000 A 
ATOM      8  C   UNL     1      47.350   5.772  13.703  0.00  0.00    +0.000 A 
ATOM      9  C   UNL     1      48.437   6.583  14.051  0.00  0.00    +0.000 A 
ATOM     10  C   UNL     1      48.808   7.635  13.220  0.00  0.00    +0.000 A 
ATOM     11  C   UNL     1      48.106   7.851  12.044  0.00  0.00    +0.000 A 
ATOM     12  F   UNL     1      48.461   8.858  11.236  0.00  0.00    +0.000 F 
ATOM     13  C   UNL     1      47.027   7.046  11.690  0.00  0.00    +0.000 A 
ENDBRANCH   5   7
BRANCH   1  14
ATOM     14  C   UNL     1      44.360   3.331   9.189  0.00  0.00    +0.000 C 
BRANCH  14  15
ATOM     15  C   UNL     1      45.343   2.173   8.964  0.00  0.00    +0.000 C 
BRANCH  15  21
ATOM     16  C   UNL     1      46.942   1.300   7.130  0.00  0.00    +0.000 A 
ATOM     17  N   UNL     1      47.697   1.477   6.011  0.00  0.00    +0.000 NA
ATOM     18  C   UNL     1      47.781   2.723   5.499  0.00  0.00    +0.000 A 
ATOM     19  C   UNL     1      47.151   3.817   6.059  0.00  0.00    +0.000 A 
ATOM     20  C   UNL     1      46.381   3.622   7.200  0.00  0.00    +0.000 A 
ATOM     21  C   UNL     1      46.249   2.340   7.761  0.00  0.00    +0.000 A 
BRANCH  16  23
ATOM     22  N   UNL     1      46.887  -1.175   7.943  0.00  0.00    +0.000 NA
ATOM     23  C   UNL     1      46.911  -0.074   7.582  0.00  0.00    +0.000 C 
ENDBRANCH  16  23
ENDBRANCH  15  21
ENDBRANCH  14  15
ENDBRANCH   1  14
TORSDOF 5
ENDMDL
MODEL 4
REMARK VINA RESULT:    -6.992      1.463      2.578
REMARK INTER + INTRA:         -10.103
REMARK INTER:                  -9.438
REMARK INTRA:                  -0.665
REMARK UNBOUND:                -1.068
REMARK  Name = 
REMARK  5 active torsions:
REMARK  status: ('A' for Active; 'I' for Inactive)
REMARK    1  A    between atoms: C_2  and  C_3
REMARK    2  A    between atoms: C_8  and  C_9
REMARK    3  A    between atoms: C_9  and  C_10
REMARK    4  A    between atoms: C_10  and  C_11
REMARK    5  A    between atoms: C_15  and  C_16
REMARK                            x       y       z     vdW  Elec       q    Type
REMARK                         _______ _______ _______ _____ _____    ______ ____
ROOT
ATOM      1  C   UNL     1      44.930   6.057  11.651  0.00  0.00    +0.000 A 
ATOM      2  C   UNL     1      43.600   5.868  12.012  0.00  0.00    +0.000 A 
ATOM      3  C   UNL     1      42.866   4.860  11.391  0.00  0.00    +0.000 A 
ATOM      4  C   UNL     1      43.468   4.081  10.413  0.00  0.00    +0.000 A 
ATOM      5  C   UNL     1      44.798   4.322  10.078  0.00  0.00    +0.000 A 
ATOM      6  N   UNL     1      45.520   5.299  10.691  0.00  0.00    +0.000 NA
ENDROOT
BRANCH   5   7
ATOM      7  C   UNL     1      45.493   3.571   9.012  0.00  0.00    +0.000 A 
ATOM      8  C   UNL     1      46.068   4.239   7.913  0.00  0.00    +0.000 A 
ATOM      9  C   UNL     1      46.669   3.537   6.861  0.00  0.00    +0.000 A 
ATOM     10  C   UNL     1      46.713   2.147   6.895  0.00  0.00    +0.000 A 
ATOM     11  C   UNL     1      46.177   1.476   7.984  0.00  0.00    +0.000 A 
ATOM     12  F   UNL     1      46.221   0.139   8.026  0.00  0.00    +0.000 F 
ATOM     13  C   UNL     1      45.582   2.169   9.036  0.00  0.00    +0.000 A 
ENDBRANCH   5   7
BRANCH   1  14
ATOM     14  C   UNL     1      45.800   7.154  12.234  0.00  0.00    +0.000 C 
BRANCH  14  15
ATOM     15  C   UNL     1      47.275   6.788  12.448  0.00  0.00    +0.000 C 
BRANCH  15  21
ATOM     16  C   UNL     1      48.495   6.483  14.707  0.00  0.00    +0.000 A 
ATOM     17  N   UNL     1      48.681   5.845  15.894  0.00  0.00    +0.000 NA
ATOM     18  C   UNL     1      47.930   4.753  16.147  0.00  0.00    +0.000 A 
ATOM     19  C   UNL     1      46.997   4.252  15.260  0.00  0.00    +0.000 A 
ATOM     20  C   UNL     1      46.815   4.915  14.050  0.00  0.00    +0.000 A 
ATOM     21  C   UNL     1      47.563   6.066  13.749  0.00  0.00    +0.000 A 
BRANCH  16  23
ATOM     22  N   UNL     1      50.019   8.577  14.422  0.00  0.00    +0.000 NA
ATOM     23  C   UNL     1      49.342   7.645  14.548  0.00  0.00    +0.000 C 
ENDBRANCH  16  23
ENDBRANCH  15  21
ENDBRANCH  14  15
ENDBRANCH   1  14
TORSDOF 5
ENDMDL
MODEL 5
REMARK VINA RESULT:    -6.773      1.806      2.465
REMARK INTER + INTRA:          -9.820
REMARK INTER:                  -8.926
REMARK INTRA:                  -0.894
REMARK UNBOUND:                -1.068
REMARK  Name = 
REMARK  5 active torsions:
REMARK  status: ('A' for Active; 'I' for Inactive)
REMARK    1  A    between atoms: C_2  and  C_3
REMARK    2  A    between atoms: C_8  and  C_9
REMARK    3  A    between atoms: C_9  and  C_10
REMARK    4  A    between atoms: C_10  and  C_11
REMARK    5  A    between atoms: C_15  and  C_16
REMARK                            x       y       z     vdW  Elec       q    Type
REMARK                         _______ _______ _______ _____ _____    ______ ____
ROOT
ATOM      1  C   UNL     1      44.858   4.882  12.838  0.00  0.00    +0.000 A 
ATOM      2  C   UNL     1      43.586   5.444  12.866  0.00  0.00    +0.000 A 
ATOM      3  C   UNL     1      42.773   5.339  11.740  0.00  0.00    +0.000 A 
ATOM      4  C   UNL     1      43.255   4.696  10.608  0.00  0.00    +0.000 A 
ATOM      5  C   UNL     1      44.542   4.164  10.627  0.00  0.00    +0.000 A 
ATOM      6  N   UNL     1      45.333   4.257  11.730  0.00  0.00    +0.000 NA
ENDROOT
BRANCH   5   7
ATOM      7  C   UNL     1      45.145   3.512   9.447  0.00  0.00    +0.000 A 
ATOM      8  C   UNL     1      45.257   2.110   9.371  0.00  0.00    +0.000 A 
ATOM      9  C   UNL     1      45.888   1.481   8.291  0.00  0.00    +0.000 A 
ATOM     10  C   UNL     1      46.413   2.249   7.256  0.00  0.00    +0.000 A 
ATOM     11  C   UNL     1      46.284   3.629   7.301  0.00  0.00    +0.000 A 
ATOM     12  F   UNL     1      46.782   4.373   6.306  0.00  0.00    +0.000 F 
ATOM     13  C   UNL     1      45.654   4.259   8.371  0.00  0.00    +0.000 A 
ENDBRANCH   5   7
BRANCH   1  14
ATOM     14  C   UNL     1      45.835   4.981  13.994  0.00  0.00    +0.000 C 
BRANCH  14  15
ATOM     15  C   UNL     1      47.321   4.967  13.609  0.00  0.00    +0.000 C 
BRANCH  15  21
ATOM     16  C   UNL     1      48.643   7.053  14.372  0.00  0.00    +0.000 A 
ATOM     17  N   UNL     1      49.233   8.256  14.130  0.00  0.00    +0.000 NA
ATOM     18  C   UNL     1      49.113   8.778  12.890  0.00  0.00    +0.000 A 
ATOM     19  C   UNL     1      48.418   8.159  11.871  0.00  0.00    +0.000 A 
ATOM     20  C   UNL     1      47.821   6.929  12.131  0.00  0.00    +0.000 A 
ATOM     21  C   UNL     1      47.931   6.338  13.401  0.00  0.00    +0.000 A 
BRANCH  16  23
ATOM     22  N   UNL     1      49.007   6.207  16.809  0.00  0.00    +0.000 NA
ATOM     23  C   UNL     1      48.845   6.584  15.725  0.00  0.00    +0.000 C 
ENDBRANCH  16  23
ENDBRANCH  15  21
ENDBRANCH  14  15
ENDBRANCH   1  14
TORSDOF 5
ENDMDL
MODEL 6
REMARK VINA RESULT:    -6.764      2.510      3.385
REMARK INTER + INTRA:          -9.808
REMARK INTER:                  -8.975
REMARK INTRA:                  -0.834
REMARK UNBOUND:                -1.068
REMARK  Name = 
REMARK  5 active torsions:
REMARK  status: ('A' for Active; 'I' for Inactive)
REMARK    1  A    between atoms: C_2  and  C_3
REMARK    2  A    between atoms: C_8  and  C_9
REMARK    3  A    between atoms: C_9  and  C_10
REMARK    4  A    between atoms: C_10  and  C_11
REMARK    5  A    between atoms: C_15  and  C_16
REMARK                            x       y       z     vdW  Elec       q    Type
REMARK                         _______ _______ _______ _____ _____    ______ ____
ROOT
ATOM      1  C   UNL     1      45.232   6.227  11.477  0.00  0.00    +0.000 A 
ATOM      2  C   UNL     1      43.871   6.197  11.767  0.00  0.00    +0.000 A 
ATOM      3  C   UNL     1      43.058   5.279  11.107  0.00  0.00    +0.000 A 
ATOM      4  C   UNL     1      43.615   4.429  10.161  0.00  0.00    +0.000 A 
ATOM      5  C   UNL     1      44.980   4.510   9.898  0.00  0.00    +0.000 A 
ATOM      6  N   UNL     1      45.778   5.400  10.550  0.00  0.00    +0.000 NA
ENDROOT
BRANCH   5   7
ATOM      7  C   UNL     1      45.637   3.678   8.870  0.00  0.00    +0.000 A 
ATOM      8  C   UNL     1      46.245   4.264   7.743  0.00  0.00    +0.000 A 
ATOM      9  C   UNL     1      46.811   3.485   6.727  0.00  0.00    +0.000 A 
ATOM     10  C   UNL     1      46.786   2.098   6.824  0.00  0.00    +0.000 A 
ATOM     11  C   UNL     1      46.217   1.506   7.942  0.00  0.00    +0.000 A 
ATOM     12  F   UNL     1      46.194   0.171   8.046  0.00  0.00    +0.000 F 
ATOM     13  C   UNL     1      45.657   2.276   8.959  0.00  0.00    +0.000 A 
ENDBRANCH   5   7
BRANCH   1  14
ATOM     14  C   UNL     1      46.193   7.217  12.107  0.00  0.00    +0.000 C 
BRANCH  14  15
ATOM     15  C   UNL     1      45.549   8.473  12.712  0.00  0.00    +0.000 C 
BRANCH  15  21
ATOM     16  C   UNL     1      44.871  10.387  11.113  0.00  0.00    +0.000 A 
ATOM     17  N   UNL     1      45.115  11.568  10.482  0.00  0.00    +0.000 NA
ATOM     18  C   UNL     1      46.326  12.138  10.660  0.00  0.00    +0.000 A 
ATOM     19  C   UNL     1      47.321  11.579  11.437  0.00  0.00    +0.000 A 
ATOM     20  C   UNL     1      47.057  10.373  12.078  0.00  0.00    +0.000 A 
ATOM     21  C   UNL     1      45.806   9.749  11.936  0.00  0.00    +0.000 A 
BRANCH  16  23
ATOM     22  N   UNL     1      42.476   9.466  10.662  0.00  0.00    +0.000 NA
ATOM     23  C   UNL     1      43.541   9.875  10.863  0.00  0.00    +0.000 C 
ENDBRANCH  16  23
ENDBRANCH  15  21
ENDBRANCH  14  15
ENDBRANCH   1  14
TORSDOF 5
ENDMDL
MODEL 7
REMARK VINA RESULT:    -6.686      3.317      6.892
REMARK INTER + INTRA:          -9.708
REMARK INTER:                  -8.949
REMARK INTRA:                  -0.759
REMARK UNBOUND:                -1.068
REMARK  Name = 
REMARK  5 active torsions:
REMARK  status: ('A' for Active; 'I' for Inactive)
REMARK    1  A    between atoms: C_2  and  C_3
REMARK    2  A    between atoms: C_8  and  C_9
REMARK    3  A    between atoms: C_9  and  C_10
REMARK    4  A    between atoms: C_10  and  C_11
REMARK    5  A    between atoms: C_15  and  C_16
REMARK                            x       y       z     vdW  Elec       q    Type
REMARK                         _______ _______ _______ _____ _____    ______ ____
ROOT
ATOM      1  C   UNL     1      44.740   3.896  10.636  0.00  0.00    +0.000 A 
ATOM      2  C   UNL     1      44.897   3.114  11.777  0.00  0.00    +0.000 A 
ATOM      3  C   UNL     1      45.135   3.737  12.999  0.00  0.00    +0.000 A 
ATOM      4  C   UNL     1      45.233   5.121  13.052  0.00  0.00    +0.000 A 
ATOM      5  C   UNL     1      45.084   5.856  11.878  0.00  0.00    +0.000 A 
ATOM      6  N   UNL     1      44.840   5.249  10.685  0.00  0.00    +0.000 NA
ENDROOT
BRANCH   5   7
ATOM      7  C   UNL     1      45.226   7.326  11.844  0.00  0.00    +0.000 A 
ATOM      8  C   UNL     1      46.310   7.964  12.478  0.00  0.00    +0.000 A 
ATOM      9  C   UNL     1      46.421   9.359  12.513  0.00  0.00    +0.000 A 
ATOM     10  C   UNL     1      45.449  10.145  11.903  0.00  0.00    +0.000 A 
ATOM     11  C   UNL     1      44.391   9.531  11.249  0.00  0.00    +0.000 A 
ATOM     12  F   UNL     1      43.455  10.281  10.655  0.00  0.00    +0.000 F 
ATOM     13  C   UNL     1      44.277   8.144  11.207  0.00  0.00    +0.000 A 
ENDBRANCH   5   7
BRANCH   1  14
ATOM     14  C   UNL     1      44.523   3.312   9.254  0.00  0.00    +0.000 C 
BRANCH  14  15
ATOM     15  C   UNL     1      45.371   2.079   8.914  0.00  0.00    +0.000 C 
BRANCH  15  21
ATOM     16  C   UNL     1      47.003   1.222   7.101  0.00  0.00    +0.000 A 
ATOM     17  N   UNL     1      47.768   1.405   5.990  0.00  0.00    +0.000 NA
ATOM     18  C   UNL     1      47.841   2.651   5.475  0.00  0.00    +0.000 A 
ATOM     19  C   UNL     1      47.189   3.738   6.023  0.00  0.00    +0.000 A 
ATOM     20  C   UNL     1      46.409   3.536   7.157  0.00  0.00    +0.000 A 
ATOM     21  C   UNL     1      46.289   2.255   7.721  0.00  0.00    +0.000 A 
BRANCH  16  23
ATOM     22  N   UNL     1      46.973  -1.250   7.923  0.00  0.00    +0.000 NA
ATOM     23  C   UNL     1      46.986  -0.151   7.558  0.00  0.00    +0.000 C 
ENDBRANCH  16  23
ENDBRANCH  15  21
ENDBRANCH  14  15
ENDBRANCH   1  14
TORSDOF 5
ENDMDL
MODEL 8
REMARK VINA RESULT:    -6.675      3.245      7.076
REMARK INTER + INTRA:          -9.693
REMARK INTER:                  -9.190
REMARK INTRA:                  -0.503
REMARK UNBOUND:                -1.068
REMARK  Name = 
REMARK  5 active torsions:
REMARK  status: ('A' for Active; 'I' for Inactive)
REMARK    1  A    between atoms: C_2  and  C_3
REMARK    2  A    between atoms: C_8  and  C_9
REMARK    3  A    between atoms: C_9  and  C_10
REMARK    4  A    between atoms: C_10  and  C_11
REMARK    5  A    between atoms: C_15  and  C_16
REMARK                            x       y       z     vdW  Elec       q    Type
REMARK                         _______ _______ _______ _____ _____    ______ ____
ROOT
ATOM      1  C   UNL     1      46.168   5.886  12.545  0.00  0.00    +0.000 A 
ATOM      2  C   UNL     1      46.989   6.823  11.926  0.00  0.00    +0.000 A 
ATOM      3  C   UNL     1      48.175   7.203  12.549  0.00  0.00    +0.000 A 
ATOM      4  C   UNL     1      48.503   6.657  13.782  0.00  0.00    +0.000 A 
ATOM      5  C   UNL     1      47.638   5.734  14.366  0.00  0.00    +0.000 A 
ATOM      6  N   UNL     1      46.484   5.354  13.753  0.00  0.00    +0.000 NA
ENDROOT
BRANCH   5   7
ATOM      7  C   UNL     1      47.891   5.148  15.698  0.00  0.00    +0.000 A 
ATOM      8  C   UNL     1      48.892   5.670  16.541  0.00  0.00    +0.000 A 
ATOM      9  C   UNL     1      49.190   5.084  17.777  0.00  0.00    +0.000 A 
ATOM     10  C   UNL     1      48.482   3.963  18.198  0.00  0.00    +0.000 A 
ATOM     11  C   UNL     1      47.473   3.454  17.393  0.00  0.00    +0.000 A 
ATOM     12  F   UNL     1      46.784   2.379  17.794  0.00  0.00    +0.000 F 
ATOM     13  C   UNL     1      47.170   4.037  16.165  0.00  0.00    +0.000 A 
ENDBRANCH   5   7
BRANCH   1  14
ATOM     14  C   UNL     1      44.836   5.441  11.971  0.00  0.00    +0.000 C 
BRANCH  14  15
ATOM     15  C   UNL     1      44.660   5.657  10.461  0.00  0.00    +0.000 C 
BRANCH  15  21
ATOM     16  C   UNL     1      44.679   3.169   9.761  0.00  0.00    +0.000 A 
ATOM     17  N   UNL     1      45.053   2.158   8.929  0.00  0.00    +0.000 NA
ATOM     18  C   UNL     1      45.884   2.457   7.909  0.00  0.00    +0.000 A 
ATOM     19  C   UNL     1      46.375   3.727   7.678  0.00  0.00    +0.000 A 
ATOM     20  C   UNL     1      45.984   4.751   8.534  0.00  0.00    +0.000 A 
ATOM     21  C   UNL     1      45.108   4.493   9.602  0.00  0.00    +0.000 A 
BRANCH  16  23
ATOM     22  N   UNL     1      43.059   2.392  11.647  0.00  0.00    +0.000 NA
ATOM     23  C   UNL     1      43.780   2.738  10.809  0.00  0.00    +0.000 C 
ENDBRANCH  16  23
ENDBRANCH  15  21
ENDBRANCH  14  15
ENDBRANCH   1  14
TORSDOF 5
ENDMDL
MODEL 9
REMARK VINA RESULT:    -6.622      2.602      3.615
REMARK INTER + INTRA:          -9.625
REMARK INTER:                  -8.797
REMARK INTRA:                  -0.828
REMARK UNBOUND:                -1.068
REMARK  Name = 
REMARK  5 active torsions:
REMARK  status: ('A' for Active; 'I' for Inactive)
REMARK    1  A    between atoms: C_2  and  C_3
REMARK    2  A    between atoms: C_8  and  C_9
REMARK    3  A    between atoms: C_9  and  C_10
REMARK    4  A    between atoms: C_10  and  C_11
REMARK    5  A    between atoms: C_15  and  C_16
REMARK                            x       y       z     vdW  Elec       q    Type
REMARK                         _______ _______ _______ _____ _____    ______ ____
ROOT
ATOM      1  C   UNL     1      45.126   6.004  11.050  0.00  0.00    +0.000 A 
ATOM      2  C   UNL     1      43.846   5.742  11.528  0.00  0.00    +0.000 A 
ATOM      3  C   UNL     1      43.169   4.615  11.070  0.00  0.00    +0.000 A 
ATOM      4  C   UNL     1      43.773   3.790  10.132  0.00  0.00    +0.000 A 
ATOM      5  C   UNL     1      45.050   4.106   9.674  0.00  0.00    +0.000 A 
ATOM      6  N   UNL     1      45.718   5.201  10.129  0.00  0.00    +0.000 NA
ENDROOT
BRANCH   5   7
ATOM      7  C   UNL     1      45.738   3.307   8.639  0.00  0.00    +0.000 A 
ATOM      8  C   UNL     1      46.281   3.920   7.493  0.00  0.00    +0.000 A 
ATOM      9  C   UNL     1      46.874   3.170   6.471  0.00  0.00    +0.000 A 
ATOM     10  C   UNL     1      46.944   1.785   6.583  0.00  0.00    +0.000 A 
ATOM     11  C   UNL     1      46.442   1.169   7.719  0.00  0.00    +0.000 A 
ATOM     12  F   UNL     1      46.511  -0.163   7.836  0.00  0.00    +0.000 F 
ATOM     13  C   UNL     1      45.854   1.911   8.741  0.00  0.00    +0.000 A 
ENDBRANCH   5   7
BRANCH   1  14
ATOM     14  C   UNL     1      45.928   7.227  11.452  0.00  0.00    +0.000 C 
BRANCH  14  15
ATOM     15  C   UNL     1      45.167   8.279  12.272  0.00  0.00    +0.000 C 
BRANCH  15  21
ATOM     16  C   UNL     1      45.582  10.666  11.371  0.00  0.00    +0.000 A 
ATOM     17  N   UNL     1      45.232  11.742  10.614  0.00  0.00    +0.000 NA
ATOM     18  C   UNL     1      44.050  11.696   9.964  0.00  0.00    +0.000 A 
ATOM     19  C   UNL     1      43.184  10.623  10.038  0.00  0.00    +0.000 A 
ATOM     20  C   UNL     1      43.555   9.529  10.814  0.00  0.00    +0.000 A 
ATOM     21  C   UNL     1      44.782   9.523  11.498  0.00  0.00    +0.000 A 
BRANCH  16  23
ATOM     22  N   UNL     1      47.901  10.939  12.526  0.00  0.00    +0.000 NA
ATOM     23  C   UNL     1      46.870  10.818  12.011  0.00  0.00    +0.000 C 
ENDBRANCH  16  23
ENDBRANCH  15  21
ENDBRANCH  14  15
ENDBRANCH   1  14
TORSDOF 5
ENDMDL
