MODEL 1
REMARK VINA RESULT:    -8.567      0.000      0.000
REMARK INTER + INTRA:         -13.604
REMARK INTER:                 -12.323
REMARK INTRA:                  -1.281
REMARK UNBOUND:                -1.281
REMARK  Name = 
REMARK  8 active torsions:
REMARK  status: ('A' for Active; 'I' for Inactive)
REMARK    1  A    between atoms: N_1  and  C_2
REMARK    2  A    between atoms: C_2  and  C_3
REMARK    3  A    between atoms: C_2  and  C_24
REMARK    4  A    between atoms: C_3  and  C_4
REMARK    5  A    between atoms: C_8  and  C_9
REMARK    6  A    between atoms: C_9  and  N_10
REMARK    7  A    between atoms: C_11  and  C_13
REMARK    8  A    between atoms: C_24  and  C_26
REMARK                            x       y       z     vdW  Elec       q    Type
REMARK                         _______ _______ _______ _____ _____    ______ ____
ROOT
ATOM      1  C   UNL     1      45.070   6.836  12.164  0.00  0.00    +0.000 A 
ATOM      2  C   UNL     1      44.353   7.784  11.423  0.00  0.00    +0.000 A 
ATOM      3  C   UNL     1      44.742   9.125  11.417  0.00  0.00    +0.000 A 
ATOM      4  C   UNL     1      45.844   9.536  12.166  0.00  0.00    +0.000 A 
ATOM      5  C   UNL     1      46.559   8.615  12.939  0.00  0.00    +0.000 A 
ATOM      6  C   UNL     1      46.178   7.263  12.915  0.00  0.00    +0.000 A 
ENDROOT
BRANCH   1   7
ATOM      7  C   UNL     1      44.669   5.376  12.149  0.00  0.00    +0.000 C 
BRANCH   7   8
ATOM      8  C   UNL     1      43.584   4.959  11.134  0.00  0.00    +0.000 C 
BRANCH   8   9
ATOM      9  N   UNL     1      42.209   5.052  11.673  0.00  0.00    +0.000 NA
ATOM     10  H   UNL     1      41.555   5.263  10.926  0.00  0.00    +0.000 HD
ATOM     11  H   UNL     1      42.191   5.859  12.307  0.00  0.00    +0.000 HD
ENDBRANCH   8   9
BRANCH   8  12
ATOM     12  C   UNL     1      43.813   3.530  10.599  0.00  0.00    +0.000 C 
ATOM     13  O   UNL     1      43.220   2.563  11.083  0.00  0.00    +0.000 OA
BRANCH  12  14
ATOM     14  C   UNL     1      44.790   3.288   9.487  0.00  0.00    +0.000 A 
ATOM     15  C   UNL     1      45.357   4.314   8.719  0.00  0.00    +0.000 A 
ATOM     16  C   UNL     1      46.246   4.011   7.681  0.00  0.00    +0.000 A 
ATOM     17  C   UNL     1      46.583   2.687   7.405  0.00  0.00    +0.000 A 
ATOM     18  C   UNL     1      46.030   1.660   8.164  0.00  0.00    +0.000 A 
ATOM     19  C   UNL     1      45.137   1.958   9.197  0.00  0.00    +0.000 A 
ENDBRANCH  12  14
ENDBRANCH   8  12
ENDBRANCH   7   8
ENDBRANCH   1   7
BRANCH   5  20
ATOM     20  C   UNL     1      47.744   9.063  13.756  0.00  0.00    +0.000 C 
BRANCH  20  21
ATOM     21  N   UNL     1      47.911   8.230  14.920  0.00  0.00    +0.000 N 
ATOM     22  C   UNL     1      48.879   7.262  14.975  0.00  0.00    +0.000 C 
ATOM     23  O   UNL     1      49.678   7.086  14.059  0.00  0.00    +0.000 OA
ATOM     24  H   UNL     1      47.133   8.198  15.571  0.00  0.00    +0.000 HD
BRANCH  22  25
ATOM     25  C   UNL     1      48.959   6.487  16.220  0.00  0.00    +0.000 A 
ATOM     26  C   UNL     1      49.690   6.982  17.292  0.00  0.00    +0.000 A 
ATOM     27  S   UNL     1      49.626   5.993  18.680  0.00  0.00    +0.000 S 
ATOM     28  C   UNL     1      48.662   4.842  17.881  0.00  0.00    +0.000 A 
ATOM     29  N   UNL     1      48.259   3.708  18.516  0.00  0.00    +0.000 NA
ATOM     30  C   UNL     1      47.559   2.907  17.783  0.00  0.00    +0.000 A 
ATOM     31  N   UNL     1      47.223   3.139  16.476  0.00  0.00    +0.000 N 
ATOM     32  C   UNL     1      47.589   4.277  15.798  0.00  0.00    +0.000 A 
ATOM     33  O   UNL     1      47.242   4.468  14.636  0.00  0.00    +0.000 OA
ATOM     34  C   UNL     1      48.383   5.212  16.577  0.00  0.00    +0.000 A 
ATOM     35  H   UNL     1      46.670   2.472  15.958  0.00  0.00    +0.000 HD
ENDBRANCH  22  25
ENDBRANCH  20  21
ENDBRANCH   5  20
TORSDOF 8
ENDMDL
MODEL 2
REMARK VINA RESULT:    -8.554      2.070      2.987
REMARK INTER + INTRA:         -13.586
REMARK INTER:                 -12.836
REMARK INTRA:                  -0.750
REMARK UNBOUND:                -1.281
REMARK  Name = 
REMARK  8 active torsions:
REMARK  status: ('A' for Active; 'I' for Inactive)
REMARK    1  A    between atoms: N_1  and  C_2
REMARK    2  A    between atoms: C_2  and  C_3
REMARK    3  A    between atoms: C_2  and  C_24
REMARK    4  A    between atoms: C_3  and  C_4
REMARK    5  A    between atoms: C_8  and  C_9
REMARK    6  A    between atoms: C_9  and  N_10
REMARK    7  A    between atoms: C_11  and  C_13
REMARK    8  A    between atoms: C_24  and  C_26
REMARK                            x       y       z     vdW  Elec       q    Type
REMARK                         _______ _______ _______ _____ _____    ______ ____
ROOT
ATOM      1  C   UNL     1      45.919   5.927  10.996  0.00  0.00    +0.000 A 
ATOM      2  C   UNL     1      46.052   7.280  11.331  0.00  0.00    +0.000 A 
ATOM      3  C   UNL     1      46.270   7.669  12.654  0.00  0.00    +0.000 A 
ATOM      4  C   UNL     1      46.343   6.708  13.661  0.00  0.00    +0.000 A 
ATOM      5  C   UNL     1      46.183   5.351  13.359  0.00  0.00    +0.000 A 
ATOM      6  C   UNL     1      45.993   4.968  12.021  0.00  0.00    +0.000 A 
ENDROOT
BRANCH   1   7
ATOM      7  C   UNL     1      45.711   5.499   9.559  0.00  0.00    +0.000 C 
BRANCH   7   8
ATOM      8  C   UNL     1      44.396   4.760   9.233  0.00  0.00    +0.000 C 
BRANCH   8   9
ATOM      9  N   UNL     1      43.322   5.007  10.222  0.00  0.00    +0.000 NA
ATOM     10  H   UNL     1      43.295   5.992  10.469  0.00  0.00    +0.000 HD
ATOM     11  H   UNL     1      43.583   4.503  11.077  0.00  0.00    +0.000 HD
ENDBRANCH   8   9
BRANCH   8  12
ATOM     12  C   UNL     1      44.607   3.238   9.098  0.00  0.00    +0.000 C 
ATOM     13  O   UNL     1      43.983   2.440   9.802  0.00  0.00    +0.000 OA
BRANCH  12  14
ATOM     14  C   UNL     1      45.604   2.698   8.116  0.00  0.00    +0.000 A 
ATOM     15  C   UNL     1      46.014   3.392   6.970  0.00  0.00    +0.000 A 
ATOM     16  C   UNL     1      46.933   2.816   6.085  0.00  0.00    +0.000 A 
ATOM     17  C   UNL     1      47.457   1.550   6.339  0.00  0.00    +0.000 A 
ATOM     18  C   UNL     1      47.061   0.853   7.476  0.00  0.00    +0.000 A 
ATOM     19  C   UNL     1      46.139   1.422   8.358  0.00  0.00    +0.000 A 
ENDBRANCH  12  14
ENDBRANCH   8  12
ENDBRANCH   7   8
ENDBRANCH   1   7
BRANCH   5  20
ATOM     20  C   UNL     1      46.251   4.314  14.451  0.00  0.00    +0.000 C 
BRANCH  20  21
ATOM     21  N   UNL     1      47.410   4.516  15.282  0.00  0.00    +0.000 N 
ATOM     22  C   UNL     1      47.482   3.999  16.548  0.00  0.00    +0.000 C 
ATOM     23  O   UNL     1      46.588   3.303  17.021  0.00  0.00    +0.000 OA
ATOM     24  H   UNL     1      48.039   5.265  15.010  0.00  0.00    +0.000 HD
BRANCH  22  25
ATOM     25  C   UNL     1      48.720   4.261  17.292  0.00  0.00    +0.000 A 
ATOM     26  C   UNL     1      48.859   5.448  18.001  0.00  0.00    +0.000 A 
ATOM     27  S   UNL     1      50.327   5.566  18.861  0.00  0.00    +0.000 S 
ATOM     28  C   UNL     1      50.853   4.058  18.275  0.00  0.00    +0.000 A 
ATOM     29  N   UNL     1      52.071   3.561  18.623  0.00  0.00    +0.000 NA
ATOM     30  C   UNL     1      52.356   2.423  18.083  0.00  0.00    +0.000 A 
ATOM     31  N   UNL     1      51.533   1.736  17.231  0.00  0.00    +0.000 N 
ATOM     32  C   UNL     1      50.287   2.186  16.866  0.00  0.00    +0.000 A 
ATOM     33  O   UNL     1      49.561   1.529  16.127  0.00  0.00    +0.000 OA
ATOM     34  C   UNL     1      49.918   3.467  17.444  0.00  0.00    +0.000 A 
ATOM     35  H   UNL     1      51.815   0.848  16.844  0.00  0.00    +0.000 HD
ENDBRANCH  22  25
ENDBRANCH  20  21
ENDBRANCH   5  20
TORSDOF 8
ENDMDL
MODEL 3
REMARK VINA RESULT:    -8.243      3.495      5.904
REMARK INTER + INTRA:         -13.138
REMARK INTER:                 -11.455
REMARK INTRA:                  -1.683
REMARK UNBOUND:                -1.281
REMARK  Name = 
REMARK  8 active torsions:
REMARK  status: ('A' for Active; 'I' for Inactive)
REMARK    1  A    between atoms: N_1  and  C_2
REMARK    2  A    between atoms: C_2  and  C_3
REMARK    3  A    between atoms: C_2  and  C_24
REMARK    4  A    between atoms: C_3  and  C_4
REMARK    5  A    between atoms: C_8  and  C_9
REMARK    6  A    between atoms: C_9  and  N_10
REMARK    7  A    between atoms: C_11  and  C_13
REMARK    8  A    between atoms: C_24  and  C_26
REMARK                            x       y       z     vdW  Elec       q    Type
REMARK                         _______ _______ _______ _____ _____    ______ ____
ROOT
ATOM      1  C   UNL     1      45.940   4.694  12.760  0.00  0.00    +0.000 A 
ATOM      2  C   UNL     1      46.269   4.330  14.072  0.00  0.00    +0.000 A 
ATOM      3  C   UNL     1      47.280   4.999  14.764  0.00  0.00    +0.000 A 
ATOM      4  C   UNL     1      47.985   6.031  14.145  0.00  0.00    +0.000 A 
ATOM      5  C   UNL     1      47.698   6.393  12.825  0.00  0.00    +0.000 A 
ATOM      6  C   UNL     1      46.658   5.734  12.147  0.00  0.00    +0.000 A 
ENDROOT
BRANCH   1   7
ATOM      7  C   UNL     1      44.824   3.990  12.016  0.00  0.00    +0.000 C 
BRANCH   7   8
ATOM      8  C   UNL     1      44.704   4.275  10.504  0.00  0.00    +0.000 C 
BRANCH   8   9
ATOM      9  N   UNL     1      43.570   5.162  10.161  0.00  0.00    +0.000 NA
ATOM     10  H   UNL     1      43.782   5.690   9.320  0.00  0.00    +0.000 HD
ATOM     11  H   UNL     1      43.489   5.850  10.918  0.00  0.00    +0.000 HD
ENDBRANCH   8   9
BRANCH   8  12
ATOM     12  C   UNL     1      44.588   2.976   9.680  0.00  0.00    +0.000 C 
ATOM     13  O   UNL     1      43.734   2.125   9.944  0.00  0.00    +0.000 OA
BRANCH  12  14
ATOM     14  C   UNL     1      45.536   2.711   8.549  0.00  0.00    +0.000 A 
ATOM     15  C   UNL     1      46.148   1.470   8.328  0.00  0.00    +0.000 A 
ATOM     16  C   UNL     1      47.041   1.301   7.263  0.00  0.00    +0.000 A 
ATOM     17  C   UNL     1      47.325   2.364   6.407  0.00  0.00    +0.000 A 
ATOM     18  C   UNL     1      46.720   3.600   6.614  0.00  0.00    +0.000 A 
ATOM     19  C   UNL     1      45.834   3.773   7.679  0.00  0.00    +0.000 A 
ENDBRANCH  12  14
ENDBRANCH   8  12
ENDBRANCH   7   8
ENDBRANCH   1   7
BRANCH   5  20
ATOM     20  C   UNL     1      48.468   7.501  12.153  0.00  0.00    +0.000 C 
BRANCH  20  21
ATOM     21  N   UNL     1      47.581   8.532  11.680  0.00  0.00    +0.000 N 
ATOM     22  C   UNL     1      47.161   9.548  12.497  0.00  0.00    +0.000 C 
ATOM     23  O   UNL     1      47.554   9.658  13.656  0.00  0.00    +0.000 OA
ATOM     24  H   UNL     1      47.070   8.335  10.825  0.00  0.00    +0.000 HD
BRANCH  22  25
ATOM     25  C   UNL     1      46.269  10.546  11.895  0.00  0.00    +0.000 A 
ATOM     26  C   UNL     1      46.627  11.888  11.909  0.00  0.00    +0.000 A 
ATOM     27  S   UNL     1      45.514  12.904  11.112  0.00  0.00    +0.000 S 
ATOM     28  C   UNL     1      44.485  11.594  10.765  0.00  0.00    +0.000 A 
ATOM     29  N   UNL     1      43.314  11.785  10.099  0.00  0.00    +0.000 NA
ATOM     30  C   UNL     1      42.617  10.711   9.931  0.00  0.00    +0.000 A 
ATOM     31  N   UNL     1      42.986   9.464  10.363  0.00  0.00    +0.000 N 
ATOM     32  C   UNL     1      44.167   9.219  11.021  0.00  0.00    +0.000 A 
ATOM     33  O   UNL     1      44.484   8.084  11.364  0.00  0.00    +0.000 OA
ATOM     34  C   UNL     1      44.989  10.397  11.241  0.00  0.00    +0.000 A 
ATOM     35  H   UNL     1      42.396   8.663  10.197  0.00  0.00    +0.000 HD
ENDBRANCH  22  25
ENDBRANCH  20  21
ENDBRANCH   5  20
TORSDOF 8
ENDMDL
MODEL 4
REMARK VINA RESULT:    -8.066      3.137      7.746
REMARK INTER + INTRA:         -12.883
REMARK INTER:                 -11.405
REMARK INTRA:                  -1.478
REMARK UNBOUND:                -1.281
REMARK  Name = 
REMARK  8 active torsions:
REMARK  status: ('A' for Active; 'I' for Inactive)
REMARK    1  A    between atoms: N_1  and  C_2
REMARK    2  A    between atoms: C_2  and  C_3
REMARK    3  A    between atoms: C_2  and  C_24
REMARK    4  A    between atoms: C_3  and  C_4
REMARK    5  A    between atoms: C_8  and  C_9
REMARK    6  A    between atoms: C_9  and  N_10
REMARK    7  A    between atoms: C_11  and  C_13
REMARK    8  A    between atoms: C_24  and  C_26
REMARK                            x       y       z     vdW  Elec       q    Type
REMARK                         _______ _______ _______ _____ _____    ______ ____
ROOT
ATOM      1  C   UNL     1      47.799   5.042  16.719  0.00  0.00    +0.000 A 
ATOM      2  C   UNL     1      48.297   5.946  17.666  0.00  0.00    +0.000 A 
ATOM      3  C   UNL     1      48.881   7.148  17.265  0.00  0.00    +0.000 A 
ATOM      4  C   UNL     1      48.988   7.455  15.909  0.00  0.00    +0.000 A 
ATOM      5  C   UNL     1      48.527   6.556  14.941  0.00  0.00    +0.000 A 
ATOM      6  C   UNL     1      47.914   5.362  15.355  0.00  0.00    +0.000 A 
ENDROOT
BRANCH   1   7
ATOM      7  C   UNL     1      47.138   3.750  17.150  0.00  0.00    +0.000 C 
BRANCH   7   8
ATOM      8  C   UNL     1      48.051   2.671  17.769  0.00  0.00    +0.000 C 
BRANCH   8   9
ATOM      9  N   UNL     1      48.548   3.025  19.118  0.00  0.00    +0.000 NA
ATOM     10  H   UNL     1      47.767   3.194  19.745  0.00  0.00    +0.000 HD
ATOM     11  H   UNL     1      49.042   3.920  19.028  0.00  0.00    +0.000 HD
ENDBRANCH   8   9
BRANCH   8  12
ATOM     12  C   UNL     1      49.256   2.346  16.864  0.00  0.00    +0.000 C 
ATOM     13  O   UNL     1      49.100   1.863  15.739  0.00  0.00    +0.000 OA
BRANCH  12  14
ATOM     14  C   UNL     1      50.654   2.589  17.351  0.00  0.00    +0.000 A 
ATOM     15  C   UNL     1      51.170   3.866  17.612  0.00  0.00    +0.000 A 
ATOM     16  C   UNL     1      52.492   4.019  18.044  0.00  0.00    +0.000 A 
ATOM     17  C   UNL     1      53.308   2.904  18.227  0.00  0.00    +0.000 A 
ATOM     18  C   UNL     1      52.805   1.630  17.975  0.00  0.00    +0.000 A 
ATOM     19  C   UNL     1      51.487   1.475  17.538  0.00  0.00    +0.000 A 
ENDBRANCH  12  14
ENDBRANCH   8  12
ENDBRANCH   7   8
ENDBRANCH   1   7
BRANCH   5  20
ATOM     20  C   UNL     1      48.653   6.884  13.475  0.00  0.00    +0.000 C 
BRANCH  20  21
ATOM     21  N   UNL     1      47.775   6.060  12.685  0.00  0.00    +0.000 N 
ATOM     22  C   UNL     1      46.782   6.605  11.915  0.00  0.00    +0.000 C 
ATOM     23  O   UNL     1      46.619   7.818  11.823  0.00  0.00    +0.000 OA
ATOM     24  H   UNL     1      47.739   5.074  12.926  0.00  0.00    +0.000 HD
BRANCH  22  25
ATOM     25  C   UNL     1      45.960   5.662  11.145  0.00  0.00    +0.000 A 
ATOM     26  C   UNL     1      45.973   5.714   9.757  0.00  0.00    +0.000 A 
ATOM     27  S   UNL     1      45.018   4.511   9.017  0.00  0.00    +0.000 S 
ATOM     28  C   UNL     1      44.510   3.910  10.526  0.00  0.00    +0.000 A 
ATOM     29  N   UNL     1      43.645   2.863  10.605  0.00  0.00    +0.000 NA
ATOM     30  C   UNL     1      43.319   2.531  11.809  0.00  0.00    +0.000 A 
ATOM     31  N   UNL     1      43.785   3.147  12.941  0.00  0.00    +0.000 N 
ATOM     32  C   UNL     1      44.675   4.193  12.914  0.00  0.00    +0.000 A 
ATOM     33  O   UNL     1      45.098   4.700  13.948  0.00  0.00    +0.000 OA
ATOM     34  C   UNL     1      45.071   4.610  11.580  0.00  0.00    +0.000 A 
ATOM     35  H   UNL     1      43.493   2.836  13.856  0.00  0.00    +0.000 HD
ENDBRANCH  22  25
ENDBRANCH  20  21
ENDBRANCH   5  20
TORSDOF 8
ENDMDL
MODEL 5
REMARK VINA RESULT:    -7.900      1.755      2.252
REMARK INTER + INTRA:         -12.644
REMARK INTER:                 -11.421
REMARK INTRA:                  -1.223
REMARK UNBOUND:                -1.281
REMARK  Name = 
REMARK  8 active torsions:
REMARK  status: ('A' for Active; 'I' for Inactive)
REMARK    1  A    between atoms: N_1  and  C_2
REMARK    2  A    between atoms: C_2  and  C_3
REMARK    3  A    between atoms: C_2  and  C_24
REMARK    4  A    between atoms: C_3  and  C_4
REMARK    5  A    between atoms: C_8  and  C_9
REMARK    6  A    between atoms: C_9  and  N_10
REMARK    7  A    between atoms: C_11  and  C_13
REMARK    8  A    between atoms: C_24  and  C_26
REMARK                            x       y       z     vdW  Elec       q    Type
REMARK                         _______ _______ _______ _____ _____    ______ ____
ROOT
ATOM      1  C   UNL     1      45.409   6.572  12.328  0.00  0.00    +0.000 A 
ATOM      2  C   UNL     1      44.823   7.613  11.596  0.00  0.00    +0.000 A 
ATOM      3  C   UNL     1      45.304   8.918  11.703  0.00  0.00    +0.000 A 
ATOM      4  C   UNL     1      46.370   9.202  12.556  0.00  0.00    +0.000 A 
ATOM      5  C   UNL     1      46.955   8.187  13.322  0.00  0.00    +0.000 A 
ATOM      6  C   UNL     1      46.482   6.871  13.185  0.00  0.00    +0.000 A 
ENDROOT
BRANCH   1   7
ATOM      7  C   UNL     1      44.909   5.150  12.192  0.00  0.00    +0.000 C 
BRANCH   7   8
ATOM      8  C   UNL     1      43.799   4.895  11.150  0.00  0.00    +0.000 C 
BRANCH   8   9
ATOM      9  N   UNL     1      42.432   5.037  11.700  0.00  0.00    +0.000 NA
ATOM     10  H   UNL     1      42.476   5.286  12.684  0.00  0.00    +0.000 HD
ATOM     11  H   UNL     1      41.995   4.110  11.658  0.00  0.00    +0.000 HD
ENDBRANCH   8   9
BRANCH   8  12
ATOM     12  C   UNL     1      43.930   3.505  10.495  0.00  0.00    +0.000 C 
ATOM     13  O   UNL     1      43.260   2.547  10.888  0.00  0.00    +0.000 OA
BRANCH  12  14
ATOM     14  C   UNL     1      44.904   3.287   9.375  0.00  0.00    +0.000 A 
ATOM     15  C   UNL     1      45.425   4.324   8.591  0.00  0.00    +0.000 A 
ATOM     16  C   UNL     1      46.313   4.044   7.546  0.00  0.00    +0.000 A 
ATOM     17  C   UNL     1      46.695   2.730   7.280  0.00  0.00    +0.000 A 
ATOM     18  C   UNL     1      46.188   1.691   8.055  0.00  0.00    +0.000 A 
ATOM     19  C   UNL     1      45.296   1.968   9.094  0.00  0.00    +0.000 A 
ENDBRANCH  12  14
ENDBRANCH   8  12
ENDBRANCH   7   8
ENDBRANCH   1   7
BRANCH   5  20
ATOM     20  C   UNL     1      48.099   8.497  14.252  0.00  0.00    +0.000 C 
BRANCH  20  21
ATOM     21  N   UNL     1      47.989   7.743  15.475  0.00  0.00    +0.000 N 
ATOM     22  C   UNL     1      48.970   6.874  15.872  0.00  0.00    +0.000 C 
ATOM     23  O   UNL     1      50.009   6.728  15.234  0.00  0.00    +0.000 OA
ATOM     24  H   UNL     1      47.061   7.670  15.881  0.00  0.00    +0.000 HD
BRANCH  22  25
ATOM     25  C   UNL     1      48.748   6.174  17.143  0.00  0.00    +0.000 A 
ATOM     26  C   UNL     1      48.960   4.803  17.219  0.00  0.00    +0.000 A 
ATOM     27  S   UNL     1      48.722   4.158  18.780  0.00  0.00    +0.000 S 
ATOM     28  C   UNL     1      48.276   5.678  19.398  0.00  0.00    +0.000 A 
ATOM     29  N   UNL     1      47.922   5.824  20.705  0.00  0.00    +0.000 NA
ATOM     30  C   UNL     1      47.577   7.024  21.032  0.00  0.00    +0.000 A 
ATOM     31  N   UNL     1      47.558   8.092  20.175  0.00  0.00    +0.000 N 
ATOM     32  C   UNL     1      47.925   8.000  18.854  0.00  0.00    +0.000 A 
ATOM     33  O   UNL     1      47.928   8.984  18.121  0.00  0.00    +0.000 OA
ATOM     34  C   UNL     1      48.319   6.667  18.431  0.00  0.00    +0.000 A 
ATOM     35  H   UNL     1      47.279   9.008  20.496  0.00  0.00    +0.000 HD
ENDBRANCH  22  25
ENDBRANCH  20  21
ENDBRANCH   5  20
TORSDOF 8
ENDMDL
MODEL 6
REMARK VINA RESULT:    -7.682      2.027      2.757
REMARK INTER + INTRA:         -12.331
REMARK INTER:                 -12.205
REMARK INTRA:                  -0.126
REMARK UNBOUND:                -1.281
REMARK  Name = 
REMARK  8 active torsions:
REMARK  status: ('A' for Active; 'I' for Inactive)
REMARK    1  A    between atoms: N_1  and  C_2
REMARK    2  A    between atoms: C_2  and  C_3
REMARK    3  A    between atoms: C_2  and  C_24
REMARK    4  A    between atoms: C_3  and  C_4
REMARK    5  A    between atoms: C_8  and  C_9
REMARK    6  A    between atoms: C_9  and  N_10
REMARK    7  A    between atoms: C_11  and  C_13
REMARK    8  A    between atoms: C_24  and  C_26
REMARK                            x       y       z     vdW  Elec       q    Type
REMARK                         _______ _______ _______ _____ _____    ______ ____
ROOT
ATOM      1  C   UNL     1      45.941   5.268  11.780  0.00  0.00    +0.000 A 
ATOM      2  C   UNL     1      45.636   4.108  12.502  0.00  0.00    +0.000 A 
ATOM      3  C   UNL     1      46.202   3.881  13.758  0.00  0.00    +0.000 A 
ATOM      4  C   UNL     1      47.092   4.807  14.301  0.00  0.00    +0.000 A 
ATOM      5  C   UNL     1      47.438   5.960  13.587  0.00  0.00    +0.000 A 
ATOM      6  C   UNL     1      46.840   6.193  12.336  0.00  0.00    +0.000 A 
ENDROOT
BRANCH   1   7
ATOM      7  C   UNL     1      45.307   5.531  10.430  0.00  0.00    +0.000 C 
BRANCH   7   8
ATOM      8  C   UNL     1      44.015   4.754  10.101  0.00  0.00    +0.000 C 
BRANCH   8   9
ATOM      9  N   UNL     1      43.010   4.799  11.187  0.00  0.00    +0.000 NA
ATOM     10  H   UNL     1      42.581   5.718  11.228  0.00  0.00    +0.000 HD
ATOM     11  H   UNL     1      43.519   4.680  12.070  0.00  0.00    +0.000 HD
ENDBRANCH   8   9
BRANCH   8  12
ATOM     12  C   UNL     1      44.302   3.280   9.749  0.00  0.00    +0.000 C 
ATOM     13  O   UNL     1      43.753   2.358  10.359  0.00  0.00    +0.000 OA
BRANCH  12  14
ATOM     14  C   UNL     1      45.281   2.939   8.666  0.00  0.00    +0.000 A 
ATOM     15  C   UNL     1      45.684   3.845   7.675  0.00  0.00    +0.000 A 
ATOM     16  C   UNL     1      46.587   3.450   6.681  0.00  0.00    +0.000 A 
ATOM     17  C   UNL     1      47.101   2.155   6.670  0.00  0.00    +0.000 A 
ATOM     18  C   UNL     1      46.712   1.248   7.652  0.00  0.00    +0.000 A 
ATOM     19  C   UNL     1      45.806   1.637   8.641  0.00  0.00    +0.000 A 
ENDBRANCH  12  14
ENDBRANCH   8  12
ENDBRANCH   7   8
ENDBRANCH   1   7
BRANCH   5  20
ATOM     20  C   UNL     1      48.408   6.955  14.169  0.00  0.00    +0.000 C 
BRANCH  20  21
ATOM     21  N   UNL     1      48.183   7.129  15.581  0.00  0.00    +0.000 N 
ATOM     22  C   UNL     1      49.068   6.654  16.512  0.00  0.00    +0.000 C 
ATOM     23  O   UNL     1      50.116   6.098  16.192  0.00  0.00    +0.000 OA
ATOM     24  H   UNL     1      47.237   7.365  15.864  0.00  0.00    +0.000 HD
BRANCH  22  25
ATOM     25  C   UNL     1      48.735   6.904  17.919  0.00  0.00    +0.000 A 
ATOM     26  C   UNL     1      48.445   8.197  18.338  0.00  0.00    +0.000 A 
ATOM     27  S   UNL     1      48.014   8.304  19.985  0.00  0.00    +0.000 S 
ATOM     28  C   UNL     1      48.252   6.635  20.211  0.00  0.00    +0.000 A 
ATOM     29  N   UNL     1      48.066   6.063  21.431  0.00  0.00    +0.000 NA
ATOM     30  C   UNL     1      48.311   4.795  21.468  0.00  0.00    +0.000 A 
ATOM     31  N   UNL     1      48.719   4.048  20.395  0.00  0.00    +0.000 N 
ATOM     32  C   UNL     1      48.901   4.575  19.140  0.00  0.00    +0.000 A 
ATOM     33  O   UNL     1      49.235   3.870  18.192  0.00  0.00    +0.000 OA
ATOM     34  C   UNL     1      48.642   6.002  19.044  0.00  0.00    +0.000 A 
ATOM     35  H   UNL     1      48.891   3.058  20.490  0.00  0.00    +0.000 HD
ENDBRANCH  22  25
ENDBRANCH  20  21
ENDBRANCH   5  20
TORSDOF 8
ENDMDL
MODEL 7
REMARK VINA RESULT:    -7.594      2.055      2.667
REMARK INTER + INTRA:         -12.204
REMARK INTER:                 -10.990
REMARK INTRA:                  -1.214
REMARK UNBOUND:                -1.281
REMARK  Name = 
REMARK  8 active torsions:
REMARK  status: ('A' for Active; 'I' for Inactive)
REMARK    1  A    between atoms: N_1  and  C_2
REMARK    2  A    between atoms: C_2  and  C_3
REMARK    3  A    between atoms: C_2  and  C_24
REMARK    4  A    between atoms: C_3  and  C_4
REMARK    5  A    between atoms: C_8  and  C_9
REMARK    6  A    between atoms: C_9  and  N_10
REMARK    7  A    between atoms: C_11  and  C_13
REMARK    8  A    between atoms: C_24  and  C_26
REMARK                            x       y       z     vdW  Elec       q    Type
REMARK                         _______ _______ _______ _____ _____    ______ ____
ROOT
ATOM      1  C   UNL     1      46.340   5.892  12.895  0.00  0.00    +0.000 A 
ATOM      2  C   UNL     1      45.550   7.032  12.701  0.00  0.00    +0.000 A 
ATOM      3  C   UNL     1      46.049   8.303  12.992  0.00  0.00    +0.000 A 
ATOM      4  C   UNL     1      47.342   8.447  13.495  0.00  0.00    +0.000 A 
ATOM      5  C   UNL     1      48.141   7.323  13.728  0.00  0.00    +0.000 A 
ATOM      6  C   UNL     1      47.640   6.051  13.404  0.00  0.00    +0.000 A 
ENDROOT
BRANCH   1   7
ATOM      7  C   UNL     1      45.813   4.515  12.553  0.00  0.00    +0.000 C 
BRANCH   7   8
ATOM      8  C   UNL     1      44.288   4.380  12.353  0.00  0.00    +0.000 C 
BRANCH   8   9
ATOM      9  N   UNL     1      43.736   3.113  12.884  0.00  0.00    +0.000 NA
ATOM     10  H   UNL     1      42.887   3.296  13.410  0.00  0.00    +0.000 HD
ATOM     11  H   UNL     1      44.419   2.749  13.558  0.00  0.00    +0.000 HD
ENDBRANCH   8   9
BRANCH   8  12
ATOM     12  C   UNL     1      43.886   4.515  10.870  0.00  0.00    +0.000 C 
ATOM     13  O   UNL     1      42.906   5.184  10.531  0.00  0.00    +0.000 OA
BRANCH  12  14
ATOM     14  C   UNL     1      44.672   3.807   9.807  0.00  0.00    +0.000 A 
ATOM     15  C   UNL     1      44.682   2.415   9.651  0.00  0.00    +0.000 A 
ATOM     16  C   UNL     1      45.458   1.821   8.649  0.00  0.00    +0.000 A 
ATOM     17  C   UNL     1      46.221   2.608   7.789  0.00  0.00    +0.000 A 
ATOM     18  C   UNL     1      46.216   3.993   7.931  0.00  0.00    +0.000 A 
ATOM     19  C   UNL     1      45.448   4.588   8.935  0.00  0.00    +0.000 A 
ENDBRANCH  12  14
ENDBRANCH   8  12
ENDBRANCH   7   8
ENDBRANCH   1   7
BRANCH   5  20
ATOM     20  C   UNL     1      49.534   7.479  14.283  0.00  0.00    +0.000 C 
BRANCH  20  21
ATOM     21  N   UNL     1      49.498   7.737  15.700  0.00  0.00    +0.000 N 
ATOM     22  C   UNL     1      49.614   6.724  16.615  0.00  0.00    +0.000 C 
ATOM     23  O   UNL     1      49.799   5.558  16.278  0.00  0.00    +0.000 OA
ATOM     24  H   UNL     1      49.118   8.632  15.989  0.00  0.00    +0.000 HD
BRANCH  22  25
ATOM     25  C   UNL     1      49.576   7.114  18.030  0.00  0.00    +0.000 A 
ATOM     26  C   UNL     1      50.519   8.007  18.523  0.00  0.00    +0.000 A 
ATOM     27  S   UNL     1      50.294   8.404  20.166  0.00  0.00    +0.000 S 
ATOM     28  C   UNL     1      48.960   7.357  20.292  0.00  0.00    +0.000 A 
ATOM     29  N   UNL     1      48.298   7.209  21.472  0.00  0.00    +0.000 NA
ATOM     30  C   UNL     1      47.326   6.360  21.434  0.00  0.00    +0.000 A 
ATOM     31  N   UNL     1      46.952   5.649  20.324  0.00  0.00    +0.000 N 
ATOM     32  C   UNL     1      47.575   5.779  19.106  0.00  0.00    +0.000 A 
ATOM     33  O   UNL     1      47.194   5.153  18.123  0.00  0.00    +0.000 OA
ATOM     34  C   UNL     1      48.682   6.721  19.094  0.00  0.00    +0.000 A 
ATOM     35  H   UNL     1      46.179   5.002  20.360  0.00  0.00    +0.000 HD
ENDBRANCH  22  25
ENDBRANCH  20  21
ENDBRANCH   5  20
TORSDOF 8
ENDMDL
MODEL 8
REMARK VINA RESULT:    -7.391      3.388      9.223
REMARK INTER + INTRA:         -11.913
REMARK INTER:                  -9.772
REMARK INTRA:                  -2.141
REMARK UNBOUND:                -1.281
REMARK  Name = 
REMARK  8 active torsions:
REMARK  status: ('A' for Active; 'I' for Inactive)
REMARK    1  A    between atoms: N_1  and  C_2
REMARK    2  A    between atoms: C_2  and  C_3
REMARK    3  A    between atoms: C_2  and  C_24
REMARK    4  A    between atoms: C_3  and  C_4
REMARK    5  A    between atoms: C_8  and  C_9
REMARK    6  A    between atoms: C_9  and  N_10
REMARK    7  A    between atoms: C_11  and  C_13
REMARK    8  A    between atoms: C_24  and  C_26
REMARK                            x       y       z     vdW  Elec       q    Type
REMARK                         _______ _______ _______ _____ _____    ______ ____
ROOT
ATOM      1  C   UNL     1      50.541   4.028  17.926  0.00  0.00    +0.000 A 
ATOM      2  C   UNL     1      49.500   3.107  18.097  0.00  0.00    +0.000 A 
ATOM      3  C   UNL     1      48.261   3.311  17.488  0.00  0.00    +0.000 A 
ATOM      4  C   UNL     1      48.043   4.447  16.710  0.00  0.00    +0.000 A 
ATOM      5  C   UNL     1      49.056   5.399  16.547  0.00  0.00    +0.000 A 
ATOM      6  C   UNL     1      50.309   5.170  17.141  0.00  0.00    +0.000 A 
ENDROOT
BRANCH   1   7
ATOM      7  C   UNL     1      51.895   3.796  18.562  0.00  0.00    +0.000 C 
BRANCH   7   8
ATOM      8  C   UNL     1      52.410   4.886  19.525  0.00  0.00    +0.000 C 
BRANCH   8   9
ATOM      9  N   UNL     1      53.835   4.721  19.891  0.00  0.00    +0.000 NA
ATOM     10  H   UNL     1      53.930   4.020  20.620  0.00  0.00    +0.000 HD
ATOM     11  H   UNL     1      54.142   5.608  20.305  0.00  0.00    +0.000 HD
ENDBRANCH   8   9
BRANCH   8  12
ATOM     12  C   UNL     1      51.570   4.959  20.817  0.00  0.00    +0.000 C 
ATOM     13  O   UNL     1      51.991   4.495  21.881  0.00  0.00    +0.000 OA
BRANCH  12  14
ATOM     14  C   UNL     1      50.204   5.577  20.796  0.00  0.00    +0.000 A 
ATOM     15  C   UNL     1      49.950   6.874  20.330  0.00  0.00    +0.000 A 
ATOM     16  C   UNL     1      48.650   7.394  20.360  0.00  0.00    +0.000 A 
ATOM     17  C   UNL     1      47.595   6.624  20.846  0.00  0.00    +0.000 A 
ATOM     18  C   UNL     1      47.834   5.333  21.306  0.00  0.00    +0.000 A 
ATOM     19  C   UNL     1      49.130   4.814  21.284  0.00  0.00    +0.000 A 
ENDBRANCH  12  14
ENDBRANCH   8  12
ENDBRANCH   7   8
ENDBRANCH   1   7
BRANCH   5  20
ATOM     20  C   UNL     1      48.817   6.633  15.715  0.00  0.00    +0.000 C 
BRANCH  20  21
ATOM     21  N   UNL     1      47.647   6.478  14.889  0.00  0.00    +0.000 N 
ATOM     22  C   UNL     1      47.746   6.252  13.541  0.00  0.00    +0.000 C 
ATOM     23  O   UNL     1      48.831   6.124  12.980  0.00  0.00    +0.000 OA
ATOM     24  H   UNL     1      46.769   6.809  15.278  0.00  0.00    +0.000 HD
BRANCH  22  25
ATOM     25  C   UNL     1      46.483   6.098  12.809  0.00  0.00    +0.000 A 
ATOM     26  C   UNL     1      45.865   7.216  12.262  0.00  0.00    +0.000 A 
ATOM     27  S   UNL     1      44.445   6.855  11.390  0.00  0.00    +0.000 S 
ATOM     28  C   UNL     1      44.576   5.199  11.756  0.00  0.00    +0.000 A 
ATOM     29  N   UNL     1      43.643   4.311  11.315  0.00  0.00    +0.000 NA
ATOM     30  C   UNL     1      43.848   3.093  11.691  0.00  0.00    +0.000 A 
ATOM     31  N   UNL     1      44.902   2.682  12.464  0.00  0.00    +0.000 N 
ATOM     32  C   UNL     1      45.879   3.536  12.916  0.00  0.00    +0.000 A 
ATOM     33  O   UNL     1      46.828   3.129  13.578  0.00  0.00    +0.000 OA
ATOM     34  C   UNL     1      45.693   4.923  12.523  0.00  0.00    +0.000 A 
ATOM     35  H   UNL     1      45.006   1.712  12.722  0.00  0.00    +0.000 HD
ENDBRANCH  22  25
ENDBRANCH  20  21
ENDBRANCH   5  20
TORSDOF 8
ENDMDL
MODEL 9
REMARK VINA RESULT:    -7.378      3.249      9.354
REMARK INTER + INTRA:         -11.894
REMARK INTER:                  -9.972
REMARK INTRA:                  -1.922
REMARK UNBOUND:                -1.281
REMARK  Name = 
REMARK  8 active torsions:
REMARK  status: ('A' for Active; 'I' for Inactive)
REMARK    1  A    between atoms: N_1  and  C_2
REMARK    2  A    between atoms: C_2  and  C_3
REMARK    3  A    between atoms: C_2  and  C_24
REMARK    4  A    between atoms: C_3  and  C_4
REMARK    5  A    between atoms: C_8  and  C_9
REMARK    6  A    between atoms: C_9  and  N_10
REMARK    7  A    between atoms: C_11  and  C_13
REMARK    8  A    between atoms: C_24  and  C_26
REMARK                            x       y       z     vdW  Elec       q    Type
REMARK                         _______ _______ _______ _____ _____    ______ ____
ROOT
ATOM      1  C   UNL     1      50.845   5.176  17.336  0.00  0.00    +0.000 A 
ATOM      2  C   UNL     1      51.593   4.026  17.616  0.00  0.00    +0.000 A 
ATOM      3  C   UNL     1      50.987   2.768  17.632  0.00  0.00    +0.000 A 
ATOM      4  C   UNL     1      49.621   2.647  17.380  0.00  0.00    +0.000 A 
ATOM      5  C   UNL     1      48.844   3.783  17.128  0.00  0.00    +0.000 A 
ATOM      6  C   UNL     1      49.468   5.041  17.085  0.00  0.00    +0.000 A 
ENDROOT
BRANCH   1   7
ATOM      7  C   UNL     1      51.503   6.539  17.290  0.00  0.00    +0.000 C 
BRANCH   7   8
ATOM      8  C   UNL     1      51.019   7.583  18.317  0.00  0.00    +0.000 C 
BRANCH   8   9
ATOM      9  N   UNL     1      51.764   8.861  18.252  0.00  0.00    +0.000 NA
ATOM     10  H   UNL     1      52.319   8.986  19.093  0.00  0.00    +0.000 HD
ATOM     11  H   UNL     1      51.067   9.614  18.253  0.00  0.00    +0.000 HD
ENDBRANCH   8   9
BRANCH   8  12
ATOM     12  C   UNL     1      51.082   7.045  19.761  0.00  0.00    +0.000 C 
ATOM     13  O   UNL     1      52.149   6.990  20.378  0.00  0.00    +0.000 OA
BRANCH  12  14
ATOM     14  C   UNL     1      49.838   6.549  20.437  0.00  0.00    +0.000 A 
ATOM     15  C   UNL     1      49.676   5.232  20.887  0.00  0.00    +0.000 A 
ATOM     16  C   UNL     1      48.477   4.833  21.491  0.00  0.00    +0.000 A 
ATOM     17  C   UNL     1      47.435   5.744  21.657  0.00  0.00    +0.000 A 
ATOM     18  C   UNL     1      47.586   7.056  21.218  0.00  0.00    +0.000 A 
ATOM     19  C   UNL     1      48.779   7.455  20.610  0.00  0.00    +0.000 A 
ENDBRANCH  12  14
ENDBRANCH   8  12
ENDBRANCH   7   8
ENDBRANCH   1   7
BRANCH   5  20
ATOM     20  C   UNL     1      47.365   3.653  16.867  0.00  0.00    +0.000 C 
BRANCH  20  21
ATOM     21  N   UNL     1      46.930   4.606  15.879  0.00  0.00    +0.000 N 
ATOM     22  C   UNL     1      46.914   4.298  14.544  0.00  0.00    +0.000 C 
ATOM     23  O   UNL     1      47.225   3.185  14.128  0.00  0.00    +0.000 OA
ATOM     24  H   UNL     1      46.899   5.578  16.168  0.00  0.00    +0.000 HD
BRANCH  22  25
ATOM     25  C   UNL     1      46.438   5.348  13.636  0.00  0.00    +0.000 A 
ATOM     26  C   UNL     1      47.250   6.441  13.362  0.00  0.00    +0.000 A 
ATOM     27  S   UNL     1      46.575   7.532  12.239  0.00  0.00    +0.000 S 
ATOM     28  C   UNL     1      45.150   6.611  12.118  0.00  0.00    +0.000 A 
ATOM     29  N   UNL     1      44.127   7.010  11.315  0.00  0.00    +0.000 NA
ATOM     30  C   UNL     1      43.095   6.234  11.342  0.00  0.00    +0.000 A 
ATOM     31  N   UNL     1      42.995   5.094  12.095  0.00  0.00    +0.000 N 
ATOM     32  C   UNL     1      44.007   4.640  12.905  0.00  0.00    +0.000 A 
ATOM     33  O   UNL     1      43.898   3.596  13.540  0.00  0.00    +0.000 OA
ATOM     34  C   UNL     1      45.193   5.480  12.914  0.00  0.00    +0.000 A 
ATOM     35  H   UNL     1      42.159   4.529  12.069  0.00  0.00    +0.000 HD
ENDBRANCH  22  25
ENDBRANCH  20  21
ENDBRANCH   5  20
TORSDOF 8
ENDMDL
