MODEL 1
REMARK VINA RESULT:    -7.030      0.000      0.000
REMARK INTER + INTRA:         -10.185
REMARK INTER:                  -9.291
REMARK INTRA:                  -0.895
REMARK UNBOUND:                -0.895
REMARK  Name = 
REMARK  6 active torsions:
REMARK  status: ('A' for Active; 'I' for Inactive)
REMARK    1  A    between atoms: N_1  and  C_2
REMARK    2  A    between atoms: C_2  and  N_3
REMARK    3  A    between atoms: C_2  and  C_16
REMARK    4  A    between atoms: C_4  and  C_6
REMARK    5  A    between atoms: C_19  and  C_20
REMARK    6  A    between atoms: C_21  and  C_22
REMARK                            x       y       z     vdW  Elec       q    Type
REMARK                         _______ _______ _______ _____ _____    ______ ____
ROOT
ATOM      1  C   UNL     1      46.532   4.121  14.543  0.00  0.00    +0.000 C 
ENDROOT
BRANCH   1   2
ATOM      2  C   UNL     1      46.078   5.305  13.708  0.00  0.00    +0.000 A 
ATOM      3  C   UNL     1      46.949   6.370  13.447  0.00  0.00    +0.000 A 
ATOM      4  C   UNL     1      46.535   7.457  12.667  0.00  0.00    +0.000 A 
ATOM      5  C   UNL     1      45.246   7.501  12.122  0.00  0.00    +0.000 A 
ATOM      6  C   UNL     1      44.368   6.446  12.390  0.00  0.00    +0.000 A 
ATOM      7  C   UNL     1      44.780   5.361  13.168  0.00  0.00    +0.000 A 
BRANCH   5   8
ATOM      8  C   UNL     1      44.750   8.643  11.342  0.00  0.00    +0.000 C 
ATOM      9  C   UNL     1      43.458   8.885  11.066  0.00  0.00    +0.000 C 
BRANCH   9  10
ATOM     10  C   UNL     1      43.003  10.040  10.277  0.00  0.00    +0.000 A 
ATOM     11  C   UNL     1      43.874  10.674   9.394  0.00  0.00    +0.000 A 
ATOM     12  C   UNL     1      43.412  11.762   8.659  0.00  0.00    +0.000 A 
ATOM     13  C   UNL     1      42.100  12.190   8.826  0.00  0.00    +0.000 A 
ATOM     14  C   UNL     1      41.302  11.506   9.725  0.00  0.00    +0.000 A 
ATOM     15  N   UNL     1      41.723  10.446  10.448  0.00  0.00    +0.000 NA
ENDBRANCH   9  10
ENDBRANCH   5   8
ENDBRANCH   1   2
BRANCH   1  16
ATOM     16  N   UNL     1      47.375   4.578  15.607  0.00  0.00    +0.000 N 
ATOM     17  C   UNL     1      47.288   4.140  16.903  0.00  0.00    +0.000 C 
ATOM     18  O   UNL     1      46.540   3.231  17.247  0.00  0.00    +0.000 OA
ATOM     19  H   UNL     1      47.694   5.532  15.481  0.00  0.00    +0.000 HD
BRANCH  17  20
ATOM     20  C   UNL     1      48.258   4.735  17.832  0.00  0.00    +0.000 A 
ATOM     21  C   UNL     1      47.907   5.844  18.586  0.00  0.00    +0.000 A 
ATOM     22  S   UNL     1      49.125   6.338  19.674  0.00  0.00    +0.000 S 
ATOM     23  C   UNL     1      50.183   5.118  19.135  0.00  0.00    +0.000 A 
ATOM     24  N   UNL     1      51.433   4.990  19.653  0.00  0.00    +0.000 NA
ATOM     25  C   UNL     1      52.130   4.033  19.134  0.00  0.00    +0.000 A 
ATOM     26  N   UNL     1      51.690   3.194  18.143  0.00  0.00    +0.000 N 
ATOM     27  C   UNL     1      50.430   3.277  17.602  0.00  0.00    +0.000 A 
ATOM     28  O   UNL     1      50.051   2.499  16.736  0.00  0.00    +0.000 OA
ATOM     29  C   UNL     1      49.607   4.337  18.150  0.00  0.00    +0.000 A 
ATOM     30  H   UNL     1      52.284   2.461  17.781  0.00  0.00    +0.000 HD
ENDBRANCH  17  20
ENDBRANCH   1  16
BRANCH   1  31
ATOM     31  N   UNL     1      47.321   3.209  13.745  0.00  0.00    +0.000 NA
ATOM     32  H   UNL     1      46.669   2.512  13.380  0.00  0.00    +0.000 HD
ATOM     33  H   UNL     1      47.931   2.694  14.374  0.00  0.00    +0.000 HD
ENDBRANCH   1  31
TORSDOF 6
ENDMDL
MODEL 2
REMARK VINA RESULT:    -6.475      4.439     10.330
REMARK INTER + INTRA:          -9.452
REMARK INTER:                  -8.412
REMARK INTRA:                  -1.040
REMARK UNBOUND:                -0.895
REMARK  Name = 
REMARK  6 active torsions:
REMARK  status: ('A' for Active; 'I' for Inactive)
REMARK    1  A    between atoms: N_1  and  C_2
REMARK    2  A    between atoms: C_2  and  N_3
REMARK    3  A    between atoms: C_2  and  C_16
REMARK    4  A    between atoms: C_4  and  C_6
REMARK    5  A    between atoms: C_19  and  C_20
REMARK    6  A    between atoms: C_21  and  C_22
REMARK                            x       y       z     vdW  Elec       q    Type
REMARK                         _______ _______ _______ _____ _____    ______ ____
ROOT
ATOM      1  C   UNL     1      47.840   7.418  12.659  0.00  0.00    +0.000 C 
ENDROOT
BRANCH   1   2
ATOM      2  C   UNL     1      48.632   7.098  13.915  0.00  0.00    +0.000 A 
ATOM      3  C   UNL     1      49.911   7.636  14.109  0.00  0.00    +0.000 A 
ATOM      4  C   UNL     1      50.636   7.351  15.272  0.00  0.00    +0.000 A 
ATOM      5  C   UNL     1      50.098   6.533  16.273  0.00  0.00    +0.000 A 
ATOM      6  C   UNL     1      48.826   5.985  16.079  0.00  0.00    +0.000 A 
ATOM      7  C   UNL     1      48.101   6.267  14.919  0.00  0.00    +0.000 A 
BRANCH   5   8
ATOM      8  C   UNL     1      50.842   6.166  17.485  0.00  0.00    +0.000 C 
ATOM      9  C   UNL     1      51.023   4.910  17.928  0.00  0.00    +0.000 C 
BRANCH   9  10
ATOM     10  C   UNL     1      51.772   4.584  19.151  0.00  0.00    +0.000 A 
ATOM     11  C   UNL     1      51.335   5.054  20.387  0.00  0.00    +0.000 A 
ATOM     12  C   UNL     1      52.065   4.725  21.527  0.00  0.00    +0.000 A 
ATOM     13  C   UNL     1      53.207   3.944  21.403  0.00  0.00    +0.000 A 
ATOM     14  C   UNL     1      53.572   3.521  20.138  0.00  0.00    +0.000 A 
ATOM     15  N   UNL     1      52.883   3.822  19.017  0.00  0.00    +0.000 NA
ENDBRANCH   9  10
ENDBRANCH   5   8
ENDBRANCH   1   2
BRANCH   1  16
ATOM     16  N   UNL     1      47.032   6.291  12.301  0.00  0.00    +0.000 N 
ATOM     17  C   UNL     1      45.662   6.292  12.300  0.00  0.00    +0.000 C 
ATOM     18  O   UNL     1      44.999   7.304  12.510  0.00  0.00    +0.000 OA
ATOM     19  H   UNL     1      47.475   5.402  12.505  0.00  0.00    +0.000 HD
BRANCH  17  20
ATOM     20  C   UNL     1      45.034   5.030  11.889  0.00  0.00    +0.000 A 
ATOM     21  C   UNL     1      44.328   4.272  12.811  0.00  0.00    +0.000 A 
ATOM     22  S   UNL     1      43.592   2.890  12.134  0.00  0.00    +0.000 S 
ATOM     23  C   UNL     1      44.236   3.230  10.595  0.00  0.00    +0.000 A 
ATOM     24  N   UNL     1      44.000   2.410   9.537  0.00  0.00    +0.000 NA
ATOM     25  C   UNL     1      44.569   2.782   8.437  0.00  0.00    +0.000 A 
ATOM     26  N   UNL     1      45.353   3.899   8.302  0.00  0.00    +0.000 N 
ATOM     27  C   UNL     1      45.604   4.763   9.339  0.00  0.00    +0.000 A 
ATOM     28  O   UNL     1      46.287   5.768   9.187  0.00  0.00    +0.000 OA
ATOM     29  C   UNL     1      44.989   4.389  10.597  0.00  0.00    +0.000 A 
ATOM     30  H   UNL     1      45.768   4.138   7.412  0.00  0.00    +0.000 HD
ENDBRANCH  17  20
ENDBRANCH   1  16
BRANCH   1  31
ATOM     31  N   UNL     1      48.730   7.667  11.546  0.00  0.00    +0.000 NA
ATOM     32  H   UNL     1      49.679   7.563  11.911  0.00  0.00    +0.000 HD
ATOM     33  H   UNL     1      48.649   8.648  11.298  0.00  0.00    +0.000 HD
ENDBRANCH   1  31
TORSDOF 6
ENDMDL
MODEL 3
REMARK VINA RESULT:    -6.396      1.648      2.016
REMARK INTER + INTRA:          -9.348
REMARK INTER:                  -8.152
REMARK INTRA:                  -1.196
REMARK UNBOUND:                -0.895
REMARK  Name = 
REMARK  6 active torsions:
REMARK  status: ('A' for Active; 'I' for Inactive)
REMARK    1  A    between atoms: N_1  and  C_2
REMARK    2  A    between atoms: C_2  and  N_3
REMARK    3  A    between atoms: C_2  and  C_16
REMARK    4  A    between atoms: C_4  and  C_6
REMARK    5  A    between atoms: C_19  and  C_20
REMARK    6  A    between atoms: C_21  and  C_22
REMARK                            x       y       z     vdW  Elec       q    Type
REMARK                         _______ _______ _______ _____ _____    ______ ____
ROOT
ATOM      1  C   UNL     1      46.396   4.380  14.055  0.00  0.00    +0.000 C 
ENDROOT
BRANCH   1   2
ATOM      2  C   UNL     1      45.889   5.579  13.274  0.00  0.00    +0.000 A 
ATOM      3  C   UNL     1      46.711   6.694  13.063  0.00  0.00    +0.000 A 
ATOM      4  C   UNL     1      46.247   7.794  12.332  0.00  0.00    +0.000 A 
ATOM      5  C   UNL     1      44.958   7.805  11.787  0.00  0.00    +0.000 A 
ATOM      6  C   UNL     1      44.129   6.700  12.005  0.00  0.00    +0.000 A 
ATOM      7  C   UNL     1      44.589   5.600  12.734  0.00  0.00    +0.000 A 
BRANCH   5   8
ATOM      8  C   UNL     1      44.411   8.957  11.058  0.00  0.00    +0.000 C 
ATOM      9  C   UNL     1      43.114   9.134  10.756  0.00  0.00    +0.000 C 
BRANCH   9  10
ATOM     10  C   UNL     1      42.607  10.302  10.021  0.00  0.00    +0.000 A 
ATOM     11  C   UNL     1      41.355  10.832  10.324  0.00  0.00    +0.000 A 
ATOM     12  C   UNL     1      40.905  11.941   9.613  0.00  0.00    +0.000 A 
ATOM     13  C   UNL     1      41.709  12.486   8.620  0.00  0.00    +0.000 A 
ATOM     14  C   UNL     1      42.937  11.897   8.380  0.00  0.00    +0.000 A 
ATOM     15  N   UNL     1      43.400  10.824   9.056  0.00  0.00    +0.000 NA
ENDBRANCH   9  10
ENDBRANCH   5   8
ENDBRANCH   1   2
BRANCH   1  16
ATOM     16  N   UNL     1      47.048   4.826  15.250  0.00  0.00    +0.000 N 
ATOM     17  C   UNL     1      47.705   4.000  16.124  0.00  0.00    +0.000 C 
ATOM     18  O   UNL     1      47.883   2.806  15.904  0.00  0.00    +0.000 OA
ATOM     19  H   UNL     1      46.619   5.650  15.655  0.00  0.00    +0.000 HD
BRANCH  17  20
ATOM     20  C   UNL     1      48.312   4.669  17.283  0.00  0.00    +0.000 A 
ATOM     21  C   UNL     1      48.035   4.223  18.566  0.00  0.00    +0.000 A 
ATOM     22  S   UNL     1      48.899   5.059  19.776  0.00  0.00    +0.000 S 
ATOM     23  C   UNL     1      49.632   6.081  18.629  0.00  0.00    +0.000 A 
ATOM     24  N   UNL     1      50.494   7.062  19.008  0.00  0.00    +0.000 NA
ATOM     25  C   UNL     1      50.956   7.772  18.032  0.00  0.00    +0.000 A 
ATOM     26  N   UNL     1      50.634   7.590  16.711  0.00  0.00    +0.000 N 
ATOM     27  C   UNL     1      49.782   6.602  16.283  0.00  0.00    +0.000 A 
ATOM     28  O   UNL     1      49.530   6.442  15.095  0.00  0.00    +0.000 OA
ATOM     29  C   UNL     1      49.234   5.777  17.341  0.00  0.00    +0.000 A 
ATOM     30  H   UNL     1      51.034   8.177  15.993  0.00  0.00    +0.000 HD
ENDBRANCH  17  20
ENDBRANCH   1  16
BRANCH   1  31
ATOM     31  N   UNL     1      47.381   3.652  13.286  0.00  0.00    +0.000 NA
ATOM     32  H   UNL     1      47.107   3.751  12.306  0.00  0.00    +0.000 HD
ATOM     33  H   UNL     1      47.266   2.664  13.492  0.00  0.00    +0.000 HD
ENDBRANCH   1  31
TORSDOF 6
ENDMDL
MODEL 4
REMARK VINA RESULT:    -6.335      6.181      8.514
REMARK INTER + INTRA:          -9.266
REMARK INTER:                  -8.539
REMARK INTRA:                  -0.727
REMARK UNBOUND:                -0.895
REMARK  Name = 
REMARK  6 active torsions:
REMARK  status: ('A' for Active; 'I' for Inactive)
REMARK    1  A    between atoms: N_1  and  C_2
REMARK    2  A    between atoms: C_2  and  N_3
REMARK    3  A    between atoms: C_2  and  C_16
REMARK    4  A    between atoms: C_4  and  C_6
REMARK    5  A    between atoms: C_19  and  C_20
REMARK    6  A    between atoms: C_21  and  C_22
REMARK                            x       y       z     vdW  Elec       q    Type
REMARK                         _______ _______ _______ _____ _____    ______ ____
ROOT
ATOM      1  C   UNL     1      44.132   3.519  11.917  0.00  0.00    +0.000 C 
ENDROOT
BRANCH   1   2
ATOM      2  C   UNL     1      44.826   4.848  12.159  0.00  0.00    +0.000 A 
ATOM      3  C   UNL     1      44.229   6.049  11.758  0.00  0.00    +0.000 A 
ATOM      4  C   UNL     1      44.863   7.275  11.992  0.00  0.00    +0.000 A 
ATOM      5  C   UNL     1      46.103   7.331  12.640  0.00  0.00    +0.000 A 
ATOM      6  C   UNL     1      46.709   6.133  13.032  0.00  0.00    +0.000 A 
ATOM      7  C   UNL     1      46.078   4.909  12.799  0.00  0.00    +0.000 A 
BRANCH   5   8
ATOM      8  C   UNL     1      46.829   8.589  12.861  0.00  0.00    +0.000 C 
ATOM      9  C   UNL     1      47.833   9.044  12.093  0.00  0.00    +0.000 C 
BRANCH   9  10
ATOM     10  C   UNL     1      48.538  10.309  12.350  0.00  0.00    +0.000 A 
ATOM     11  C   UNL     1      48.717  10.759  13.656  0.00  0.00    +0.000 A 
ATOM     12  C   UNL     1      49.391  11.959  13.867  0.00  0.00    +0.000 A 
ATOM     13  C   UNL     1      49.864  12.676  12.775  0.00  0.00    +0.000 A 
ATOM     14  C   UNL     1      49.641  12.159  11.512  0.00  0.00    +0.000 A 
ATOM     15  N   UNL     1      48.994  10.998  11.278  0.00  0.00    +0.000 NA
ENDBRANCH   9  10
ENDBRANCH   5   8
ENDBRANCH   1   2
BRANCH   1  16
ATOM     16  N   UNL     1      44.833   2.788  10.905  0.00  0.00    +0.000 N 
ATOM     17  C   UNL     1      44.694   3.005   9.559  0.00  0.00    +0.000 C 
ATOM     18  O   UNL     1      44.025   3.927   9.101  0.00  0.00    +0.000 OA
ATOM     19  H   UNL     1      45.053   1.837  11.180  0.00  0.00    +0.000 HD
BRANCH  17  20
ATOM     20  C   UNL     1      45.516   2.147   8.696  0.00  0.00    +0.000 A 
ATOM     21  C   UNL     1      45.421   0.767   8.796  0.00  0.00    +0.000 A 
ATOM     22  S   UNL     1      46.379  -0.064   7.656  0.00  0.00    +0.000 S 
ATOM     23  C   UNL     1      46.995   1.392   7.025  0.00  0.00    +0.000 A 
ATOM     24  N   UNL     1      47.902   1.394   6.013  0.00  0.00    +0.000 NA
ATOM     25  C   UNL     1      48.296   2.571   5.651  0.00  0.00    +0.000 A 
ATOM     26  N   UNL     1      47.864   3.746   6.210  0.00  0.00    +0.000 N 
ATOM     27  C   UNL     1      46.937   3.792   7.223  0.00  0.00    +0.000 A 
ATOM     28  O   UNL     1      46.547   4.855   7.689  0.00  0.00    +0.000 OA
ATOM     29  C   UNL     1      46.464   2.496   7.667  0.00  0.00    +0.000 A 
ATOM     30  H   UNL     1      48.207   4.637   5.880  0.00  0.00    +0.000 HD
ENDBRANCH  17  20
ENDBRANCH   1  16
BRANCH   1  31
ATOM     31  N   UNL     1      42.787   3.730  11.427  0.00  0.00    +0.000 NA
ATOM     32  H   UNL     1      42.249   4.091  12.217  0.00  0.00    +0.000 HD
ATOM     33  H   UNL     1      42.383   2.819  11.229  0.00  0.00    +0.000 HD
ENDBRANCH   1  31
TORSDOF 6
ENDMDL
MODEL 5
REMARK VINA RESULT:    -6.117      2.504      3.541
REMARK INTER + INTRA:          -8.979
REMARK INTER:                  -8.034
REMARK INTRA:                  -0.946
REMARK UNBOUND:                -0.895
REMARK  Name = 
REMARK  6 active torsions:
REMARK  status: ('A' for Active; 'I' for Inactive)
REMARK    1  A    between atoms: N_1  and  C_2
REMARK    2  A    between atoms: C_2  and  N_3
REMARK    3  A    between atoms: C_2  and  C_16
REMARK    4  A    between atoms: C_4  and  C_6
REMARK    5  A    between atoms: C_19  and  C_20
REMARK    6  A    between atoms: C_21  and  C_22
REMARK                            x       y       z     vdW  Elec       q    Type
REMARK                         _______ _______ _______ _____ _____    ______ ____
ROOT
ATOM      1  C   UNL     1      49.430   7.581  12.559  0.00  0.00    +0.000 C 
ENDROOT
BRANCH   1   2
ATOM      2  C   UNL     1      48.078   8.227  12.313  0.00  0.00    +0.000 A 
ATOM      3  C   UNL     1      46.918   7.447  12.231  0.00  0.00    +0.000 A 
ATOM      4  C   UNL     1      45.670   8.044  12.017  0.00  0.00    +0.000 A 
ATOM      5  C   UNL     1      45.549   9.433  11.889  0.00  0.00    +0.000 A 
ATOM      6  C   UNL     1      46.706  10.215  11.959  0.00  0.00    +0.000 A 
ATOM      7  C   UNL     1      47.952   9.622  12.173  0.00  0.00    +0.000 A 
BRANCH   5   8
ATOM      8  C   UNL     1      44.269  10.098  11.613  0.00  0.00    +0.000 C 
ATOM      9  C   UNL     1      43.384   9.710  10.679  0.00  0.00    +0.000 C 
BRANCH   9  10
ATOM     10  C   UNL     1      42.113  10.406  10.431  0.00  0.00    +0.000 A 
ATOM     11  C   UNL     1      42.078  11.528   9.607  0.00  0.00    +0.000 A 
ATOM     12  C   UNL     1      40.858  12.164   9.388  0.00  0.00    +0.000 A 
ATOM     13  C   UNL     1      39.712  11.667   9.998  0.00  0.00    +0.000 A 
ATOM     14  C   UNL     1      39.836  10.550  10.803  0.00  0.00    +0.000 A 
ATOM     15  N   UNL     1      41.004   9.913  11.030  0.00  0.00    +0.000 NA
ENDBRANCH   9  10
ENDBRANCH   5   8
ENDBRANCH   1   2
BRANCH   1  16
ATOM     16  N   UNL     1      49.409   6.883  13.809  0.00  0.00    +0.000 N 
ATOM     17  C   UNL     1      49.337   7.495  15.033  0.00  0.00    +0.000 C 
ATOM     18  O   UNL     1      49.178   8.705  15.162  0.00  0.00    +0.000 OA
ATOM     19  H   UNL     1      49.909   6.002  13.782  0.00  0.00    +0.000 HD
BRANCH  17  20
ATOM     20  C   UNL     1      49.319   6.588  16.188  0.00  0.00    +0.000 A 
ATOM     21  C   UNL     1      50.121   6.848  17.289  0.00  0.00    +0.000 A 
ATOM     22  S   UNL     1      49.899   5.741  18.568  0.00  0.00    +0.000 S 
ATOM     23  C   UNL     1      48.763   4.845  17.672  0.00  0.00    +0.000 A 
ATOM     24  N   UNL     1      48.181   3.730  18.188  0.00  0.00    +0.000 NA
ATOM     25  C   UNL     1      47.354   3.141  17.387  0.00  0.00    +0.000 A 
ATOM     26  N   UNL     1      47.057   3.566  16.118  0.00  0.00    +0.000 N 
ATOM     27  C   UNL     1      47.608   4.695  15.564  0.00  0.00    +0.000 A 
ATOM     28  O   UNL     1      47.308   5.070  14.437  0.00  0.00    +0.000 OA
ATOM     29  C   UNL     1      48.546   5.393  16.421  0.00  0.00    +0.000 A 
ATOM     30  H   UNL     1      46.397   3.063  15.542  0.00  0.00    +0.000 HD
ENDBRANCH  17  20
ENDBRANCH   1  16
BRANCH   1  31
ATOM     31  N   UNL     1      50.465   8.587  12.656  0.00  0.00    +0.000 NA
ATOM     32  H   UNL     1      51.017   8.511  11.800  0.00  0.00    +0.000 HD
ATOM     33  H   UNL     1      51.096   8.310  13.402  0.00  0.00    +0.000 HD
ENDBRANCH   1  31
TORSDOF 6
ENDMDL
MODEL 6
REMARK VINA RESULT:    -6.101      3.320      3.965
REMARK INTER + INTRA:          -8.958
REMARK INTER:                  -7.726
REMARK INTRA:                  -1.231
REMARK UNBOUND:                -0.895
REMARK  Name = 
REMARK  6 active torsions:
REMARK  status: ('A' for Active; 'I' for Inactive)
REMARK    1  A    between atoms: N_1  and  C_2
REMARK    2  A    between atoms: C_2  and  N_3
REMARK    3  A    between atoms: C_2  and  C_16
REMARK    4  A    between atoms: C_4  and  C_6
REMARK    5  A    between atoms: C_19  and  C_20
REMARK    6  A    between atoms: C_21  and  C_22
REMARK                            x       y       z     vdW  Elec       q    Type
REMARK                         _______ _______ _______ _____ _____    ______ ____
ROOT
ATOM      1  C   UNL     1      47.092   4.716  15.001  0.00  0.00    +0.000 C 
ENDROOT
BRANCH   1   2
ATOM      2  C   UNL     1      47.475   5.842  14.057  0.00  0.00    +0.000 A 
ATOM      3  C   UNL     1      48.383   6.830  14.457  0.00  0.00    +0.000 A 
ATOM      4  C   UNL     1      48.746   7.862  13.583  0.00  0.00    +0.000 A 
ATOM      5  C   UNL     1      48.220   7.926  12.287  0.00  0.00    +0.000 A 
ATOM      6  C   UNL     1      47.303   6.947  11.887  0.00  0.00    +0.000 A 
ATOM      7  C   UNL     1      46.940   5.917  12.758  0.00  0.00    +0.000 A 
BRANCH   5   8
ATOM      8  C   UNL     1      48.531   9.017  11.354  0.00  0.00    +0.000 C 
ATOM      9  C   UNL     1      49.635   9.781  11.403  0.00  0.00    +0.000 C 
BRANCH   9  10
ATOM     10  C   UNL     1      49.909  10.867  10.450  0.00  0.00    +0.000 A 
ATOM     11  C   UNL     1      51.219  11.157  10.076  0.00  0.00    +0.000 A 
ATOM     12  C   UNL     1      51.445  12.190   9.169  0.00  0.00    +0.000 A 
ATOM     13  C   UNL     1      50.364  12.904   8.666  0.00  0.00    +0.000 A 
ATOM     14  C   UNL     1      49.097  12.552   9.092  0.00  0.00    +0.000 A 
ATOM     15  N   UNL     1      48.848  11.555   9.967  0.00  0.00    +0.000 NA
ENDBRANCH   9  10
ENDBRANCH   5   8
ENDBRANCH   1   2
BRANCH   1  16
ATOM     16  N   UNL     1      47.678   4.945  16.287  0.00  0.00    +0.000 N 
ATOM     17  C   UNL     1      47.333   4.266  17.426  0.00  0.00    +0.000 C 
ATOM     18  O   UNL     1      46.554   3.317  17.422  0.00  0.00    +0.000 OA
ATOM     19  H   UNL     1      47.990   5.901  16.418  0.00  0.00    +0.000 HD
BRANCH  17  20
ATOM     20  C   UNL     1      48.068   4.655  18.636  0.00  0.00    +0.000 A 
ATOM     21  C   UNL     1      47.404   5.281  19.681  0.00  0.00    +0.000 A 
ATOM     22  S   UNL     1      48.397   5.574  21.037  0.00  0.00    +0.000 S 
ATOM     23  C   UNL     1      49.760   4.923  20.253  0.00  0.00    +0.000 A 
ATOM     24  N   UNL     1      50.973   4.886  20.865  0.00  0.00    +0.000 NA
ATOM     25  C   UNL     1      51.920   4.383  20.142  0.00  0.00    +0.000 A 
ATOM     26  N   UNL     1      51.763   3.915  18.862  0.00  0.00    +0.000 N 
ATOM     27  C   UNL     1      50.553   3.919  18.212  0.00  0.00    +0.000 A 
ATOM     28  O   UNL     1      50.432   3.472  17.079  0.00  0.00    +0.000 OA
ATOM     29  C   UNL     1      49.457   4.475  18.980  0.00  0.00    +0.000 A 
ATOM     30  H   UNL     1      52.543   3.530  18.350  0.00  0.00    +0.000 HD
ENDBRANCH  17  20
ENDBRANCH   1  16
BRANCH   1  31
ATOM     31  N   UNL     1      47.610   3.453  14.523  0.00  0.00    +0.000 NA
ATOM     32  H   UNL     1      48.315   3.682  13.820  0.00  0.00    +0.000 HD
ATOM     33  H   UNL     1      46.868   2.987  14.009  0.00  0.00    +0.000 HD
ENDBRANCH   1  31
TORSDOF 6
ENDMDL
MODEL 7
REMARK VINA RESULT:    -6.093      1.684      2.487
REMARK INTER + INTRA:          -8.947
REMARK INTER:                  -7.800
REMARK INTRA:                  -1.147
REMARK UNBOUND:                -0.895
REMARK  Name = 
REMARK  6 active torsions:
REMARK  status: ('A' for Active; 'I' for Inactive)
REMARK    1  A    between atoms: N_1  and  C_2
REMARK    2  A    between atoms: C_2  and  N_3
REMARK    3  A    between atoms: C_2  and  C_16
REMARK    4  A    between atoms: C_4  and  C_6
REMARK    5  A    between atoms: C_19  and  C_20
REMARK    6  A    between atoms: C_21  and  C_22
REMARK                            x       y       z     vdW  Elec       q    Type
REMARK                         _______ _______ _______ _____ _____    ______ ____
ROOT
ATOM      1  C   UNL     1      46.927   4.021  15.069  0.00  0.00    +0.000 C 
ENDROOT
BRANCH   1   2
ATOM      2  C   UNL     1      46.422   5.068  14.091  0.00  0.00    +0.000 A 
ATOM      3  C   UNL     1      47.245   6.129  13.694  0.00  0.00    +0.000 A 
ATOM      4  C   UNL     1      46.784   7.087  12.783  0.00  0.00    +0.000 A 
ATOM      5  C   UNL     1      45.495   7.003  12.240  0.00  0.00    +0.000 A 
ATOM      6  C   UNL     1      44.666   5.952  12.643  0.00  0.00    +0.000 A 
ATOM      7  C   UNL     1      45.124   4.995  13.552  0.00  0.00    +0.000 A 
BRANCH   5   8
ATOM      8  C   UNL     1      44.951   8.012  11.322  0.00  0.00    +0.000 C 
ATOM      9  C   UNL     1      44.714   9.296  11.640  0.00  0.00    +0.000 C 
BRANCH   9  10
ATOM     10  C   UNL     1      44.164  10.276  10.691  0.00  0.00    +0.000 A 
ATOM     11  C   UNL     1      42.871  10.123  10.197  0.00  0.00    +0.000 A 
ATOM     12  C   UNL     1      42.377  11.070   9.303  0.00  0.00    +0.000 A 
ATOM     13  C   UNL     1      43.185  12.136   8.925  0.00  0.00    +0.000 A 
ATOM     14  C   UNL     1      44.458  12.210   9.460  0.00  0.00    +0.000 A 
ATOM     15  N   UNL     1      44.960  11.309  10.331  0.00  0.00    +0.000 NA
ENDBRANCH   9  10
ENDBRANCH   5   8
ENDBRANCH   1   2
BRANCH   1  16
ATOM     16  N   UNL     1      47.802   4.636  16.022  0.00  0.00    +0.000 N 
ATOM     17  C   UNL     1      48.501   3.952  16.981  0.00  0.00    +0.000 C 
ATOM     18  O   UNL     1      48.520   2.727  17.042  0.00  0.00    +0.000 OA
ATOM     19  H   UNL     1      47.527   5.582  16.262  0.00  0.00    +0.000 HD
BRANCH  17  20
ATOM     20  C   UNL     1      49.348   4.780  17.850  0.00  0.00    +0.000 A 
ATOM     21  C   UNL     1      50.729   4.680  17.774  0.00  0.00    +0.000 A 
ATOM     22  S   UNL     1      51.547   5.781  18.789  0.00  0.00    +0.000 S 
ATOM     23  C   UNL     1      50.082   6.391  19.404  0.00  0.00    +0.000 A 
ATOM     24  N   UNL     1      50.068   7.368  20.349  0.00  0.00    +0.000 NA
ATOM     25  C   UNL     1      48.886   7.718  20.737  0.00  0.00    +0.000 A 
ATOM     26  N   UNL     1      47.716   7.179  20.265  0.00  0.00    +0.000 N 
ATOM     27  C   UNL     1      47.683   6.204  19.299  0.00  0.00    +0.000 A 
ATOM     28  O   UNL     1      46.626   5.756  18.874  0.00  0.00    +0.000 OA
ATOM     29  C   UNL     1      48.986   5.774  18.831  0.00  0.00    +0.000 A 
ATOM     30  H   UNL     1      46.821   7.499  20.606  0.00  0.00    +0.000 HD
ENDBRANCH  17  20
ENDBRANCH   1  16
BRANCH   1  31
ATOM     31  N   UNL     1      47.701   3.012  14.380  0.00  0.00    +0.000 NA
ATOM     32  H   UNL     1      48.034   3.449  13.518  0.00  0.00    +0.000 HD
ATOM     33  H   UNL     1      47.061   2.285  14.075  0.00  0.00    +0.000 HD
ENDBRANCH   1  31
TORSDOF 6
ENDMDL
MODEL 8
REMARK VINA RESULT:    -5.919      5.910      8.700
REMARK INTER + INTRA:          -8.718
REMARK INTER:                  -7.833
REMARK INTRA:                  -0.885
REMARK UNBOUND:                -0.895
REMARK  Name = 
REMARK  6 active torsions:
REMARK  status: ('A' for Active; 'I' for Inactive)
REMARK    1  A    between atoms: N_1  and  C_2
REMARK    2  A    between atoms: C_2  and  N_3
REMARK    3  A    between atoms: C_2  and  C_16
REMARK    4  A    between atoms: C_4  and  C_6
REMARK    5  A    between atoms: C_19  and  C_20
REMARK    6  A    between atoms: C_21  and  C_22
REMARK                            x       y       z     vdW  Elec       q    Type
REMARK                         _______ _______ _______ _____ _____    ______ ____
ROOT
ATOM      1  C   UNL     1      45.681   8.228  12.954  0.00  0.00    +0.000 C 
ENDROOT
BRANCH   1   2
ATOM      2  C   UNL     1      47.062   8.588  12.436  0.00  0.00    +0.000 A 
ATOM      3  C   UNL     1      47.355   9.896  12.032  0.00  0.00    +0.000 A 
ATOM      4  C   UNL     1      48.632  10.231  11.567  0.00  0.00    +0.000 A 
ATOM      5  C   UNL     1      49.649   9.271  11.502  0.00  0.00    +0.000 A 
ATOM      6  C   UNL     1      49.358   7.960  11.893  0.00  0.00    +0.000 A 
ATOM      7  C   UNL     1      48.084   7.624  12.358  0.00  0.00    +0.000 A 
BRANCH   5   8
ATOM      8  C   UNL     1      50.987   9.563  10.972  0.00  0.00    +0.000 C 
ATOM      9  C   UNL     1      51.303  10.632  10.222  0.00  0.00    +0.000 C 
BRANCH   9  10
ATOM     10  C   UNL     1      52.657  10.888   9.708  0.00  0.00    +0.000 A 
ATOM     11  C   UNL     1      53.618  11.474  10.527  0.00  0.00    +0.000 A 
ATOM     12  C   UNL     1      54.892  11.699  10.011  0.00  0.00    +0.000 A 
ATOM     13  C   UNL     1      55.170  11.339   8.698  0.00  0.00    +0.000 A 
ATOM     14  C   UNL     1      54.157  10.765   7.953  0.00  0.00    +0.000 A 
ATOM     15  N   UNL     1      52.914  10.532   8.427  0.00  0.00    +0.000 NA
ENDBRANCH   9  10
ENDBRANCH   5   8
ENDBRANCH   1   2
BRANCH   1  16
ATOM     16  N   UNL     1      45.227   7.027  12.319  0.00  0.00    +0.000 N 
ATOM     17  C   UNL     1      45.408   5.768  12.828  0.00  0.00    +0.000 C 
ATOM     18  O   UNL     1      45.890   5.565  13.939  0.00  0.00    +0.000 OA
ATOM     19  H   UNL     1      45.200   7.097  11.307  0.00  0.00    +0.000 HD
BRANCH  17  20
ATOM     20  C   UNL     1      44.854   4.677  12.017  0.00  0.00    +0.000 A 
ATOM     21  C   UNL     1      44.064   3.703  12.609  0.00  0.00    +0.000 A 
ATOM     22  S   UNL     1      43.435   2.571  11.498  0.00  0.00    +0.000 S 
ATOM     23  C   UNL     1      44.241   3.315  10.195  0.00  0.00    +0.000 A 
ATOM     24  N   UNL     1      44.140   2.823   8.932  0.00  0.00    +0.000 NA
ATOM     25  C   UNL     1      44.821   3.476   8.049  0.00  0.00    +0.000 A 
ATOM     26  N   UNL     1      45.594   4.578   8.316  0.00  0.00    +0.000 N 
ATOM     27  C   UNL     1      45.711   5.118   9.574  0.00  0.00    +0.000 A 
ATOM     28  O   UNL     1      46.386   6.118   9.783  0.00  0.00    +0.000 OA
ATOM     29  C   UNL     1      44.966   4.419  10.602  0.00  0.00    +0.000 A 
ATOM     30  H   UNL     1      46.101   5.048   7.580  0.00  0.00    +0.000 HD
ENDBRANCH  17  20
ENDBRANCH   1  16
BRANCH   1  31
ATOM     31  N   UNL     1      44.727   9.264  12.622  0.00  0.00    +0.000 NA
ATOM     32  H   UNL     1      43.806   8.891  12.863  0.00  0.00    +0.000 HD
ATOM     33  H   UNL     1      44.715   9.362  11.612  0.00  0.00    +0.000 HD
ENDBRANCH   1  31
TORSDOF 6
ENDMDL
MODEL 9
REMARK VINA RESULT:    -5.870      4.343      6.524
REMARK INTER + INTRA:          -8.652
REMARK INTER:                  -7.488
REMARK INTRA:                  -1.164
REMARK UNBOUND:                -0.895
REMARK  Name = 
REMARK  6 active torsions:
REMARK  status: ('A' for Active; 'I' for Inactive)
REMARK    1  A    between atoms: N_1  and  C_2
REMARK    2  A    between atoms: C_2  and  N_3
REMARK    3  A    between atoms: C_2  and  C_16
REMARK    4  A    between atoms: C_4  and  C_6
REMARK    5  A    between atoms: C_19  and  C_20
REMARK    6  A    between atoms: C_21  and  C_22
REMARK                            x       y       z     vdW  Elec       q    Type
REMARK                         _______ _______ _______ _____ _____    ______ ____
ROOT
ATOM      1  C   UNL     1      48.763   5.755  18.938  0.00  0.00    +0.000 C 
ENDROOT
BRANCH   1   2
ATOM      2  C   UNL     1      48.254   5.376  17.558  0.00  0.00    +0.000 A 
ATOM      3  C   UNL     1      47.454   4.241  17.379  0.00  0.00    +0.000 A 
ATOM      4  C   UNL     1      46.975   3.899  16.109  0.00  0.00    +0.000 A 
ATOM      5  C   UNL     1      47.275   4.685  14.990  0.00  0.00    +0.000 A 
ATOM      6  C   UNL     1      48.084   5.813  15.162  0.00  0.00    +0.000 A 
ATOM      7  C   UNL     1      48.563   6.157  16.429  0.00  0.00    +0.000 A 
BRANCH   5   8
ATOM      8  C   UNL     1      46.838   4.337  13.632  0.00  0.00    +0.000 C 
ATOM      9  C   UNL     1      45.734   4.812  13.031  0.00  0.00    +0.000 C 
BRANCH   9  10
ATOM     10  C   UNL     1      45.329   4.435  11.669  0.00  0.00    +0.000 A 
ATOM     11  C   UNL     1      45.590   5.288  10.599  0.00  0.00    +0.000 A 
ATOM     12  C   UNL     1      45.198   4.901   9.320  0.00  0.00    +0.000 A 
ATOM     13  C   UNL     1      44.555   3.682   9.144  0.00  0.00    +0.000 A 
ATOM     14  C   UNL     1      44.333   2.896  10.260  0.00  0.00    +0.000 A 
ATOM     15  N   UNL     1      44.705   3.245  11.510  0.00  0.00    +0.000 NA
ENDBRANCH   9  10
ENDBRANCH   5   8
ENDBRANCH   1   2
BRANCH   1  16
ATOM     16  N   UNL     1      48.074   6.923  19.400  0.00  0.00    +0.000 N 
ATOM     17  C   UNL     1      48.311   7.533  20.603  0.00  0.00    +0.000 C 
ATOM     18  O   UNL     1      49.218   7.188  21.355  0.00  0.00    +0.000 OA
ATOM     19  H   UNL     1      47.127   6.994  19.045  0.00  0.00    +0.000 HD
BRANCH  17  20
ATOM     20  C   UNL     1      47.498   8.726  20.873  0.00  0.00    +0.000 A 
ATOM     21  C   UNL     1      46.825   8.850  22.080  0.00  0.00    +0.000 A 
ATOM     22  S   UNL     1      46.009  10.338  22.252  0.00  0.00    +0.000 S 
ATOM     23  C   UNL     1      46.483  10.845  20.698  0.00  0.00    +0.000 A 
ATOM     24  N   UNL     1      46.097  12.050  20.202  0.00  0.00    +0.000 NA
ATOM     25  C   UNL     1      46.514  12.292  19.003  0.00  0.00    +0.000 A 
ATOM     26  N   UNL     1      47.282  11.436  18.255  0.00  0.00    +0.000 N 
ATOM     27  C   UNL     1      47.709  10.218  18.722  0.00  0.00    +0.000 A 
ATOM     28  O   UNL     1      48.416   9.482  18.045  0.00  0.00    +0.000 OA
ATOM     29  C   UNL     1      47.265   9.897  20.064  0.00  0.00    +0.000 A 
ATOM     30  H   UNL     1      47.580  11.686  17.322  0.00  0.00    +0.000 HD
ENDBRANCH  17  20
ENDBRANCH   1  16
BRANCH   1  31
ATOM     31  N   UNL     1      50.169   6.089  18.888  0.00  0.00    +0.000 NA
ATOM     32  H   UNL     1      50.471   5.907  17.929  0.00  0.00    +0.000 HD
ATOM     33  H   UNL     1      50.669   5.410  19.454  0.00  0.00    +0.000 HD
ENDBRANCH   1  31
TORSDOF 6
ENDMDL
