MODEL 1
REMARK VINA RESULT:    -6.990      0.000      0.000
REMARK INTER + INTRA:          -9.752
REMARK INTER:                  -9.034
REMARK INTRA:                  -0.719
REMARK UNBOUND:                -0.719
REMARK  Name = 
REMARK  5 active torsions:
REMARK  status: ('A' for Active; 'I' for Inactive)
REMARK    1  A    between atoms: C_2  and  C_18
REMARK    2  A    between atoms: N_3  and  C_4
REMARK    3  A    between atoms: C_4  and  C_5
REMARK    4  A    between atoms: C_8  and  C_9
REMARK    5  A    between atoms: C_9  and  N_10
REMARK                            x       y       z     vdW  Elec       q    Type
REMARK                         _______ _______ _______ _____ _____    ______ ____
ROOT
ATOM      1  N   UNL     1      45.872   8.182  12.084  0.00  0.00    +0.000 NA
ATOM      2  C   UNL     1      46.116   6.972  11.745  0.00  0.00    +0.000 C 
ATOM      3  N   UNL     1      47.348   6.387  11.665  0.00  0.00    +0.000 N 
ATOM      4  H   UNL     1      46.744   8.658  12.295  0.00  0.00    +0.000 HD
ATOM      5  H   UNL     1      47.363   5.407  11.399  0.00  0.00    +0.000 HD
ENDROOT
BRANCH   2   6
ATOM      6  C   UNL     1      44.955   6.104  11.521  0.00  0.00    +0.000 A 
ATOM      7  C   UNL     1      43.858   6.146  12.377  0.00  0.00    +0.000 A 
ATOM      8  S   UNL     1      42.913   4.728  12.304  0.00  0.00    +0.000 S 
ATOM      9  C   UNL     1      43.858   4.107  11.030  0.00  0.00    +0.000 A 
ATOM     10  N   UNL     1      43.675   2.845  10.556  0.00  0.00    +0.000 NA
ATOM     11  C   UNL     1      44.410   2.552   9.535  0.00  0.00    +0.000 A 
ATOM     12  N   UNL     1      45.277   3.422   8.918  0.00  0.00    +0.000 N 
ATOM     13  C   UNL     1      45.491   4.702   9.362  0.00  0.00    +0.000 A 
ATOM     14  O   UNL     1      46.205   5.499   8.743  0.00  0.00    +0.000 OA
ATOM     15  C   UNL     1      44.783   5.025  10.575  0.00  0.00    +0.000 A 
ATOM     16  H   UNL     1      45.741   3.162   8.058  0.00  0.00    +0.000 HD
ENDBRANCH   2   6
BRANCH   3  17
ATOM     17  C   UNL     1      48.367   6.646  12.673  0.00  0.00    +0.000 C 
BRANCH  17  18
ATOM     18  C   UNL     1      48.080   5.962  14.011  0.00  0.00    +0.000 A 
ATOM     19  N   UNL     1      47.346   4.829  14.001  0.00  0.00    +0.000 NA
ATOM     20  C   UNL     1      47.148   4.219  15.186  0.00  0.00    +0.000 A 
ATOM     21  C   UNL     1      47.626   4.683  16.392  0.00  0.00    +0.000 A 
ATOM     22  C   UNL     1      48.310   5.884  16.301  0.00  0.00    +0.000 A 
ATOM     23  N   UNL     1      48.563   6.522  15.138  0.00  0.00    +0.000 NA
BRANCH  21  24
ATOM     24  C   UNL     1      47.361   3.999  17.697  0.00  0.00    +0.000 C 
BRANCH  24  25
ATOM     25  N   UNL     1      48.469   3.389  18.429  0.00  0.00    +0.000 NA
ATOM     26  C   UNL     1      49.012   4.120  19.577  0.00  0.00    +0.000 C 
ATOM     27  C   UNL     1      50.189   5.044  19.233  0.00  0.00    +0.000 C 
ATOM     28  O   UNL     1      51.229   4.350  18.537  0.00  0.00    +0.000 OA
ATOM     29  C   UNL     1      50.754   3.670  17.370  0.00  0.00    +0.000 C 
ATOM     30  C   UNL     1      49.549   2.762  17.663  0.00  0.00    +0.000 C 
ENDBRANCH  24  25
ENDBRANCH  21  24
ENDBRANCH  17  18
ENDBRANCH   3  17
TORSDOF 5
ENDMDL
MODEL 2
REMARK VINA RESULT:    -6.840      2.834      7.011
REMARK INTER + INTRA:          -9.558
REMARK INTER:                  -8.485
REMARK INTRA:                  -1.072
REMARK UNBOUND:                -0.719
REMARK  Name = 
REMARK  5 active torsions:
REMARK  status: ('A' for Active; 'I' for Inactive)
REMARK    1  A    between atoms: C_2  and  C_18
REMARK    2  A    between atoms: N_3  and  C_4
REMARK    3  A    between atoms: C_4  and  C_5
REMARK    4  A    between atoms: C_8  and  C_9
REMARK    5  A    between atoms: C_9  and  N_10
REMARK                            x       y       z     vdW  Elec       q    Type
REMARK                         _______ _______ _______ _____ _____    ______ ____
ROOT
ATOM      1  N   UNL     1      50.698   6.896  15.234  0.00  0.00    +0.000 NA
ATOM      2  C   UNL     1      49.531   7.338  15.519  0.00  0.00    +0.000 C 
ATOM      3  N   UNL     1      48.825   8.271  14.813  0.00  0.00    +0.000 N 
ATOM      4  H   UNL     1      51.034   7.343  14.386  0.00  0.00    +0.000 HD
ATOM      5  H   UNL     1      47.900   8.495  15.167  0.00  0.00    +0.000 HD
ENDROOT
BRANCH   2   6
ATOM      6  C   UNL     1      48.847   6.707  16.651  0.00  0.00    +0.000 A 
ATOM      7  C   UNL     1      48.875   7.288  17.916  0.00  0.00    +0.000 A 
ATOM      8  S   UNL     1      48.541   6.172  19.161  0.00  0.00    +0.000 S 
ATOM      9  C   UNL     1      48.207   4.941  18.033  0.00  0.00    +0.000 A 
ATOM     10  N   UNL     1      47.972   3.659  18.423  0.00  0.00    +0.000 NA
ATOM     11  C   UNL     1      47.651   2.863  17.459  0.00  0.00    +0.000 A 
ATOM     12  N   UNL     1      47.500   3.242  16.146  0.00  0.00    +0.000 N 
ATOM     13  C   UNL     1      47.727   4.522  15.709  0.00  0.00    +0.000 A 
ATOM     14  O   UNL     1      47.500   4.866  14.543  0.00  0.00    +0.000 OA
ATOM     15  C   UNL     1      48.209   5.412  16.735  0.00  0.00    +0.000 A 
ATOM     16  H   UNL     1      47.143   2.591  15.461  0.00  0.00    +0.000 HD
ENDBRANCH   2   6
BRANCH   3  17
ATOM     17  C   UNL     1      48.814   8.258  13.356  0.00  0.00    +0.000 C 
BRANCH  17  18
ATOM     18  C   UNL     1      47.473   7.813  12.769  0.00  0.00    +0.000 A 
ATOM     19  N   UNL     1      46.347   8.378  13.253  0.00  0.00    +0.000 NA
ATOM     20  C   UNL     1      45.184   8.006  12.686  0.00  0.00    +0.000 A 
ATOM     21  C   UNL     1      45.071   7.083  11.669  0.00  0.00    +0.000 A 
ATOM     22  C   UNL     1      46.277   6.516  11.289  0.00  0.00    +0.000 A 
ATOM     23  N   UNL     1      47.474   6.873  11.802  0.00  0.00    +0.000 NA
BRANCH  21  24
ATOM     24  C   UNL     1      43.759   6.667  11.081  0.00  0.00    +0.000 C 
BRANCH  24  25
ATOM     25  N   UNL     1      43.166   5.390  11.473  0.00  0.00    +0.000 NA
ATOM     26  C   UNL     1      43.111   5.074  12.902  0.00  0.00    +0.000 C 
ATOM     27  C   UNL     1      44.324   4.286  13.418  0.00  0.00    +0.000 C 
ATOM     28  O   UNL     1      44.561   3.104  12.647  0.00  0.00    +0.000 OA
ATOM     29  C   UNL     1      44.683   3.374  11.246  0.00  0.00    +0.000 C 
ATOM     30  C   UNL     1      43.507   4.195  10.697  0.00  0.00    +0.000 C 
ENDBRANCH  24  25
ENDBRANCH  21  24
ENDBRANCH  17  18
ENDBRANCH   3  17
TORSDOF 5
ENDMDL
MODEL 3
REMARK VINA RESULT:    -6.724      2.972      7.947
REMARK INTER + INTRA:          -9.407
REMARK INTER:                  -8.561
REMARK INTRA:                  -0.847
REMARK UNBOUND:                -0.719
REMARK  Name = 
REMARK  5 active torsions:
REMARK  status: ('A' for Active; 'I' for Inactive)
REMARK    1  A    between atoms: C_2  and  C_18
REMARK    2  A    between atoms: N_3  and  C_4
REMARK    3  A    between atoms: C_4  and  C_5
REMARK    4  A    between atoms: C_8  and  C_9
REMARK    5  A    between atoms: C_9  and  N_10
REMARK                            x       y       z     vdW  Elec       q    Type
REMARK                         _______ _______ _______ _____ _____    ______ ____
ROOT
ATOM      1  N   UNL     1      47.443   5.014  16.402  0.00  0.00    +0.000 NA
ATOM      2  C   UNL     1      48.655   5.416  16.310  0.00  0.00    +0.000 C 
ATOM      3  N   UNL     1      49.151   6.279  15.374  0.00  0.00    +0.000 N 
ATOM      4  H   UNL     1      46.887   5.439  15.667  0.00  0.00    +0.000 HD
ATOM      5  H   UNL     1      50.137   6.511  15.455  0.00  0.00    +0.000 HD
ENDROOT
BRANCH   2   6
ATOM      6  C   UNL     1      49.573   4.990  17.371  0.00  0.00    +0.000 A 
ATOM      7  C   UNL     1      50.024   5.894  18.329  0.00  0.00    +0.000 A 
ATOM      8  S   UNL     1      51.464   5.384  19.087  0.00  0.00    +0.000 S 
ATOM      9  C   UNL     1      51.426   3.893  18.265  0.00  0.00    +0.000 A 
ATOM     10  N   UNL     1      52.450   3.003  18.353  0.00  0.00    +0.000 NA
ATOM     11  C   UNL     1      52.234   1.886  17.743  0.00  0.00    +0.000 A 
ATOM     12  N   UNL     1      51.068   1.561  17.092  0.00  0.00    +0.000 N 
ATOM     13  C   UNL     1      50.010   2.426  16.980  0.00  0.00    +0.000 A 
ATOM     14  O   UNL     1      48.937   2.087  16.470  0.00  0.00    +0.000 OA
ATOM     15  C   UNL     1      50.262   3.731  17.540  0.00  0.00    +0.000 A 
ATOM     16  H   UNL     1      50.925   0.629  16.727  0.00  0.00    +0.000 HD
ENDBRANCH   2   6
BRANCH   3  17
ATOM     17  C   UNL     1      48.394   7.453  14.960  0.00  0.00    +0.000 C 
BRANCH  17  18
ATOM     18  C   UNL     1      47.419   7.168  13.817  0.00  0.00    +0.000 A 
ATOM     19  N   UNL     1      47.508   5.979  13.185  0.00  0.00    +0.000 NA
ATOM     20  C   UNL     1      46.607   5.733  12.214  0.00  0.00    +0.000 A 
ATOM     21  C   UNL     1      45.625   6.616  11.819  0.00  0.00    +0.000 A 
ATOM     22  C   UNL     1      45.660   7.830  12.485  0.00  0.00    +0.000 A 
ATOM     23  N   UNL     1      46.521   8.118  13.485  0.00  0.00    +0.000 NA
BRANCH  21  24
ATOM     24  C   UNL     1      44.657   6.325  10.715  0.00  0.00    +0.000 C 
BRANCH  24  25
ATOM     25  N   UNL     1      43.593   5.346  10.927  0.00  0.00    +0.000 NA
ATOM     26  C   UNL     1      42.798   5.458  12.152  0.00  0.00    +0.000 C 
ATOM     27  C   UNL     1      43.336   4.629  13.328  0.00  0.00    +0.000 C 
ATOM     28  O   UNL     1      43.527   3.256  12.971  0.00  0.00    +0.000 OA
ATOM     29  C   UNL     1      44.351   3.096  11.811  0.00  0.00    +0.000 C 
ATOM     30  C   UNL     1      43.869   3.940  10.621  0.00  0.00    +0.000 C 
ENDBRANCH  24  25
ENDBRANCH  21  24
ENDBRANCH  17  18
ENDBRANCH   3  17
TORSDOF 5
ENDMDL
MODEL 4
REMARK VINA RESULT:    -6.685      1.994      2.720
REMARK INTER + INTRA:          -9.357
REMARK INTER:                  -8.034
REMARK INTRA:                  -1.323
REMARK UNBOUND:                -0.719
REMARK  Name = 
REMARK  5 active torsions:
REMARK  status: ('A' for Active; 'I' for Inactive)
REMARK    1  A    between atoms: C_2  and  C_18
REMARK    2  A    between atoms: N_3  and  C_4
REMARK    3  A    between atoms: C_4  and  C_5
REMARK    4  A    between atoms: C_8  and  C_9
REMARK    5  A    between atoms: C_9  and  N_10
REMARK                            x       y       z     vdW  Elec       q    Type
REMARK                         _______ _______ _______ _____ _____    ______ ____
ROOT
ATOM      1  N   UNL     1      45.965   8.343  13.292  0.00  0.00    +0.000 NA
ATOM      2  C   UNL     1      46.695   7.394  12.838  0.00  0.00    +0.000 C 
ATOM      3  N   UNL     1      47.987   7.504  12.407  0.00  0.00    +0.000 N 
ATOM      4  H   UNL     1      46.494   9.210  13.292  0.00  0.00    +0.000 HD
ATOM      5  H   UNL     1      48.430   6.645  12.095  0.00  0.00    +0.000 HD
ENDROOT
BRANCH   2   6
ATOM      6  C   UNL     1      46.124   6.045  12.882  0.00  0.00    +0.000 A 
ATOM      7  C   UNL     1      46.659   5.071  13.720  0.00  0.00    +0.000 A 
ATOM      8  S   UNL     1      46.259   3.487  13.228  0.00  0.00    +0.000 S 
ATOM      9  C   UNL     1      45.249   4.077  11.989  0.00  0.00    +0.000 A 
ATOM     10  N   UNL     1      44.675   3.244  11.081  0.00  0.00    +0.000 NA
ATOM     11  C   UNL     1      43.870   3.832  10.259  0.00  0.00    +0.000 A 
ATOM     12  N   UNL     1      43.555   5.169  10.293  0.00  0.00    +0.000 N 
ATOM     13  C   UNL     1      44.109   6.044  11.191  0.00  0.00    +0.000 A 
ATOM     14  O   UNL     1      43.748   7.223  11.267  0.00  0.00    +0.000 OA
ATOM     15  C   UNL     1      45.108   5.449  12.045  0.00  0.00    +0.000 A 
ATOM     16  H   UNL     1      42.836   5.543   9.688  0.00  0.00    +0.000 HD
ENDBRANCH   2   6
BRANCH   3  17
ATOM     17  C   UNL     1      48.949   8.331  13.124  0.00  0.00    +0.000 C 
BRANCH  17  18
ATOM     18  C   UNL     1      49.092   7.948  14.598  0.00  0.00    +0.000 A 
ATOM     19  N   UNL     1      48.465   8.711  15.517  0.00  0.00    +0.000 NA
ATOM     20  C   UNL     1      48.567   8.325  16.804  0.00  0.00    +0.000 A 
ATOM     21  C   UNL     1      49.277   7.226  17.235  0.00  0.00    +0.000 A 
ATOM     22  C   UNL     1      49.936   6.550  16.222  0.00  0.00    +0.000 A 
ATOM     23  N   UNL     1      49.844   6.875  14.914  0.00  0.00    +0.000 NA
BRANCH  21  24
ATOM     24  C   UNL     1      49.397   6.841  18.677  0.00  0.00    +0.000 C 
BRANCH  24  25
ATOM     25  N   UNL     1      48.659   5.685  19.179  0.00  0.00    +0.000 NA
ATOM     26  C   UNL     1      49.378   4.415  19.296  0.00  0.00    +0.000 C 
ATOM     27  C   UNL     1      49.276   3.518  18.053  0.00  0.00    +0.000 C 
ATOM     28  O   UNL     1      47.916   3.296  17.664  0.00  0.00    +0.000 OA
ATOM     29  C   UNL     1      47.189   4.515  17.478  0.00  0.00    +0.000 C 
ATOM     30  C   UNL     1      47.298   5.459  18.685  0.00  0.00    +0.000 C 
ENDBRANCH  24  25
ENDBRANCH  21  24
ENDBRANCH  17  18
ENDBRANCH   3  17
TORSDOF 5
ENDMDL
MODEL 5
REMARK VINA RESULT:    -6.564      3.268      5.164
REMARK INTER + INTRA:          -9.201
REMARK INTER:                  -8.021
REMARK INTRA:                  -1.180
REMARK UNBOUND:                -0.719
REMARK  Name = 
REMARK  5 active torsions:
REMARK  status: ('A' for Active; 'I' for Inactive)
REMARK    1  A    between atoms: C_2  and  C_18
REMARK    2  A    between atoms: N_3  and  C_4
REMARK    3  A    between atoms: C_4  and  C_5
REMARK    4  A    between atoms: C_8  and  C_9
REMARK    5  A    between atoms: C_9  and  N_10
REMARK                            x       y       z     vdW  Elec       q    Type
REMARK                         _______ _______ _______ _____ _____    ______ ____
ROOT
ATOM      1  N   UNL     1      47.362   3.188  14.266  0.00  0.00    +0.000 NA
ATOM      2  C   UNL     1      46.955   4.369  14.544  0.00  0.00    +0.000 C 
ATOM      3  N   UNL     1      46.981   4.965  15.773  0.00  0.00    +0.000 N 
ATOM      4  H   UNL     1      47.721   2.745  15.107  0.00  0.00    +0.000 HD
ATOM      5  H   UNL     1      46.637   5.920  15.817  0.00  0.00    +0.000 HD
ENDROOT
BRANCH   2   6
ATOM      6  C   UNL     1      46.514   5.196  13.417  0.00  0.00    +0.000 A 
ATOM      7  C   UNL     1      47.185   6.371  13.089  0.00  0.00    +0.000 A 
ATOM      8  S   UNL     1      46.226   7.442  12.170  0.00  0.00    +0.000 S 
ATOM      9  C   UNL     1      44.966   6.301  12.068  0.00  0.00    +0.000 A 
ATOM     10  N   UNL     1      43.763   6.613  11.515  0.00  0.00    +0.000 NA
ATOM     11  C   UNL     1      42.943   5.619  11.434  0.00  0.00    +0.000 A 
ATOM     12  N   UNL     1      43.234   4.331  11.815  0.00  0.00    +0.000 N 
ATOM     13  C   UNL     1      44.433   3.971  12.376  0.00  0.00    +0.000 A 
ATOM     14  O   UNL     1      44.711   2.793  12.629  0.00  0.00    +0.000 OA
ATOM     15  C   UNL     1      45.328   5.079  12.598  0.00  0.00    +0.000 A 
ATOM     16  H   UNL     1      42.585   3.579  11.625  0.00  0.00    +0.000 HD
ENDBRANCH   2   6
BRANCH   3  17
ATOM     17  C   UNL     1      48.128   4.807  16.658  0.00  0.00    +0.000 C 
BRANCH  17  18
ATOM     18  C   UNL     1      49.154   5.934  16.522  0.00  0.00    +0.000 A 
ATOM     19  N   UNL     1      50.463   5.610  16.564  0.00  0.00    +0.000 NA
ATOM     20  C   UNL     1      51.346   6.613  16.394  0.00  0.00    +0.000 A 
ATOM     21  C   UNL     1      51.001   7.933  16.201  0.00  0.00    +0.000 A 
ATOM     22  C   UNL     1      49.636   8.168  16.239  0.00  0.00    +0.000 A 
ATOM     23  N   UNL     1      48.707   7.197  16.376  0.00  0.00    +0.000 NA
BRANCH  21  24
ATOM     24  C   UNL     1      52.008   9.030  16.046  0.00  0.00    +0.000 C 
BRANCH  24  25
ATOM     25  N   UNL     1      52.267   9.589  14.722  0.00  0.00    +0.000 NA
ATOM     26  C   UNL     1      51.566  10.821  14.352  0.00  0.00    +0.000 C 
ATOM     27  C   UNL     1      50.232  10.591  13.625  0.00  0.00    +0.000 C 
ATOM     28  O   UNL     1      50.383   9.735  12.489  0.00  0.00    +0.000 OA
ATOM     29  C   UNL     1      51.011   8.489  12.815  0.00  0.00    +0.000 C 
ATOM     30  C   UNL     1      52.331   8.675  13.579  0.00  0.00    +0.000 C 
ENDBRANCH  24  25
ENDBRANCH  21  24
ENDBRANCH  17  18
ENDBRANCH   3  17
TORSDOF 5
ENDMDL
MODEL 6
REMARK VINA RESULT:    -6.533      2.005      3.206
REMARK INTER + INTRA:          -9.161
REMARK INTER:                  -8.276
REMARK INTRA:                  -0.886
REMARK UNBOUND:                -0.719
REMARK  Name = 
REMARK  5 active torsions:
REMARK  status: ('A' for Active; 'I' for Inactive)
REMARK    1  A    between atoms: C_2  and  C_18
REMARK    2  A    between atoms: N_3  and  C_4
REMARK    3  A    between atoms: C_4  and  C_5
REMARK    4  A    between atoms: C_8  and  C_9
REMARK    5  A    between atoms: C_9  and  N_10
REMARK                            x       y       z     vdW  Elec       q    Type
REMARK                         _______ _______ _______ _____ _____    ______ ____
ROOT
ATOM      1  N   UNL     1      46.532   6.132  13.908  0.00  0.00    +0.000 NA
ATOM      2  C   UNL     1      46.241   4.887  13.841  0.00  0.00    +0.000 C 
ATOM      3  N   UNL     1      46.729   3.899  14.650  0.00  0.00    +0.000 N 
ATOM      4  H   UNL     1      47.188   6.289  14.667  0.00  0.00    +0.000 HD
ATOM      5  H   UNL     1      46.378   2.962  14.474  0.00  0.00    +0.000 HD
ENDROOT
BRANCH   2   6
ATOM      6  C   UNL     1      45.211   4.502  12.873  0.00  0.00    +0.000 A 
ATOM      7  C   UNL     1      44.156   3.673  13.245  0.00  0.00    +0.000 A 
ATOM      8  S   UNL     1      43.424   2.901  11.912  0.00  0.00    +0.000 S 
ATOM      9  C   UNL     1      44.395   3.769  10.815  0.00  0.00    +0.000 A 
ATOM     10  N   UNL     1      44.378   3.503   9.481  0.00  0.00    +0.000 NA
ATOM     11  C   UNL     1      45.104   4.302   8.773  0.00  0.00    +0.000 A 
ATOM     12  N   UNL     1      45.809   5.370   9.272  0.00  0.00    +0.000 N 
ATOM     13  C   UNL     1      45.854   5.676  10.609  0.00  0.00    +0.000 A 
ATOM     14  O   UNL     1      46.419   6.691  11.030  0.00  0.00    +0.000 OA
ATOM     15  C   UNL     1      45.157   4.732  11.447  0.00  0.00    +0.000 A 
ATOM     16  H   UNL     1      46.271   6.019   8.649  0.00  0.00    +0.000 HD
ENDBRANCH   2   6
BRANCH   3  17
ATOM     17  C   UNL     1      46.888   4.113  16.082  0.00  0.00    +0.000 C 
BRANCH  17  18
ATOM     18  C   UNL     1      48.334   4.394  16.493  0.00  0.00    +0.000 A 
ATOM     19  N   UNL     1      48.829   5.630  16.272  0.00  0.00    +0.000 NA
ATOM     20  C   UNL     1      50.089   5.867  16.686  0.00  0.00    +0.000 A 
ATOM     21  C   UNL     1      50.899   4.934  17.296  0.00  0.00    +0.000 A 
ATOM     22  C   UNL     1      50.319   3.681  17.417  0.00  0.00    +0.000 A 
ATOM     23  N   UNL     1      49.052   3.397  17.047  0.00  0.00    +0.000 NA
BRANCH  21  24
ATOM     24  C   UNL     1      52.306   5.219  17.717  0.00  0.00    +0.000 C 
BRANCH  24  25
ATOM     25  N   UNL     1      52.568   5.729  19.061  0.00  0.00    +0.000 NA
ATOM     26  C   UNL     1      52.233   4.864  20.195  0.00  0.00    +0.000 C 
ATOM     27  C   UNL     1      50.818   5.080  20.752  0.00  0.00    +0.000 C 
ATOM     28  O   UNL     1      50.573   6.453  21.073  0.00  0.00    +0.000 OA
ATOM     29  C   UNL     1      50.829   7.331  19.971  0.00  0.00    +0.000 C 
ATOM     30  C   UNL     1      52.222   7.121  19.358  0.00  0.00    +0.000 C 
ENDBRANCH  24  25
ENDBRANCH  21  24
ENDBRANCH  17  18
ENDBRANCH   3  17
TORSDOF 5
ENDMDL
MODEL 7
REMARK VINA RESULT:    -6.516      2.991      7.783
REMARK INTER + INTRA:          -9.139
REMARK INTER:                  -8.380
REMARK INTRA:                  -0.758
REMARK UNBOUND:                -0.719
REMARK  Name = 
REMARK  5 active torsions:
REMARK  status: ('A' for Active; 'I' for Inactive)
REMARK    1  A    between atoms: C_2  and  C_18
REMARK    2  A    between atoms: N_3  and  C_4
REMARK    3  A    between atoms: C_4  and  C_5
REMARK    4  A    between atoms: C_8  and  C_9
REMARK    5  A    between atoms: C_9  and  N_10
REMARK                            x       y       z     vdW  Elec       q    Type
REMARK                         _______ _______ _______ _____ _____    ______ ____
ROOT
ATOM      1  N   UNL     1      52.868   6.832  15.668  0.00  0.00    +0.000 NA
ATOM      2  C   UNL     1      51.655   6.883  16.074  0.00  0.00    +0.000 C 
ATOM      3  N   UNL     1      50.702   7.770  15.659  0.00  0.00    +0.000 N 
ATOM      4  H   UNL     1      53.027   7.557  14.975  0.00  0.00    +0.000 HD
ATOM      5  H   UNL     1      49.779   7.660  16.069  0.00  0.00    +0.000 HD
ENDROOT
BRANCH   2   6
ATOM      6  C   UNL     1      51.222   5.826  16.992  0.00  0.00    +0.000 A 
ATOM      7  C   UNL     1      52.096   4.813  17.376  0.00  0.00    +0.000 A 
ATOM      8  S   UNL     1      51.284   3.426  17.948  0.00  0.00    +0.000 S 
ATOM      9  C   UNL     1      49.774   4.205  17.835  0.00  0.00    +0.000 A 
ATOM     10  N   UNL     1      48.609   3.539  18.056  0.00  0.00    +0.000 NA
ATOM     11  C   UNL     1      47.556   4.286  18.017  0.00  0.00    +0.000 A 
ATOM     12  N   UNL     1      47.568   5.646  17.822  0.00  0.00    +0.000 N 
ATOM     13  C   UNL     1      48.718   6.358  17.597  0.00  0.00    +0.000 A 
ATOM     14  O   UNL     1      48.720   7.591  17.513  0.00  0.00    +0.000 OA
ATOM     15  C   UNL     1      49.902   5.540  17.508  0.00  0.00    +0.000 A 
ATOM     16  H   UNL     1      46.717   6.186  17.910  0.00  0.00    +0.000 HD
ENDBRANCH   2   6
BRANCH   3  17
ATOM     17  C   UNL     1      50.585   8.144  14.256  0.00  0.00    +0.000 C 
BRANCH  17  18
ATOM     18  C   UNL     1      49.352   7.548  13.574  0.00  0.00    +0.000 A 
ATOM     19  N   UNL     1      48.981   8.051  12.378  0.00  0.00    +0.000 NA
ATOM     20  C   UNL     1      47.922   7.477  11.776  0.00  0.00    +0.000 A 
ATOM     21  C   UNL     1      47.193   6.435  12.306  0.00  0.00    +0.000 A 
ATOM     22  C   UNL     1      47.615   6.037  13.563  0.00  0.00    +0.000 A 
ATOM     23  N   UNL     1      48.687   6.556  14.199  0.00  0.00    +0.000 NA
BRANCH  21  24
ATOM     24  C   UNL     1      46.000   5.839  11.625  0.00  0.00    +0.000 C 
BRANCH  24  25
ATOM     25  N   UNL     1      45.125   4.933  12.366  0.00  0.00    +0.000 NA
ATOM     26  C   UNL     1      45.121   3.520  11.978  0.00  0.00    +0.000 C 
ATOM     27  C   UNL     1      44.054   3.158  10.934  0.00  0.00    +0.000 C 
ATOM     28  O   UNL     1      42.746   3.576  11.339  0.00  0.00    +0.000 OA
ATOM     29  C   UNL     1      42.689   4.968  11.670  0.00  0.00    +0.000 C 
ATOM     30  C   UNL     1      43.767   5.380  12.684  0.00  0.00    +0.000 C 
ENDBRANCH  24  25
ENDBRANCH  21  24
ENDBRANCH  17  18
ENDBRANCH   3  17
TORSDOF 5
ENDMDL
MODEL 8
REMARK VINA RESULT:    -6.280      2.613      7.785
REMARK INTER + INTRA:          -8.835
REMARK INTER:                  -8.136
REMARK INTRA:                  -0.699
REMARK UNBOUND:                -0.719
REMARK  Name = 
REMARK  5 active torsions:
REMARK  status: ('A' for Active; 'I' for Inactive)
REMARK    1  A    between atoms: C_2  and  C_18
REMARK    2  A    between atoms: N_3  and  C_4
REMARK    3  A    between atoms: C_4  and  C_5
REMARK    4  A    between atoms: C_8  and  C_9
REMARK    5  A    between atoms: C_9  and  N_10
REMARK                            x       y       z     vdW  Elec       q    Type
REMARK                         _______ _______ _______ _____ _____    ______ ____
ROOT
ATOM      1  N   UNL     1      50.588   6.772  15.259  0.00  0.00    +0.000 NA
ATOM      2  C   UNL     1      49.554   7.503  15.453  0.00  0.00    +0.000 C 
ATOM      3  N   UNL     1      48.882   8.219  14.503  0.00  0.00    +0.000 N 
ATOM      4  H   UNL     1      50.842   6.795  14.276  0.00  0.00    +0.000 HD
ATOM      5  H   UNL     1      48.066   8.732  14.823  0.00  0.00    +0.000 HD
ENDROOT
BRANCH   2   6
ATOM      6  C   UNL     1      48.979   7.486  16.801  0.00  0.00    +0.000 A 
ATOM      7  C   UNL     1      48.720   8.673  17.481  0.00  0.00    +0.000 A 
ATOM      8  S   UNL     1      48.609   8.453  19.168  0.00  0.00    +0.000 S 
ATOM      9  C   UNL     1      48.751   6.764  19.006  0.00  0.00    +0.000 A 
ATOM     10  N   UNL     1      48.860   5.950  20.090  0.00  0.00    +0.000 NA
ATOM     11  C   UNL     1      48.874   4.690  19.805  0.00  0.00    +0.000 A 
ATOM     12  N   UNL     1      48.744   4.170  18.540  0.00  0.00    +0.000 N 
ATOM     13  C   UNL     1      48.631   4.954  17.420  0.00  0.00    +0.000 A 
ATOM     14  O   UNL     1      48.424   4.471  16.301  0.00  0.00    +0.000 OA
ATOM     15  C   UNL     1      48.738   6.367  17.684  0.00  0.00    +0.000 A 
ATOM     16  H   UNL     1      48.656   3.173  18.400  0.00  0.00    +0.000 HD
ENDBRANCH   2   6
BRANCH   3  17
ATOM     17  C   UNL     1      48.635   7.663  13.179  0.00  0.00    +0.000 C 
BRANCH  17  18
ATOM     18  C   UNL     1      47.378   6.793  13.116  0.00  0.00    +0.000 A 
ATOM     19  N   UNL     1      47.522   5.457  13.237  0.00  0.00    +0.000 NA
ATOM     20  C   UNL     1      46.397   4.718  13.226  0.00  0.00    +0.000 A 
ATOM     21  C   UNL     1      45.126   5.232  13.082  0.00  0.00    +0.000 A 
ATOM     22  C   UNL     1      45.093   6.605  12.900  0.00  0.00    +0.000 A 
ATOM     23  N   UNL     1      46.187   7.397  12.932  0.00  0.00    +0.000 NA
BRANCH  21  24
ATOM     24  C   UNL     1      43.896   4.380  13.042  0.00  0.00    +0.000 C 
BRANCH  24  25
ATOM     25  N   UNL     1      43.286   4.054  11.755  0.00  0.00    +0.000 NA
ATOM     26  C   UNL     1      43.463   2.694  11.242  0.00  0.00    +0.000 C 
ATOM     27  C   UNL     1      44.685   2.522  10.326  0.00  0.00    +0.000 C 
ATOM     28  O   UNL     1      44.689   3.472   9.256  0.00  0.00    +0.000 OA
ATOM     29  C   UNL     1      44.579   4.823   9.716  0.00  0.00    +0.000 C 
ATOM     30  C   UNL     1      43.390   5.029  10.667  0.00  0.00    +0.000 C 
ENDBRANCH  24  25
ENDBRANCH  21  24
ENDBRANCH  17  18
ENDBRANCH   3  17
TORSDOF 5
ENDMDL
MODEL 9
REMARK VINA RESULT:    -6.243      2.672      3.903
REMARK INTER + INTRA:          -8.786
REMARK INTER:                  -8.216
REMARK INTRA:                  -0.570
REMARK UNBOUND:                -0.719
REMARK  Name = 
REMARK  5 active torsions:
REMARK  status: ('A' for Active; 'I' for Inactive)
REMARK    1  A    between atoms: C_2  and  C_18
REMARK    2  A    between atoms: N_3  and  C_4
REMARK    3  A    between atoms: C_4  and  C_5
REMARK    4  A    between atoms: C_8  and  C_9
REMARK    5  A    between atoms: C_9  and  N_10
REMARK                            x       y       z     vdW  Elec       q    Type
REMARK                         _______ _______ _______ _____ _____    ______ ____
ROOT
ATOM      1  N   UNL     1      48.195   6.205  14.763  0.00  0.00    +0.000 NA
ATOM      2  C   UNL     1      47.315   5.372  14.348  0.00  0.00    +0.000 C 
ATOM      3  N   UNL     1      47.027   4.157  14.904  0.00  0.00    +0.000 N 
ATOM      4  H   UNL     1      48.658   5.830  15.585  0.00  0.00    +0.000 HD
ATOM      5  H   UNL     1      46.283   3.626  14.462  0.00  0.00    +0.000 HD
ENDROOT
BRANCH   2   6
ATOM      6  C   UNL     1      46.467   5.808  13.236  0.00  0.00    +0.000 A 
ATOM      7  C   UNL     1      46.517   7.120  12.772  0.00  0.00    +0.000 A 
ATOM      8  S   UNL     1      45.115   7.568  11.912  0.00  0.00    +0.000 S 
ATOM      9  C   UNL     1      44.490   5.987  12.013  0.00  0.00    +0.000 A 
ATOM     10  N   UNL     1      43.235   5.687  11.583  0.00  0.00    +0.000 NA
ATOM     11  C   UNL     1      42.940   4.431  11.647  0.00  0.00    +0.000 A 
ATOM     12  N   UNL     1      43.802   3.444  12.061  0.00  0.00    +0.000 N 
ATOM     13  C   UNL     1      45.075   3.701  12.502  0.00  0.00    +0.000 A 
ATOM     14  O   UNL     1      45.866   2.795  12.784  0.00  0.00    +0.000 OA
ATOM     15  C   UNL     1      45.398   5.105  12.563  0.00  0.00    +0.000 A 
ATOM     16  H   UNL     1      43.542   2.470  11.985  0.00  0.00    +0.000 HD
ENDBRANCH   2   6
BRANCH   3  17
ATOM     17  C   UNL     1      46.969   3.989  16.350  0.00  0.00    +0.000 C 
BRANCH  17  18
ATOM     18  C   UNL     1      48.350   3.923  17.005  0.00  0.00    +0.000 A 
ATOM     19  N   UNL     1      49.113   2.834  16.773  0.00  0.00    +0.000 NA
ATOM     20  C   UNL     1      50.342   2.821  17.322  0.00  0.00    +0.000 A 
ATOM     21  C   UNL     1      50.857   3.828  18.110  0.00  0.00    +0.000 A 
ATOM     22  C   UNL     1      49.971   4.868  18.340  0.00  0.00    +0.000 A 
ATOM     23  N   UNL     1      48.740   4.946  17.791  0.00  0.00    +0.000 NA
BRANCH  21  24
ATOM     24  C   UNL     1      52.217   3.769  18.731  0.00  0.00    +0.000 C 
BRANCH  24  25
ATOM     25  N   UNL     1      53.384   4.178  17.952  0.00  0.00    +0.000 NA
ATOM     26  C   UNL     1      54.700   4.058  18.583  0.00  0.00    +0.000 C 
ATOM     27  C   UNL     1      55.164   5.326  19.315  0.00  0.00    +0.000 C 
ATOM     28  O   UNL     1      55.110   6.481  18.471  0.00  0.00    +0.000 OA
ATOM     29  C   UNL     1      53.820   6.673  17.880  0.00  0.00    +0.000 C 
ATOM     30  C   UNL     1      53.302   5.413  17.169  0.00  0.00    +0.000 C 
ENDBRANCH  24  25
ENDBRANCH  21  24
ENDBRANCH  17  18
ENDBRANCH   3  17
TORSDOF 5
ENDMDL
