MODEL 1
REMARK VINA RESULT:    -8.475      0.000      0.000
REMARK INTER + INTRA:         -11.718
REMARK INTER:                 -10.953
REMARK INTRA:                  -0.766
REMARK UNBOUND:                -0.766
REMARK  Name = 
REMARK  5 active torsions:
REMARK  status: ('A' for Active; 'I' for Inactive)
REMARK    1  A    between atoms: C_2  and  C_4
REMARK    2  A    between atoms: C_8  and  N_9
REMARK    3  A    between atoms: N_9  and  C_10
REMARK    4  A    between atoms: C_10  and  C_11
REMARK    5  A    between atoms: C_16  and  C_17
REMARK                            x       y       z     vdW  Elec       q    Type
REMARK                         _______ _______ _______ _____ _____    ______ ____
ROOT
ATOM      1  C   UNL     1      43.771   4.581  10.715  0.00  0.00    +0.000 C 
ENDROOT
BRANCH   1   2
ATOM      2  C   UNL     1      44.961   4.927  11.575  0.00  0.00    +0.000 A 
ATOM      3  C   UNL     1      45.428   4.028  12.536  0.00  0.00    +0.000 A 
ATOM      4  C   UNL     1      46.516   4.372  13.323  0.00  0.00    +0.000 A 
ATOM      5  F   UNL     1      46.954   3.509  14.249  0.00  0.00    +0.000 F 
ATOM      6  C   UNL     1      47.159   5.599  13.175  0.00  0.00    +0.000 A 
ATOM      7  C   UNL     1      46.738   6.522  12.203  0.00  0.00    +0.000 A 
ATOM      8  C   UNL     1      45.635   6.153  11.404  0.00  0.00    +0.000 A 
BRANCH   7   9
ATOM      9  C   UNL     1      47.419   7.825  12.027  0.00  0.00    +0.000 A 
ATOM     10  C   UNL     1      48.772   7.924  11.667  0.00  0.00    +0.000 A 
ATOM     11  C   UNL     1      49.383   9.170  11.514  0.00  0.00    +0.000 A 
ATOM     12  C   UNL     1      48.621  10.304  11.714  0.00  0.00    +0.000 A 
ATOM     13  N   UNL     1      47.318  10.272  12.057  0.00  0.00    +0.000 NA
ATOM     14  C   UNL     1      46.759   9.045  12.207  0.00  0.00    +0.000 A 
ENDBRANCH   7   9
ENDBRANCH   1   2
BRANCH   1  15
ATOM     15  N   UNL     1      44.159   4.611   9.315  0.00  0.00    +0.000 N 
ATOM     16  H   UNL     1      44.494   5.521   9.005  0.00  0.00    +0.000 HD
BRANCH  15  21
ATOM     17  C   UNL     1      46.521   2.597   7.248  0.00  0.00    +0.000 A 
ATOM     18  C   UNL     1      46.326   1.369   7.863  0.00  0.00    +0.000 A 
ATOM     19  N   UNL     1      45.482   1.184   8.902  0.00  0.00    +0.000 NA
ATOM     20  C   UNL     1      44.794   2.274   9.320  0.00  0.00    +0.000 A 
ATOM     21  C   UNL     1      44.867   3.551   8.748  0.00  0.00    +0.000 A 
ATOM     22  C   UNL     1      45.782   3.696   7.702  0.00  0.00    +0.000 A 
BRANCH  17  24
ATOM     23  N   UNL     1      48.788   2.400   6.394  0.00  0.00    +0.000 N 
ATOM     24  C   UNL     1      47.479   2.691   6.128  0.00  0.00    +0.000 C 
ATOM     25  O   UNL     1      47.115   2.988   4.998  0.00  0.00    +0.000 OA
ATOM     26  H   UNL     1      49.406   2.363   5.593  0.00  0.00    +0.000 HD
ATOM     27  H   UNL     1      49.073   1.894   7.222  0.00  0.00    +0.000 HD
ENDBRANCH  17  24
ENDBRANCH  15  21
ENDBRANCH   1  15
TORSDOF 5
ENDMDL
MODEL 2
REMARK VINA RESULT:    -8.268      3.056      6.927
REMARK INTER + INTRA:         -11.451
REMARK INTER:                 -10.624
REMARK INTRA:                  -0.827
REMARK UNBOUND:                -0.766
REMARK  Name = 
REMARK  5 active torsions:
REMARK  status: ('A' for Active; 'I' for Inactive)
REMARK    1  A    between atoms: C_2  and  C_4
REMARK    2  A    between atoms: C_8  and  N_9
REMARK    3  A    between atoms: N_9  and  C_10
REMARK    4  A    between atoms: C_10  and  C_11
REMARK    5  A    between atoms: C_16  and  C_17
REMARK                            x       y       z     vdW  Elec       q    Type
REMARK                         _______ _______ _______ _____ _____    ______ ____
ROOT
ATOM      1  C   UNL     1      43.935   6.388  10.766  0.00  0.00    +0.000 C 
ENDROOT
BRANCH   1   2
ATOM      2  C   UNL     1      44.106   4.922  10.458  0.00  0.00    +0.000 A 
ATOM      3  C   UNL     1      43.449   3.954  11.222  0.00  0.00    +0.000 A 
ATOM      4  C   UNL     1      43.631   2.612  10.928  0.00  0.00    +0.000 A 
ATOM      5  F   UNL     1      43.006   1.688  11.669  0.00  0.00    +0.000 F 
ATOM      6  C   UNL     1      44.455   2.204   9.881  0.00  0.00    +0.000 A 
ATOM      7  C   UNL     1      45.114   3.145   9.072  0.00  0.00    +0.000 A 
ATOM      8  C   UNL     1      44.911   4.507   9.378  0.00  0.00    +0.000 A 
BRANCH   7   9
ATOM      9  C   UNL     1      45.984   2.726   7.949  0.00  0.00    +0.000 A 
ATOM     10  C   UNL     1      46.246   3.557   6.850  0.00  0.00    +0.000 A 
ATOM     11  C   UNL     1      47.069   3.128   5.807  0.00  0.00    +0.000 A 
ATOM     12  C   UNL     1      47.629   1.868   5.888  0.00  0.00    +0.000 A 
ATOM     13  N   UNL     1      47.417   1.027   6.920  0.00  0.00    +0.000 NA
ATOM     14  C   UNL     1      46.604   1.473   7.911  0.00  0.00    +0.000 A 
ENDBRANCH   7   9
ENDBRANCH   1   2
BRANCH   1  15
ATOM     15  N   UNL     1      44.057   6.602  12.199  0.00  0.00    +0.000 N 
ATOM     16  H   UNL     1      43.287   6.207  12.735  0.00  0.00    +0.000 HD
BRANCH  15  21
ATOM     17  C   UNL     1      46.910   5.275  14.201  0.00  0.00    +0.000 A 
ATOM     18  C   UNL     1      47.846   6.246  13.882  0.00  0.00    +0.000 A 
ATOM     19  N   UNL     1      47.588   7.283  13.055  0.00  0.00    +0.000 NA
ATOM     20  C   UNL     1      46.332   7.353  12.550  0.00  0.00    +0.000 A 
ATOM     21  C   UNL     1      45.289   6.463  12.837  0.00  0.00    +0.000 A 
ATOM     22  C   UNL     1      45.620   5.389  13.668  0.00  0.00    +0.000 A 
BRANCH  17  24
ATOM     23  N   UNL     1      47.333   4.444  16.446  0.00  0.00    +0.000 N 
ATOM     24  C   UNL     1      47.301   4.175  15.106  0.00  0.00    +0.000 C 
ATOM     25  O   UNL     1      47.560   3.057  14.679  0.00  0.00    +0.000 OA
ATOM     26  H   UNL     1      47.497   3.650  17.053  0.00  0.00    +0.000 HD
ATOM     27  H   UNL     1      46.871   5.247  16.848  0.00  0.00    +0.000 HD
ENDBRANCH  17  24
ENDBRANCH  15  21
ENDBRANCH   1  15
TORSDOF 5
ENDMDL
MODEL 3
REMARK VINA RESULT:    -8.053      2.681      3.797
REMARK INTER + INTRA:         -11.173
REMARK INTER:                 -10.375
REMARK INTRA:                  -0.797
REMARK UNBOUND:                -0.766
REMARK  Name = 
REMARK  5 active torsions:
REMARK  status: ('A' for Active; 'I' for Inactive)
REMARK    1  A    between atoms: C_2  and  C_4
REMARK    2  A    between atoms: C_8  and  N_9
REMARK    3  A    between atoms: N_9  and  C_10
REMARK    4  A    between atoms: C_10  and  C_11
REMARK    5  A    between atoms: C_16  and  C_17
REMARK                            x       y       z     vdW  Elec       q    Type
REMARK                         _______ _______ _______ _____ _____    ______ ____
ROOT
ATOM      1  C   UNL     1      44.473   5.364  10.994  0.00  0.00    +0.000 C 
ENDROOT
BRANCH   1   2
ATOM      2  C   UNL     1      45.723   5.803  11.715  0.00  0.00    +0.000 A 
ATOM      3  C   UNL     1      46.585   6.738  11.137  0.00  0.00    +0.000 A 
ATOM      4  C   UNL     1      47.734   7.118  11.813  0.00  0.00    +0.000 A 
ATOM      5  F   UNL     1      48.561   8.008  11.250  0.00  0.00    +0.000 F 
ATOM      6  C   UNL     1      48.048   6.591  13.063  0.00  0.00    +0.000 A 
ATOM      7  C   UNL     1      47.195   5.668  13.693  0.00  0.00    +0.000 A 
ATOM      8  C   UNL     1      46.026   5.298  12.996  0.00  0.00    +0.000 A 
BRANCH   7   9
ATOM      9  C   UNL     1      47.511   5.106  15.026  0.00  0.00    +0.000 A 
ATOM     10  C   UNL     1      48.372   5.751  15.928  0.00  0.00    +0.000 A 
ATOM     11  C   UNL     1      48.651   5.191  17.175  0.00  0.00    +0.000 A 
ATOM     12  C   UNL     1      48.050   3.992  17.507  0.00  0.00    +0.000 A 
ATOM     13  N   UNL     1      47.213   3.330  16.685  0.00  0.00    +0.000 NA
ATOM     14  C   UNL     1      46.972   3.897  15.476  0.00  0.00    +0.000 A 
ENDBRANCH   7   9
ENDBRANCH   1   2
BRANCH   1  15
ATOM     15  N   UNL     1      44.749   5.246   9.572  0.00  0.00    +0.000 N 
ATOM     16  H   UNL     1      45.275   6.032   9.193  0.00  0.00    +0.000 HD
BRANCH  15  21
ATOM     17  C   UNL     1      46.502   2.614   7.594  0.00  0.00    +0.000 A 
ATOM     18  C   UNL     1      45.891   1.503   8.156  0.00  0.00    +0.000 A 
ATOM     19  N   UNL     1      44.961   1.582   9.134  0.00  0.00    +0.000 NA
ATOM     20  C   UNL     1      44.620   2.828   9.542  0.00  0.00    +0.000 A 
ATOM     21  C   UNL     1      45.129   4.024   9.018  0.00  0.00    +0.000 A 
ATOM     22  C   UNL     1      46.113   3.885   8.036  0.00  0.00    +0.000 A 
BRANCH  17  24
ATOM     23  N   UNL     1      47.386   3.148   5.395  0.00  0.00    +0.000 N 
ATOM     24  C   UNL     1      47.517   2.414   6.541  0.00  0.00    +0.000 C 
ATOM     25  O   UNL     1      48.457   1.645   6.696  0.00  0.00    +0.000 OA
ATOM     26  H   UNL     1      48.151   3.077   4.733  0.00  0.00    +0.000 HD
ATOM     27  H   UNL     1      46.804   3.972   5.342  0.00  0.00    +0.000 HD
ENDBRANCH  17  24
ENDBRANCH  15  21
ENDBRANCH   1  15
TORSDOF 5
ENDMDL
MODEL 4
REMARK VINA RESULT:    -7.757      1.471      2.074
REMARK INTER + INTRA:         -10.790
REMARK INTER:                 -10.219
REMARK INTRA:                  -0.571
REMARK UNBOUND:                -0.766
REMARK  Name = 
REMARK  5 active torsions:
REMARK  status: ('A' for Active; 'I' for Inactive)
REMARK    1  A    between atoms: C_2  and  C_4
REMARK    2  A    between atoms: C_8  and  N_9
REMARK    3  A    between atoms: N_9  and  C_10
REMARK    4  A    between atoms: C_10  and  C_11
REMARK    5  A    between atoms: C_16  and  C_17
REMARK                            x       y       z     vdW  Elec       q    Type
REMARK                         _______ _______ _______ _____ _____    ______ ____
ROOT
ATOM      1  C   UNL     1      43.809   3.122  11.206  0.00  0.00    +0.000 C 
ENDROOT
BRANCH   1   2
ATOM      2  C   UNL     1      44.871   3.842  11.997  0.00  0.00    +0.000 A 
ATOM      3  C   UNL     1      45.697   3.142  12.880  0.00  0.00    +0.000 A 
ATOM      4  C   UNL     1      46.659   3.827  13.606  0.00  0.00    +0.000 A 
ATOM      5  F   UNL     1      47.441   3.151  14.458  0.00  0.00    +0.000 F 
ATOM      6  C   UNL     1      46.824   5.203  13.473  0.00  0.00    +0.000 A 
ATOM      7  C   UNL     1      46.033   5.942  12.577  0.00  0.00    +0.000 A 
ATOM      8  C   UNL     1      45.065   5.229  11.839  0.00  0.00    +0.000 A 
BRANCH   7   9
ATOM      9  C   UNL     1      46.205   7.404  12.417  0.00  0.00    +0.000 A 
ATOM     10  C   UNL     1      45.116   8.283  12.317  0.00  0.00    +0.000 A 
ATOM     11  C   UNL     1      45.315   9.656  12.164  0.00  0.00    +0.000 A 
ATOM     12  C   UNL     1      46.611  10.131  12.123  0.00  0.00    +0.000 A 
ATOM     13  N   UNL     1      47.695   9.337  12.219  0.00  0.00    +0.000 NA
ATOM     14  C   UNL     1      47.465   8.007  12.357  0.00  0.00    +0.000 A 
ENDBRANCH   7   9
ENDBRANCH   1   2
BRANCH   1  15
ATOM     15  N   UNL     1      43.789   3.629   9.844  0.00  0.00    +0.000 N 
ATOM     16  H   UNL     1      43.308   4.522   9.750  0.00  0.00    +0.000 HD
BRANCH  15  21
ATOM     17  C   UNL     1      46.539   2.321   7.691  0.00  0.00    +0.000 A 
ATOM     18  C   UNL     1      47.061   3.536   7.275  0.00  0.00    +0.000 A 
ATOM     19  N   UNL     1      46.557   4.731   7.655  0.00  0.00    +0.000 NA
ATOM     20  C   UNL     1      45.501   4.696   8.504  0.00  0.00    +0.000 A 
ATOM     21  C   UNL     1      44.919   3.536   9.032  0.00  0.00    +0.000 A 
ATOM     22  C   UNL     1      45.455   2.328   8.578  0.00  0.00    +0.000 A 
BRANCH  17  24
ATOM     23  N   UNL     1      46.640  -0.107   7.658  0.00  0.00    +0.000 N 
ATOM     24  C   UNL     1      47.159   1.072   7.203  0.00  0.00    +0.000 C 
ATOM     25  O   UNL     1      48.082   1.089   6.399  0.00  0.00    +0.000 OA
ATOM     26  H   UNL     1      47.006  -0.948   7.228  0.00  0.00    +0.000 HD
ATOM     27  H   UNL     1      45.728  -0.168   8.089  0.00  0.00    +0.000 HD
ENDBRANCH  17  24
ENDBRANCH  15  21
ENDBRANCH   1  15
TORSDOF 5
ENDMDL
MODEL 5
REMARK VINA RESULT:    -7.754      2.792      6.783
REMARK INTER + INTRA:         -10.786
REMARK INTER:                  -9.989
REMARK INTRA:                  -0.796
REMARK UNBOUND:                -0.766
REMARK  Name = 
REMARK  5 active torsions:
REMARK  status: ('A' for Active; 'I' for Inactive)
REMARK    1  A    between atoms: C_2  and  C_4
REMARK    2  A    between atoms: C_8  and  N_9
REMARK    3  A    between atoms: N_9  and  C_10
REMARK    4  A    between atoms: C_10  and  C_11
REMARK    5  A    between atoms: C_16  and  C_17
REMARK                            x       y       z     vdW  Elec       q    Type
REMARK                         _______ _______ _______ _____ _____    ______ ____
ROOT
ATOM      1  C   UNL     1      44.530   6.536  11.172  0.00  0.00    +0.000 C 
ENDROOT
BRANCH   1   2
ATOM      2  C   UNL     1      44.466   5.088  10.756  0.00  0.00    +0.000 A 
ATOM      3  C   UNL     1      43.665   4.182  11.456  0.00  0.00    +0.000 A 
ATOM      4  C   UNL     1      43.632   2.853  11.062  0.00  0.00    +0.000 A 
ATOM      5  F   UNL     1      42.869   1.988  11.742  0.00  0.00    +0.000 F 
ATOM      6  C   UNL     1      44.379   2.399   9.978  0.00  0.00    +0.000 A 
ATOM      7  C   UNL     1      45.177   3.282   9.230  0.00  0.00    +0.000 A 
ATOM      8  C   UNL     1      45.194   4.632   9.638  0.00  0.00    +0.000 A 
BRANCH   7   9
ATOM      9  C   UNL     1      45.968   2.814   8.069  0.00  0.00    +0.000 A 
ATOM     10  C   UNL     1      46.254   3.642   6.972  0.00  0.00    +0.000 A 
ATOM     11  C   UNL     1      47.000   3.167   5.892  0.00  0.00    +0.000 A 
ATOM     12  C   UNL     1      47.460   1.865   5.933  0.00  0.00    +0.000 A 
ATOM     13  N   UNL     1      47.221   1.026   6.960  0.00  0.00    +0.000 NA
ATOM     14  C   UNL     1      46.485   1.517   7.988  0.00  0.00    +0.000 A 
ENDBRANCH   7   9
ENDBRANCH   1   2
BRANCH   1  15
ATOM     15  N   UNL     1      45.140   6.638  12.487  0.00  0.00    +0.000 N 
ATOM     16  H   UNL     1      44.751   5.987  13.167  0.00  0.00    +0.000 HD
BRANCH  15  21
ATOM     17  C   UNL     1      48.611   7.988  12.283  0.00  0.00    +0.000 A 
ATOM     18  C   UNL     1      49.224   7.090  13.144  0.00  0.00    +0.000 A 
ATOM     19  N   UNL     1      48.563   6.096  13.775  0.00  0.00    +0.000 NA
ATOM     20  C   UNL     1      47.238   5.990  13.510  0.00  0.00    +0.000 A 
ATOM     21  C   UNL     1      46.518   6.802  12.623  0.00  0.00    +0.000 A 
ATOM     22  C   UNL     1      47.243   7.837  12.026  0.00  0.00    +0.000 A 
BRANCH  17  24
ATOM     23  N   UNL     1      50.784   8.896  11.685  0.00  0.00    +0.000 N 
ATOM     24  C   UNL     1      49.426   9.047  11.656  0.00  0.00    +0.000 C 
ATOM     25  O   UNL     1      48.909  10.010  11.104  0.00  0.00    +0.000 OA
ATOM     26  H   UNL     1      51.318   9.576  11.156  0.00  0.00    +0.000 HD
ATOM     27  H   UNL     1      51.227   8.008  11.876  0.00  0.00    +0.000 HD
ENDBRANCH  17  24
ENDBRANCH  15  21
ENDBRANCH   1  15
TORSDOF 5
ENDMDL
MODEL 6
REMARK VINA RESULT:    -7.697      2.231      2.740
REMARK INTER + INTRA:         -10.713
REMARK INTER:                 -10.624
REMARK INTRA:                  -0.089
REMARK UNBOUND:                -0.766
REMARK  Name = 
REMARK  5 active torsions:
REMARK  status: ('A' for Active; 'I' for Inactive)
REMARK    1  A    between atoms: C_2  and  C_4
REMARK    2  A    between atoms: C_8  and  N_9
REMARK    3  A    between atoms: N_9  and  C_10
REMARK    4  A    between atoms: C_10  and  C_11
REMARK    5  A    between atoms: C_16  and  C_17
REMARK                            x       y       z     vdW  Elec       q    Type
REMARK                         _______ _______ _______ _____ _____    ______ ____
ROOT
ATOM      1  C   UNL     1      44.154   3.180  11.729  0.00  0.00    +0.000 C 
ENDROOT
BRANCH   1   2
ATOM      2  C   UNL     1      44.488   4.650  11.775  0.00  0.00    +0.000 A 
ATOM      3  C   UNL     1      43.531   5.607  11.429  0.00  0.00    +0.000 A 
ATOM      4  C   UNL     1      43.864   6.952  11.467  0.00  0.00    +0.000 A 
ATOM      5  F   UNL     1      42.945   7.864  11.126  0.00  0.00    +0.000 F 
ATOM      6  C   UNL     1      45.137   7.373  11.846  0.00  0.00    +0.000 A 
ATOM      7  C   UNL     1      46.121   6.445  12.226  0.00  0.00    +0.000 A 
ATOM      8  C   UNL     1      45.764   5.081  12.191  0.00  0.00    +0.000 A 
BRANCH   7   9
ATOM      9  C   UNL     1      47.475   6.880  12.641  0.00  0.00    +0.000 A 
ATOM     10  C   UNL     1      48.282   7.697  11.835  0.00  0.00    +0.000 A 
ATOM     11  C   UNL     1      49.555   8.084  12.257  0.00  0.00    +0.000 A 
ATOM     12  C   UNL     1      49.997   7.654  13.492  0.00  0.00    +0.000 A 
ATOM     13  N   UNL     1      49.266   6.873  14.311  0.00  0.00    +0.000 NA
ATOM     14  C   UNL     1      48.038   6.506  13.865  0.00  0.00    +0.000 A 
ENDBRANCH   7   9
ENDBRANCH   1   2
BRANCH   1  15
ATOM     15  N   UNL     1      43.904   2.780  10.354  0.00  0.00    +0.000 N 
ATOM     16  H   UNL     1      42.956   2.976  10.040  0.00  0.00    +0.000 HD
BRANCH  15  21
ATOM     17  C   UNL     1      46.501   2.279   7.724  0.00  0.00    +0.000 A 
ATOM     18  C   UNL     1      46.585   3.589   7.276  0.00  0.00    +0.000 A 
ATOM     19  N   UNL     1      45.841   4.596   7.782  0.00  0.00    +0.000 NA
ATOM     20  C   UNL     1      44.997   4.274   8.792  0.00  0.00    +0.000 A 
ATOM     21  C   UNL     1      44.860   3.001   9.363  0.00  0.00    +0.000 A 
ATOM     22  C   UNL     1      45.625   1.989   8.778  0.00  0.00    +0.000 A 
BRANCH  17  24
ATOM     23  N   UNL     1      48.418   1.684   6.354  0.00  0.00    +0.000 N 
ATOM     24  C   UNL     1      47.351   1.251   7.091  0.00  0.00    +0.000 C 
ATOM     25  O   UNL     1      47.130   0.057   7.241  0.00  0.00    +0.000 OA
ATOM     26  H   UNL     1      49.049   0.964   6.021  0.00  0.00    +0.000 HD
ATOM     27  H   UNL     1      48.787   2.621   6.435  0.00  0.00    +0.000 HD
ENDBRANCH  17  24
ENDBRANCH  15  21
ENDBRANCH   1  15
TORSDOF 5
ENDMDL
MODEL 7
REMARK VINA RESULT:    -7.547      3.550      7.396
REMARK INTER + INTRA:         -10.519
REMARK INTER:                  -9.668
REMARK INTRA:                  -0.850
REMARK UNBOUND:                -0.766
REMARK  Name = 
REMARK  5 active torsions:
REMARK  status: ('A' for Active; 'I' for Inactive)
REMARK    1  A    between atoms: C_2  and  C_4
REMARK    2  A    between atoms: C_8  and  N_9
REMARK    3  A    between atoms: N_9  and  C_10
REMARK    4  A    between atoms: C_10  and  C_11
REMARK    5  A    between atoms: C_16  and  C_17
REMARK                            x       y       z     vdW  Elec       q    Type
REMARK                         _______ _______ _______ _____ _____    ______ ____
ROOT
ATOM      1  C   UNL     1      46.110   7.650  11.977  0.00  0.00    +0.000 C 
ENDROOT
BRANCH   1   2
ATOM      2  C   UNL     1      45.236   6.564  11.402  0.00  0.00    +0.000 A 
ATOM      3  C   UNL     1      43.887   6.477  11.757  0.00  0.00    +0.000 A 
ATOM      4  C   UNL     1      43.105   5.463  11.225  0.00  0.00    +0.000 A 
ATOM      5  F   UNL     1      41.815   5.379  11.575  0.00  0.00    +0.000 F 
ATOM      6  C   UNL     1      43.634   4.528  10.339  0.00  0.00    +0.000 A 
ATOM      7  C   UNL     1      44.978   4.595   9.936  0.00  0.00    +0.000 A 
ATOM      8  C   UNL     1      45.759   5.637  10.479  0.00  0.00    +0.000 A 
BRANCH   7   9
ATOM      9  C   UNL     1      45.551   3.613   8.987  0.00  0.00    +0.000 A 
ATOM     10  C   UNL     1      46.222   4.002   7.817  0.00  0.00    +0.000 A 
ATOM     11  C   UNL     1      46.747   3.050   6.942  0.00  0.00    +0.000 A 
ATOM     12  C   UNL     1      46.600   1.713   7.261  0.00  0.00    +0.000 A 
ATOM     13  N   UNL     1      45.970   1.281   8.370  0.00  0.00    +0.000 NA
ATOM     14  C   UNL     1      45.463   2.233   9.193  0.00  0.00    +0.000 A 
ENDBRANCH   7   9
ENDBRANCH   1   2
BRANCH   1  15
ATOM     15  N   UNL     1      47.449   7.129  12.200  0.00  0.00    +0.000 N 
ATOM     16  H   UNL     1      48.163   7.591  11.641  0.00  0.00    +0.000 HD
BRANCH  15  21
ATOM     17  C   UNL     1      47.948   5.443  15.489  0.00  0.00    +0.000 A 
ATOM     18  C   UNL     1      48.997   6.221  15.955  0.00  0.00    +0.000 A 
ATOM     19  N   UNL     1      49.535   7.240  15.250  0.00  0.00    +0.000 NA
ATOM     20  C   UNL     1      48.979   7.497  14.041  0.00  0.00    +0.000 A 
ATOM     21  C   UNL     1      47.887   6.815  13.487  0.00  0.00    +0.000 A 
ATOM     22  C   UNL     1      47.393   5.747  14.240  0.00  0.00    +0.000 A 
BRANCH  17  24
ATOM     23  N   UNL     1      47.016   4.663  17.594  0.00  0.00    +0.000 N 
ATOM     24  C   UNL     1      47.444   4.343  16.336  0.00  0.00    +0.000 C 
ATOM     25  O   UNL     1      47.383   3.193  15.921  0.00  0.00    +0.000 OA
ATOM     26  H   UNL     1      46.575   3.915  18.116  0.00  0.00    +0.000 HD
ATOM     27  H   UNL     1      46.795   5.610  17.866  0.00  0.00    +0.000 HD
ENDBRANCH  17  24
ENDBRANCH  15  21
ENDBRANCH   1  15
TORSDOF 5
ENDMDL
MODEL 8
REMARK VINA RESULT:    -7.162      2.818      4.060
REMARK INTER + INTRA:         -10.021
REMARK INTER:                  -9.737
REMARK INTRA:                  -0.284
REMARK UNBOUND:                -0.766
REMARK  Name = 
REMARK  5 active torsions:
REMARK  status: ('A' for Active; 'I' for Inactive)
REMARK    1  A    between atoms: C_2  and  C_4
REMARK    2  A    between atoms: C_8  and  N_9
REMARK    3  A    between atoms: N_9  and  C_10
REMARK    4  A    between atoms: C_10  and  C_11
REMARK    5  A    between atoms: C_16  and  C_17
REMARK                            x       y       z     vdW  Elec       q    Type
REMARK                         _______ _______ _______ _____ _____    ______ ____
ROOT
ATOM      1  C   UNL     1      43.970   3.250  11.764  0.00  0.00    +0.000 C 
ENDROOT
BRANCH   1   2
ATOM      2  C   UNL     1      44.892   4.279  12.369  0.00  0.00    +0.000 A 
ATOM      3  C   UNL     1      44.959   5.571  11.842  0.00  0.00    +0.000 A 
ATOM      4  C   UNL     1      45.822   6.496  12.408  0.00  0.00    +0.000 A 
ATOM      5  F   UNL     1      45.888   7.731  11.893  0.00  0.00    +0.000 F 
ATOM      6  C   UNL     1      46.627   6.167  13.496  0.00  0.00    +0.000 A 
ATOM      7  C   UNL     1      46.572   4.886  14.073  0.00  0.00    +0.000 A 
ATOM      8  C   UNL     1      45.682   3.959  13.492  0.00  0.00    +0.000 A 
BRANCH   7   9
ATOM      9  C   UNL     1      47.414   4.526  15.237  0.00  0.00    +0.000 A 
ATOM     10  C   UNL     1      47.602   3.196  15.646  0.00  0.00    +0.000 A 
ATOM     11  C   UNL     1      48.400   2.893  16.750  0.00  0.00    +0.000 A 
ATOM     12  C   UNL     1      49.009   3.932  17.426  0.00  0.00    +0.000 A 
ATOM     13  N   UNL     1      48.869   5.226  17.078  0.00  0.00    +0.000 NA
ATOM     14  C   UNL     1      48.079   5.486  16.006  0.00  0.00    +0.000 A 
ENDBRANCH   7   9
ENDBRANCH   1   2
BRANCH   1  15
ATOM     15  N   UNL     1      43.735   3.571  10.366  0.00  0.00    +0.000 N 
ATOM     16  H   UNL     1      43.159   4.400  10.230  0.00  0.00    +0.000 HD
BRANCH  15  21
ATOM     17  C   UNL     1      46.292   2.226   8.008  0.00  0.00    +0.000 A 
ATOM     18  C   UNL     1      46.669   3.423   7.419  0.00  0.00    +0.000 A 
ATOM     19  N   UNL     1      46.127   4.616   7.748  0.00  0.00    +0.000 NA
ATOM     20  C   UNL     1      45.187   4.602   8.725  0.00  0.00    +0.000 A 
ATOM     21  C   UNL     1      44.762   3.467   9.428  0.00  0.00    +0.000 A 
ATOM     22  C   UNL     1      45.327   2.255   9.022  0.00  0.00    +0.000 A 
BRANCH  17  24
ATOM     23  N   UNL     1      47.973   1.084   6.674  0.00  0.00    +0.000 N 
ATOM     24  C   UNL     1      46.939   0.975   7.562  0.00  0.00    +0.000 C 
ATOM     25  O   UNL     1      46.586  -0.116   7.991  0.00  0.00    +0.000 OA
ATOM     26  H   UNL     1      48.472   0.227   6.467  0.00  0.00    +0.000 HD
ATOM     27  H   UNL     1      48.463   1.954   6.517  0.00  0.00    +0.000 HD
ENDBRANCH  17  24
ENDBRANCH  15  21
ENDBRANCH   1  15
TORSDOF 5
ENDMDL
MODEL 9
REMARK VINA RESULT:    -7.052      4.630      7.970
REMARK INTER + INTRA:          -9.879
REMARK INTER:                  -9.205
REMARK INTRA:                  -0.673
REMARK UNBOUND:                -0.766
REMARK  Name = 
REMARK  5 active torsions:
REMARK  status: ('A' for Active; 'I' for Inactive)
REMARK    1  A    between atoms: C_2  and  C_4
REMARK    2  A    between atoms: C_8  and  N_9
REMARK    3  A    between atoms: N_9  and  C_10
REMARK    4  A    between atoms: C_10  and  C_11
REMARK    5  A    between atoms: C_16  and  C_17
REMARK                            x       y       z     vdW  Elec       q    Type
REMARK                         _______ _______ _______ _____ _____    ______ ____
ROOT
ATOM      1  C   UNL     1      48.496   7.443  13.666  0.00  0.00    +0.000 C 
ENDROOT
BRANCH   1   2
ATOM      2  C   UNL     1      47.224   7.451  12.857  0.00  0.00    +0.000 A 
ATOM      3  C   UNL     1      46.398   8.578  12.841  0.00  0.00    +0.000 A 
ATOM      4  C   UNL     1      45.228   8.559  12.099  0.00  0.00    +0.000 A 
ATOM      5  F   UNL     1      44.436   9.639  12.096  0.00  0.00    +0.000 F 
ATOM      6  C   UNL     1      44.855   7.437  11.362  0.00  0.00    +0.000 A 
ATOM      7  C   UNL     1      45.668   6.292  11.329  0.00  0.00    +0.000 A 
ATOM      8  C   UNL     1      46.861   6.331  12.082  0.00  0.00    +0.000 A 
BRANCH   7   9
ATOM      9  C   UNL     1      45.289   5.096  10.542  0.00  0.00    +0.000 A 
ATOM     10  C   UNL     1      45.600   4.963   9.180  0.00  0.00    +0.000 A 
ATOM     11  C   UNL     1      45.224   3.824   8.467  0.00  0.00    +0.000 A 
ATOM     12  C   UNL     1      44.548   2.823   9.138  0.00  0.00    +0.000 A 
ATOM     13  N   UNL     1      44.226   2.893  10.444  0.00  0.00    +0.000 NA
ATOM     14  C   UNL     1      44.598   4.018  11.104  0.00  0.00    +0.000 A 
ENDBRANCH   7   9
ENDBRANCH   1   2
BRANCH   1  15
ATOM     15  N   UNL     1      48.171   7.448  15.083  0.00  0.00    +0.000 N 
ATOM     16  H   UNL     1      47.195   7.668  15.275  0.00  0.00    +0.000 HD
BRANCH  15  21
ATOM     17  C   UNL     1      48.526   4.440  17.259  0.00  0.00    +0.000 A 
ATOM     18  C   UNL     1      49.897   4.503  17.463  0.00  0.00    +0.000 A 
ATOM     19  N   UNL     1      50.685   5.459  16.923  0.00  0.00    +0.000 NA
ATOM     20  C   UNL     1      50.063   6.398  16.170  0.00  0.00    +0.000 A 
ATOM     21  C   UNL     1      48.683   6.470  15.935  0.00  0.00    +0.000 A 
ATOM     22  C   UNL     1      47.920   5.437  16.484  0.00  0.00    +0.000 A 
BRANCH  17  24
ATOM     23  N   UNL     1      48.242   2.828  19.056  0.00  0.00    +0.000 N 
ATOM     24  C   UNL     1      47.761   3.343  17.885  0.00  0.00    +0.000 C 
ATOM     25  O   UNL     1      46.720   2.928  17.392  0.00  0.00    +0.000 OA
ATOM     26  H   UNL     1      47.646   2.155  19.523  0.00  0.00    +0.000 HD
ATOM     27  H   UNL     1      48.922   3.316  19.623  0.00  0.00    +0.000 HD
ENDBRANCH  17  24
ENDBRANCH  15  21
ENDBRANCH   1  15
TORSDOF 5
ENDMDL
