MODEL 1
REMARK VINA RESULT:    -7.391      0.000      0.000
REMARK INTER + INTRA:          -9.152
REMARK INTER:                  -8.687
REMARK INTRA:                  -0.465
REMARK UNBOUND:                -0.465
REMARK  Name = 
REMARK  3 active torsions:
REMARK  status: ('A' for Active; 'I' for Inactive)
REMARK    1  A    between atoms: C_2  and  C_11
REMARK    2  A    between atoms: N_3  and  C_4
REMARK    3  A    between atoms: C_4  and  C_5
REMARK                            x       y       z     vdW  Elec       q    Type
REMARK                         _______ _______ _______ _____ _____    ______ ____
ROOT
ATOM      1  O   UNL     1      43.719   4.671  10.947  0.00  0.00    +0.000 OA
ATOM      2  C   UNL     1      44.865   5.032  10.693  0.00  0.00    +0.000 C 
ATOM      3  N   UNL     1      45.422   4.852   9.457  0.00  0.00    +0.000 N 
ATOM      4  H   UNL     1      46.393   5.093   9.289  0.00  0.00    +0.000 HD
ENDROOT
BRANCH   2   5
ATOM      5  C   UNL     1      45.688   5.723  11.694  0.00  0.00    +0.000 A 
ATOM      6  C   UNL     1      45.914   7.087  11.577  0.00  0.00    +0.000 A 
ATOM      7  S   UNL     1      46.884   7.731  12.821  0.00  0.00    +0.000 S 
ATOM      8  C   UNL     1      46.998   6.217  13.588  0.00  0.00    +0.000 A 
ATOM      9  N   UNL     1      47.679   6.079  14.758  0.00  0.00    +0.000 NA
ATOM     10  C   UNL     1      47.654   4.884  15.250  0.00  0.00    +0.000 A 
ATOM     11  N   UNL     1      47.019   3.815  14.672  0.00  0.00    +0.000 N 
ATOM     12  C   UNL     1      46.368   3.898  13.464  0.00  0.00    +0.000 A 
ATOM     13  O   UNL     1      45.890   2.902  12.932  0.00  0.00    +0.000 OA
ATOM     14  C   UNL     1      46.332   5.228  12.887  0.00  0.00    +0.000 A 
ATOM     15  H   UNL     1      47.058   2.898  15.098  0.00  0.00    +0.000 HD
ENDBRANCH   2   5
BRANCH   3  16
ATOM     16  C   UNL     1      44.757   4.121   8.400  0.00  0.00    +0.000 C 
BRANCH  16  17
ATOM     17  C   UNL     1      45.607   3.010   7.847  0.00  0.00    +0.000 A 
ATOM     18  C   UNL     1      45.685   1.784   8.502  0.00  0.00    +0.000 A 
ATOM     19  N   UNL     1      46.466   0.765   8.066  0.00  0.00    +0.000 NA
ATOM     20  C   UNL     1      47.161   1.013   6.934  0.00  0.00    +0.000 A 
ATOM     21  C   UNL     1      47.074   2.220   6.261  0.00  0.00    +0.000 A 
ATOM     22  N   UNL     1      46.298   3.239   6.696  0.00  0.00    +0.000 NA
ENDBRANCH  16  17
ENDBRANCH   3  16
TORSDOF 3
ENDMDL
MODEL 2
REMARK VINA RESULT:    -6.977      1.741      3.060
REMARK INTER + INTRA:          -8.666
REMARK INTER:                  -8.112
REMARK INTRA:                  -0.554
REMARK UNBOUND:                -0.465
REMARK  Name = 
REMARK  3 active torsions:
REMARK  status: ('A' for Active; 'I' for Inactive)
REMARK    1  A    between atoms: C_2  and  C_11
REMARK    2  A    between atoms: N_3  and  C_4
REMARK    3  A    between atoms: C_4  and  C_5
REMARK                            x       y       z     vdW  Elec       q    Type
REMARK                         _______ _______ _______ _____ _____    ______ ____
ROOT
ATOM      1  O   UNL     1      45.258   2.879  12.477  0.00  0.00    +0.000 OA
ATOM      2  C   UNL     1      45.393   3.874  11.770  0.00  0.00    +0.000 C 
ATOM      3  N   UNL     1      45.104   3.856  10.433  0.00  0.00    +0.000 N 
ATOM      4  H   UNL     1      45.290   4.668   9.854  0.00  0.00    +0.000 HD
ENDROOT
BRANCH   2   5
ATOM      5  C   UNL     1      45.829   5.157  12.334  0.00  0.00    +0.000 A 
ATOM      6  C   UNL     1      46.964   5.209  13.132  0.00  0.00    +0.000 A 
ATOM      7  S   UNL     1      47.332   6.773  13.701  0.00  0.00    +0.000 S 
ATOM      8  C   UNL     1      46.014   7.446  12.861  0.00  0.00    +0.000 A 
ATOM      9  N   UNL     1      45.777   8.785  12.897  0.00  0.00    +0.000 NA
ATOM     10  C   UNL     1      44.768   9.166  12.186  0.00  0.00    +0.000 A 
ATOM     11  N   UNL     1      43.971   8.327  11.451  0.00  0.00    +0.000 N 
ATOM     12  C   UNL     1      44.141   6.963  11.431  0.00  0.00    +0.000 A 
ATOM     13  O   UNL     1      43.354   6.234  10.837  0.00  0.00    +0.000 OA
ATOM     14  C   UNL     1      45.286   6.486  12.183  0.00  0.00    +0.000 A 
ATOM     15  H   UNL     1      43.180   8.687  10.934  0.00  0.00    +0.000 HD
ENDBRANCH   2   5
BRANCH   3  16
ATOM     16  C   UNL     1      44.738   2.645   9.730  0.00  0.00    +0.000 C 
BRANCH  16  17
ATOM     17  C   UNL     1      45.629   2.376   8.548  0.00  0.00    +0.000 A 
ATOM     18  C   UNL     1      45.866   3.366   7.599  0.00  0.00    +0.000 A 
ATOM     19  N   UNL     1      46.630   3.161   6.497  0.00  0.00    +0.000 NA
ATOM     20  C   UNL     1      47.163   1.925   6.386  0.00  0.00    +0.000 A 
ATOM     21  C   UNL     1      46.954   0.940   7.335  0.00  0.00    +0.000 A 
ATOM     22  N   UNL     1      46.191   1.141   8.433  0.00  0.00    +0.000 NA
ENDBRANCH  16  17
ENDBRANCH   3  16
TORSDOF 3
ENDMDL
MODEL 3
REMARK VINA RESULT:    -6.954      1.077      1.122
REMARK INTER + INTRA:          -8.639
REMARK INTER:                  -8.058
REMARK INTRA:                  -0.581
REMARK UNBOUND:                -0.465
REMARK  Name = 
REMARK  3 active torsions:
REMARK  status: ('A' for Active; 'I' for Inactive)
REMARK    1  A    between atoms: C_2  and  C_11
REMARK    2  A    between atoms: N_3  and  C_4
REMARK    3  A    between atoms: C_4  and  C_5
REMARK                            x       y       z     vdW  Elec       q    Type
REMARK                         _______ _______ _______ _____ _____    ______ ____
ROOT
ATOM      1  O   UNL     1      44.642   6.813  10.996  0.00  0.00    +0.000 OA
ATOM      2  C   UNL     1      45.567   6.054  11.275  0.00  0.00    +0.000 C 
ATOM      3  N   UNL     1      45.805   4.912  10.560  0.00  0.00    +0.000 N 
ATOM      4  H   UNL     1      46.530   4.264  10.850  0.00  0.00    +0.000 HD
ENDROOT
BRANCH   2   5
ATOM      5  C   UNL     1      46.500   6.357  12.366  0.00  0.00    +0.000 A 
ATOM      6  C   UNL     1      47.162   7.577  12.388  0.00  0.00    +0.000 A 
ATOM      7  S   UNL     1      48.204   7.769  13.723  0.00  0.00    +0.000 S 
ATOM      8  C   UNL     1      47.771   6.246  14.347  0.00  0.00    +0.000 A 
ATOM      9  N   UNL     1      48.292   5.802  15.522  0.00  0.00    +0.000 NA
ATOM     10  C   UNL     1      47.851   4.647  15.898  0.00  0.00    +0.000 A 
ATOM     11  N   UNL     1      46.944   3.894  15.197  0.00  0.00    +0.000 N 
ATOM     12  C   UNL     1      46.436   4.279  13.979  0.00  0.00    +0.000 A 
ATOM     13  O   UNL     1      45.698   3.539  13.337  0.00  0.00    +0.000 OA
ATOM     14  C   UNL     1      46.870   5.588  13.530  0.00  0.00    +0.000 A 
ATOM     15  H   UNL     1      46.657   2.984  15.535  0.00  0.00    +0.000 HD
ENDBRANCH   2   5
BRANCH   3  16
ATOM     16  C   UNL     1      44.924   4.451   9.509  0.00  0.00    +0.000 C 
BRANCH  16  17
ATOM     17  C   UNL     1      45.592   3.460   8.594  0.00  0.00    +0.000 A 
ATOM     18  C   UNL     1      45.597   2.103   8.903  0.00  0.00    +0.000 A 
ATOM     19  N   UNL     1      46.217   1.175   8.132  0.00  0.00    +0.000 NA
ATOM     20  C   UNL     1      46.825   1.657   7.026  0.00  0.00    +0.000 A 
ATOM     21  C   UNL     1      46.807   3.001   6.696  0.00  0.00    +0.000 A 
ATOM     22  N   UNL     1      46.191   3.928   7.465  0.00  0.00    +0.000 NA
ENDBRANCH  16  17
ENDBRANCH   3  16
TORSDOF 3
ENDMDL
MODEL 4
REMARK VINA RESULT:    -6.849      3.988      7.107
REMARK INTER + INTRA:          -8.515
REMARK INTER:                  -8.067
REMARK INTRA:                  -0.448
REMARK UNBOUND:                -0.465
REMARK  Name = 
REMARK  3 active torsions:
REMARK  status: ('A' for Active; 'I' for Inactive)
REMARK    1  A    between atoms: C_2  and  C_11
REMARK    2  A    between atoms: N_3  and  C_4
REMARK    3  A    between atoms: C_4  and  C_5
REMARK                            x       y       z     vdW  Elec       q    Type
REMARK                         _______ _______ _______ _____ _____    ______ ____
ROOT
ATOM      1  O   UNL     1      47.273   3.131  14.018  0.00  0.00    +0.000 OA
ATOM      2  C   UNL     1      46.853   4.183  14.493  0.00  0.00    +0.000 C 
ATOM      3  N   UNL     1      46.892   4.436  15.837  0.00  0.00    +0.000 N 
ATOM      4  H   UNL     1      46.475   5.279  16.215  0.00  0.00    +0.000 HD
ENDROOT
BRANCH   2   5
ATOM      5  C   UNL     1      46.323   5.250  13.635  0.00  0.00    +0.000 A 
ATOM      6  C   UNL     1      47.109   6.359  13.353  0.00  0.00    +0.000 A 
ATOM      7  S   UNL     1      46.346   7.500  12.342  0.00  0.00    +0.000 S 
ATOM      8  C   UNL     1      44.955   6.529  12.206  0.00  0.00    +0.000 A 
ATOM      9  N   UNL     1      43.907   6.919  11.431  0.00  0.00    +0.000 NA
ATOM     10  C   UNL     1      42.933   6.071  11.388  0.00  0.00    +0.000 A 
ATOM     11  N   UNL     1      42.910   4.875  12.057  0.00  0.00    +0.000 N 
ATOM     12  C   UNL     1      43.923   4.468  12.894  0.00  0.00    +0.000 A 
ATOM     13  O   UNL     1      43.828   3.435  13.548  0.00  0.00    +0.000 OA
ATOM     14  C   UNL     1      45.060   5.367  12.948  0.00  0.00    +0.000 A 
ATOM     15  H   UNL     1      42.105   4.265  12.000  0.00  0.00    +0.000 HD
ENDBRANCH   2   5
BRANCH   3  16
ATOM     16  C   UNL     1      47.317   3.447  16.805  0.00  0.00    +0.000 C 
BRANCH  16  17
ATOM     17  C   UNL     1      48.780   3.564  17.140  0.00  0.00    +0.000 A 
ATOM     18  C   UNL     1      49.318   4.781  17.550  0.00  0.00    +0.000 A 
ATOM     19  N   UNL     1      50.635   4.948  17.826  0.00  0.00    +0.000 NA
ATOM     20  C   UNL     1      51.397   3.842  17.690  0.00  0.00    +0.000 A 
ATOM     21  C   UNL     1      50.870   2.621  17.305  0.00  0.00    +0.000 A 
ATOM     22  N   UNL     1      49.557   2.453  17.026  0.00  0.00    +0.000 NA
ENDBRANCH  16  17
ENDBRANCH   3  16
TORSDOF 3
ENDMDL
MODEL 5
REMARK VINA RESULT:    -6.833      3.362      6.843
REMARK INTER + INTRA:          -8.496
REMARK INTER:                  -7.964
REMARK INTRA:                  -0.532
REMARK UNBOUND:                -0.465
REMARK  Name = 
REMARK  3 active torsions:
REMARK  status: ('A' for Active; 'I' for Inactive)
REMARK    1  A    between atoms: C_2  and  C_11
REMARK    2  A    between atoms: N_3  and  C_4
REMARK    3  A    between atoms: C_4  and  C_5
REMARK                            x       y       z     vdW  Elec       q    Type
REMARK                         _______ _______ _______ _____ _____    ______ ____
ROOT
ATOM      1  O   UNL     1      48.819   6.087  12.971  0.00  0.00    +0.000 OA
ATOM      2  C   UNL     1      47.728   6.189  13.525  0.00  0.00    +0.000 C 
ATOM      3  N   UNL     1      47.618   6.420  14.869  0.00  0.00    +0.000 N 
ATOM      4  H   UNL     1      46.709   6.430  15.319  0.00  0.00    +0.000 HD
ENDROOT
BRANCH   2   5
ATOM      5  C   UNL     1      46.475   6.113  12.765  0.00  0.00    +0.000 A 
ATOM      6  C   UNL     1      45.965   7.254  12.161  0.00  0.00    +0.000 A 
ATOM      7  S   UNL     1      44.508   6.991  11.316  0.00  0.00    +0.000 S 
ATOM      8  C   UNL     1      44.532   5.330  11.686  0.00  0.00    +0.000 A 
ATOM      9  N   UNL     1      43.561   4.500  11.219  0.00  0.00    +0.000 NA
ATOM     10  C   UNL     1      43.720   3.259  11.543  0.00  0.00    +0.000 A 
ATOM     11  N   UNL     1      44.758   2.778  12.300  0.00  0.00    +0.000 N 
ATOM     12  C   UNL     1      45.729   3.590  12.837  0.00  0.00    +0.000 A 
ATOM     13  O   UNL     1      46.591   3.139  13.584  0.00  0.00    +0.000 OA
ATOM     14  C   UNL     1      45.618   4.989  12.470  0.00  0.00    +0.000 A 
ATOM     15  H   UNL     1      44.812   1.797  12.539  0.00  0.00    +0.000 HD
ENDBRANCH   2   5
BRANCH   3  16
ATOM     16  C   UNL     1      48.764   6.444  15.753  0.00  0.00    +0.000 C 
BRANCH  16  17
ATOM     17  C   UNL     1      48.871   5.195  16.586  0.00  0.00    +0.000 A 
ATOM     18  C   UNL     1      47.729   4.494  16.963  0.00  0.00    +0.000 A 
ATOM     19  N   UNL     1      47.770   3.386  17.744  0.00  0.00    +0.000 NA
ATOM     20  C   UNL     1      49.005   2.994  18.125  0.00  0.00    +0.000 A 
ATOM     21  C   UNL     1      50.149   3.668  17.738  0.00  0.00    +0.000 A 
ATOM     22  N   UNL     1      50.111   4.775  16.961  0.00  0.00    +0.000 NA
ENDBRANCH  16  17
ENDBRANCH   3  16
TORSDOF 3
ENDMDL
MODEL 6
REMARK VINA RESULT:    -6.535      2.399      3.855
REMARK INTER + INTRA:          -8.146
REMARK INTER:                  -7.737
REMARK INTRA:                  -0.409
REMARK UNBOUND:                -0.465
REMARK  Name = 
REMARK  3 active torsions:
REMARK  status: ('A' for Active; 'I' for Inactive)
REMARK    1  A    between atoms: C_2  and  C_11
REMARK    2  A    between atoms: N_3  and  C_4
REMARK    3  A    between atoms: C_4  and  C_5
REMARK                            x       y       z     vdW  Elec       q    Type
REMARK                         _______ _______ _______ _____ _____    ______ ____
ROOT
ATOM      1  O   UNL     1      46.728   3.065  13.710  0.00  0.00    +0.000 OA
ATOM      2  C   UNL     1      46.481   4.249  13.919  0.00  0.00    +0.000 C 
ATOM      3  N   UNL     1      45.336   4.841  13.459  0.00  0.00    +0.000 N 
ATOM      4  H   UNL     1      45.186   5.837  13.582  0.00  0.00    +0.000 HD
ENDROOT
BRANCH   2   5
ATOM      5  C   UNL     1      47.384   5.087  14.717  0.00  0.00    +0.000 A 
ATOM      6  C   UNL     1      48.055   6.143  14.115  0.00  0.00    +0.000 A 
ATOM      7  S   UNL     1      49.058   7.016  15.182  0.00  0.00    +0.000 S 
ATOM      8  C   UNL     1      48.594   6.043  16.498  0.00  0.00    +0.000 A 
ATOM      9  N   UNL     1      49.075   6.286  17.747  0.00  0.00    +0.000 NA
ATOM     10  C   UNL     1      48.612   5.496  18.659  0.00  0.00    +0.000 A 
ATOM     11  N   UNL     1      47.721   4.480  18.431  0.00  0.00    +0.000 N 
ATOM     12  C   UNL     1      47.253   4.165  17.177  0.00  0.00    +0.000 A 
ATOM     13  O   UNL     1      46.528   3.192  16.997  0.00  0.00    +0.000 OA
ATOM     14  C   UNL     1      47.711   5.047  16.121  0.00  0.00    +0.000 A 
ATOM     15  H   UNL     1      47.415   3.881  19.187  0.00  0.00    +0.000 HD
ENDBRANCH   2   5
BRANCH   3  16
ATOM     16  C   UNL     1      44.396   4.158  12.599  0.00  0.00    +0.000 C 
BRANCH  16  17
ATOM     17  C   UNL     1      44.801   4.209  11.150  0.00  0.00    +0.000 A 
ATOM     18  C   UNL     1      45.382   5.357  10.617  0.00  0.00    +0.000 A 
ATOM     19  N   UNL     1      45.730   5.467   9.311  0.00  0.00    +0.000 NA
ATOM     20  C   UNL     1      45.486   4.375   8.555  0.00  0.00    +0.000 A 
ATOM     21  C   UNL     1      44.931   3.220   9.078  0.00  0.00    +0.000 A 
ATOM     22  N   UNL     1      44.580   3.109  10.380  0.00  0.00    +0.000 NA
ENDBRANCH  16  17
ENDBRANCH   3  16
TORSDOF 3
ENDMDL
MODEL 7
REMARK VINA RESULT:    -6.438      3.275      4.624
REMARK INTER + INTRA:          -8.032
REMARK INTER:                  -7.431
REMARK INTRA:                  -0.601
REMARK UNBOUND:                -0.465
REMARK  Name = 
REMARK  3 active torsions:
REMARK  status: ('A' for Active; 'I' for Inactive)
REMARK    1  A    between atoms: C_2  and  C_11
REMARK    2  A    between atoms: N_3  and  C_4
REMARK    3  A    between atoms: C_4  and  C_5
REMARK                            x       y       z     vdW  Elec       q    Type
REMARK                         _______ _______ _______ _____ _____    ______ ____
ROOT
ATOM      1  O   UNL     1      48.625   6.204  12.924  0.00  0.00    +0.000 OA
ATOM      2  C   UNL     1      47.833   6.152  13.861  0.00  0.00    +0.000 C 
ATOM      3  N   UNL     1      46.481   6.100  13.661  0.00  0.00    +0.000 N 
ATOM      4  H   UNL     1      45.842   6.129  14.449  0.00  0.00    +0.000 HD
ENDROOT
BRANCH   2   5
ATOM      5  C   UNL     1      48.299   6.094  15.251  0.00  0.00    +0.000 A 
ATOM      6  C   UNL     1      48.853   7.223  15.839  0.00  0.00    +0.000 A 
ATOM      7  S   UNL     1      49.337   6.987  17.456  0.00  0.00    +0.000 S 
ATOM      8  C   UNL     1      48.780   5.380  17.444  0.00  0.00    +0.000 A 
ATOM      9  N   UNL     1      48.863   4.606  18.560  0.00  0.00    +0.000 NA
ATOM     10  C   UNL     1      48.370   3.420  18.423  0.00  0.00    +0.000 A 
ATOM     11  N   UNL     1      47.809   2.937  17.269  0.00  0.00    +0.000 N 
ATOM     12  C   UNL     1      47.755   3.665  16.104  0.00  0.00    +0.000 A 
ATOM     13  O   UNL     1      47.330   3.170  15.065  0.00  0.00    +0.000 OA
ATOM     14  C   UNL     1      48.261   5.020  16.214  0.00  0.00    +0.000 A 
ATOM     15  H   UNL     1      47.462   1.988  17.220  0.00  0.00    +0.000 HD
ENDBRANCH   2   5
BRANCH   3  16
ATOM     16  C   UNL     1      45.879   6.224  12.351  0.00  0.00    +0.000 C 
BRANCH  16  17
ATOM     17  C   UNL     1      45.003   5.049  12.009  0.00  0.00    +0.000 A 
ATOM     18  C   UNL     1      44.371   4.320  13.012  0.00  0.00    +0.000 A 
ATOM     19  N   UNL     1      43.603   3.232  12.758  0.00  0.00    +0.000 NA
ATOM     20  C   UNL     1      43.479   2.904  11.454  0.00  0.00    +0.000 A 
ATOM     21  C   UNL     1      44.084   3.635  10.446  0.00  0.00    +0.000 A 
ATOM     22  N   UNL     1      44.852   4.719  10.697  0.00  0.00    +0.000 NA
ENDBRANCH  16  17
ENDBRANCH   3  16
TORSDOF 3
ENDMDL
MODEL 8
REMARK VINA RESULT:    -6.067      3.655      6.937
REMARK INTER + INTRA:          -7.597
REMARK INTER:                  -7.041
REMARK INTRA:                  -0.556
REMARK UNBOUND:                -0.465
REMARK  Name = 
REMARK  3 active torsions:
REMARK  status: ('A' for Active; 'I' for Inactive)
REMARK    1  A    between atoms: C_2  and  C_11
REMARK    2  A    between atoms: N_3  and  C_4
REMARK    3  A    between atoms: C_4  and  C_5
REMARK                            x       y       z     vdW  Elec       q    Type
REMARK                         _______ _______ _______ _____ _____    ______ ____
ROOT
ATOM      1  O   UNL     1      46.248   6.408  13.310  0.00  0.00    +0.000 OA
ATOM      2  C   UNL     1      45.338   6.364  12.487  0.00  0.00    +0.000 C 
ATOM      3  N   UNL     1      44.798   7.499  11.946  0.00  0.00    +0.000 N 
ATOM      4  H   UNL     1      44.000   7.443  11.322  0.00  0.00    +0.000 HD
ENDROOT
BRANCH   2   5
ATOM      5  C   UNL     1      44.809   5.084  12.001  0.00  0.00    +0.000 A 
ATOM      6  C   UNL     1      44.071   4.276  12.855  0.00  0.00    +0.000 A 
ATOM      7  S   UNL     1      43.529   2.830  12.133  0.00  0.00    +0.000 S 
ATOM      8  C   UNL     1      44.220   3.255  10.638  0.00  0.00    +0.000 A 
ATOM      9  N   UNL     1      44.085   2.445   9.553  0.00  0.00    +0.000 NA
ATOM     10  C   UNL     1      44.626   2.906   8.474  0.00  0.00    +0.000 A 
ATOM     11  N   UNL     1      45.296   4.099   8.386  0.00  0.00    +0.000 N 
ATOM     12  C   UNL     1      45.503   4.921   9.469  0.00  0.00    +0.000 A 
ATOM     13  O   UNL     1      46.186   5.935   9.373  0.00  0.00    +0.000 OA
ATOM     14  C   UNL     1      44.882   4.468  10.699  0.00  0.00    +0.000 A 
ATOM     15  H   UNL     1      45.718   4.392   7.514  0.00  0.00    +0.000 HD
ENDBRANCH   2   5
BRANCH   3  16
ATOM     16  C   UNL     1      45.169   8.826  12.386  0.00  0.00    +0.000 C 
BRANCH  16  17
ATOM     17  C   UNL     1      44.433   9.905  11.638  0.00  0.00    +0.000 A 
ATOM     18  C   UNL     1      43.433   9.579  10.726  0.00  0.00    +0.000 A 
ATOM     19  N   UNL     1      42.767  10.511  10.000  0.00  0.00    +0.000 NA
ATOM     20  C   UNL     1      43.131  11.791  10.231  0.00  0.00    +0.000 A 
ATOM     21  C   UNL     1      44.108  12.129  11.152  0.00  0.00    +0.000 A 
ATOM     22  N   UNL     1      44.775  11.201  11.875  0.00  0.00    +0.000 NA
ENDBRANCH  16  17
ENDBRANCH   3  16
TORSDOF 3
ENDMDL
MODEL 9
REMARK VINA RESULT:    -6.046      2.131      2.656
REMARK INTER + INTRA:          -7.571
REMARK INTER:                  -7.341
REMARK INTRA:                  -0.230
REMARK UNBOUND:                -0.465
REMARK  Name = 
REMARK  3 active torsions:
REMARK  status: ('A' for Active; 'I' for Inactive)
REMARK    1  A    between atoms: C_2  and  C_11
REMARK    2  A    between atoms: N_3  and  C_4
REMARK    3  A    between atoms: C_4  and  C_5
REMARK                            x       y       z     vdW  Elec       q    Type
REMARK                         _______ _______ _______ _____ _____    ______ ____
ROOT
ATOM      1  O   UNL     1      45.433   6.582  11.220  0.00  0.00    +0.000 OA
ATOM      2  C   UNL     1      45.739   5.514  11.742  0.00  0.00    +0.000 C 
ATOM      3  N   UNL     1      45.436   4.312  11.163  0.00  0.00    +0.000 N 
ATOM      4  H   UNL     1      45.635   3.442  11.645  0.00  0.00    +0.000 HD
ENDROOT
BRANCH   2   5
ATOM      5  C   UNL     1      46.492   5.468  13.001  0.00  0.00    +0.000 A 
ATOM      6  C   UNL     1      46.122   4.570  13.993  0.00  0.00    +0.000 A 
ATOM      7  S   UNL     1      47.101   4.645  15.386  0.00  0.00    +0.000 S 
ATOM      8  C   UNL     1      48.085   5.848  14.695  0.00  0.00    +0.000 A 
ATOM      9  N   UNL     1      49.160   6.340  15.369  0.00  0.00    +0.000 NA
ATOM     10  C   UNL     1      49.841   7.220  14.714  0.00  0.00    +0.000 A 
ATOM     11  N   UNL     1      49.539   7.659  13.450  0.00  0.00    +0.000 N 
ATOM     12  C   UNL     1      48.432   7.229  12.756  0.00  0.00    +0.000 A 
ATOM     13  O   UNL     1      48.141   7.710  11.666  0.00  0.00    +0.000 OA
ATOM     14  C   UNL     1      47.653   6.210  13.432  0.00  0.00    +0.000 A 
ATOM     15  H   UNL     1      50.101   8.370  13.001  0.00  0.00    +0.000 HD
ENDBRANCH   2   5
BRANCH   3  16
ATOM     16  C   UNL     1      44.634   4.205   9.963  0.00  0.00    +0.000 C 
BRANCH  16  17
ATOM     17  C   UNL     1      45.365   3.513   8.844  0.00  0.00    +0.000 A 
ATOM     18  C   UNL     1      45.553   2.134   8.867  0.00  0.00    +0.000 A 
ATOM     19  N   UNL     1      46.237   1.468   7.903  0.00  0.00    +0.000 NA
ATOM     20  C   UNL     1      46.719   2.237   6.902  0.00  0.00    +0.000 A 
ATOM     21  C   UNL     1      46.519   3.605   6.857  0.00  0.00    +0.000 A 
ATOM     22  N   UNL     1      45.839   4.272   7.818  0.00  0.00    +0.000 NA
ENDBRANCH  16  17
ENDBRANCH   3  16
TORSDOF 3
ENDMDL
