MODEL 1
REMARK VINA RESULT:    -8.462      0.000      0.000
REMARK INTER + INTRA:         -12.716
REMARK INTER:                 -11.677
REMARK INTRA:                  -1.039
REMARK UNBOUND:                -1.039
REMARK  Name = 
REMARK  8 active torsions:
REMARK  status: ('A' for Active; 'I' for Inactive)
REMARK    1  A    between atoms: C_1  and  C_2
REMARK    2  A    between atoms: C_2  and  C_3
REMARK    3  A    between atoms: C_2  and  N_19
REMARK    4  A    between atoms: C_3  and  C_4
REMARK    5  A    between atoms: C_8  and  C_9
REMARK    6  A    between atoms: C_12  and  C_13
REMARK    7  A    between atoms: C_13  and  O_15
REMARK    8  A    between atoms: C_23  and  C_24
REMARK                            x       y       z     vdW  Elec       q    Type
REMARK                         _______ _______ _______ _____ _____    ______ ____
ROOT
ATOM      1  C   UNL     1      44.790   6.602  12.049  0.00  0.00    +0.000 A 
ATOM      2  C   UNL     1      43.389   6.665  12.082  0.00  0.00    +0.000 A 
ATOM      3  C   UNL     1      42.611   5.689  11.475  0.00  0.00    +0.000 A 
ATOM      4  C   UNL     1      43.219   4.688  10.733  0.00  0.00    +0.000 A 
ATOM      5  C   UNL     1      44.611   4.671  10.535  0.00  0.00    +0.000 A 
ATOM      6  C   UNL     1      45.387   5.602  11.256  0.00  0.00    +0.000 A 
ENDROOT
BRANCH   5   7
ATOM      7  C   UNL     1      45.192   3.794   9.494  0.00  0.00    +0.000 A 
ATOM      8  C   UNL     1      45.933   4.378   8.445  0.00  0.00    +0.000 A 
ATOM      9  C   UNL     1      46.589   3.612   7.483  0.00  0.00    +0.000 A 
ATOM     10  C   UNL     1      46.509   2.223   7.541  0.00  0.00    +0.000 A 
ATOM     11  C   UNL     1      45.786   1.615   8.575  0.00  0.00    +0.000 A 
ATOM     12  C   UNL     1      45.127   2.394   9.537  0.00  0.00    +0.000 A 
BRANCH  10  13
ATOM     13  C   UNL     1      47.235   1.366   6.574  0.00  0.00    +0.000 C 
ATOM     14  O   UNL     1      48.088   1.802   5.820  0.00  0.00    +0.000 OA
BRANCH  13  15
ATOM     15  O   UNL     1      46.889   0.062   6.621  0.00  0.00    +0.000 OA
ATOM     16  H   UNL     1      46.303  -0.183   7.359  0.00  0.00    +0.000 HD
ENDBRANCH  13  15
ENDBRANCH  10  13
ENDBRANCH   5   7
BRANCH   1  17
ATOM     17  C   UNL     1      45.679   7.576  12.812  0.00  0.00    +0.000 C 
BRANCH  17  19
ATOM     18  C   UNL     1      47.954   8.231  11.824  0.00  0.00    +0.000 C 
ATOM     19  C   UNL     1      47.203   7.288  12.781  0.00  0.00    +0.000 C 
BRANCH  19  20
ATOM     20  N   UNL     1      47.796   7.456  14.122  0.00  0.00    +0.000 N 
ATOM     21  C   UNL     1      47.902   6.278  14.882  0.00  0.00    +0.000 A 
ATOM     22  C   UNL     1      48.566   6.301  16.112  0.00  0.00    +0.000 A 
ATOM     23  N   UNL     1      48.689   5.221  16.928  0.00  0.00    +0.000 NA
ATOM     24  C   UNL     1      48.124   4.068  16.474  0.00  0.00    +0.000 A 
ATOM     25  C   UNL     1      47.487   4.034  15.241  0.00  0.00    +0.000 A 
ATOM     26  N   UNL     1      47.375   5.118  14.438  0.00  0.00    +0.000 NA
ATOM     27  H   UNL     1      47.342   8.172  14.682  0.00  0.00    +0.000 HD
BRANCH  24  28
ATOM     28  C   UNL     1      48.153   2.796  17.290  0.00  0.00    +0.000 C 
ATOM     29  F   UNL     1      48.864   2.881  18.448  0.00  0.00    +0.000 F 
ATOM     30  F   UNL     1      46.902   2.385  17.652  0.00  0.00    +0.000 F 
ATOM     31  F   UNL     1      48.689   1.746  16.600  0.00  0.00    +0.000 F 
ENDBRANCH  24  28
ENDBRANCH  19  20
ENDBRANCH  17  19
ENDBRANCH   1  17
TORSDOF 7
ENDMDL
MODEL 2
REMARK VINA RESULT:    -7.402      5.259      8.038
REMARK INTER + INTRA:         -11.253
REMARK INTER:                 -11.123
REMARK INTRA:                  -0.130
REMARK UNBOUND:                -1.039
REMARK  Name = 
REMARK  8 active torsions:
REMARK  status: ('A' for Active; 'I' for Inactive)
REMARK    1  A    between atoms: C_1  and  C_2
REMARK    2  A    between atoms: C_2  and  C_3
REMARK    3  A    between atoms: C_2  and  N_19
REMARK    4  A    between atoms: C_3  and  C_4
REMARK    5  A    between atoms: C_8  and  C_9
REMARK    6  A    between atoms: C_12  and  C_13
REMARK    7  A    between atoms: C_13  and  O_15
REMARK    8  A    between atoms: C_23  and  C_24
REMARK                            x       y       z     vdW  Elec       q    Type
REMARK                         _______ _______ _______ _____ _____    ______ ____
ROOT
ATOM      1  C   UNL     1      45.247   4.660  12.929  0.00  0.00    +0.000 A 
ATOM      2  C   UNL     1      46.380   3.990  13.414  0.00  0.00    +0.000 A 
ATOM      3  C   UNL     1      47.503   4.687  13.837  0.00  0.00    +0.000 A 
ATOM      4  C   UNL     1      47.554   6.064  13.685  0.00  0.00    +0.000 A 
ATOM      5  C   UNL     1      46.511   6.768  13.057  0.00  0.00    +0.000 A 
ATOM      6  C   UNL     1      45.335   6.054  12.744  0.00  0.00    +0.000 A 
ENDROOT
BRANCH   5   7
ATOM      7  C   UNL     1      46.727   8.166  12.625  0.00  0.00    +0.000 A 
ATOM      8  C   UNL     1      48.030   8.581  12.282  0.00  0.00    +0.000 A 
ATOM      9  C   UNL     1      48.296   9.853  11.777  0.00  0.00    +0.000 A 
ATOM     10  C   UNL     1      47.250  10.758  11.610  0.00  0.00    +0.000 A 
ATOM     11  C   UNL     1      45.944  10.371  11.936  0.00  0.00    +0.000 A 
ATOM     12  C   UNL     1      45.687   9.090  12.447  0.00  0.00    +0.000 A 
BRANCH  10  13
ATOM     13  C   UNL     1      47.474  12.101  11.025  0.00  0.00    +0.000 C 
ATOM     14  O   UNL     1      48.473  12.759  11.256  0.00  0.00    +0.000 OA
BRANCH  13  15
ATOM     15  O   UNL     1      46.493  12.514  10.196  0.00  0.00    +0.000 OA
ATOM     16  H   UNL     1      45.589  12.418  10.546  0.00  0.00    +0.000 HD
ENDBRANCH  13  15
ENDBRANCH  10  13
ENDBRANCH   5   7
BRANCH   1  17
ATOM     17  C   UNL     1      43.949   3.944  12.580  0.00  0.00    +0.000 C 
BRANCH  17  19
ATOM     18  C   UNL     1      42.145   5.557  11.728  0.00  0.00    +0.000 C 
ATOM     19  C   UNL     1      43.175   4.478  11.347  0.00  0.00    +0.000 C 
BRANCH  19  20
ATOM     20  N   UNL     1      44.101   5.079  10.367  0.00  0.00    +0.000 N 
ATOM     21  C   UNL     1      44.777   4.163   9.541  0.00  0.00    +0.000 A 
ATOM     22  C   UNL     1      45.577   4.628   8.495  0.00  0.00    +0.000 A 
ATOM     23  N   UNL     1      46.292   3.820   7.668  0.00  0.00    +0.000 NA
ATOM     24  C   UNL     1      46.182   2.483   7.906  0.00  0.00    +0.000 A 
ATOM     25  C   UNL     1      45.368   2.015   8.929  0.00  0.00    +0.000 A 
ATOM     26  N   UNL     1      44.660   2.834   9.741  0.00  0.00    +0.000 NA
ATOM     27  H   UNL     1      44.778   5.713  10.781  0.00  0.00    +0.000 HD
BRANCH  24  28
ATOM     28  C   UNL     1      46.945   1.467   7.089  0.00  0.00    +0.000 C 
ATOM     29  F   UNL     1      46.752   1.559   5.744  0.00  0.00    +0.000 F 
ATOM     30  F   UNL     1      48.295   1.561   7.277  0.00  0.00    +0.000 F 
ATOM     31  F   UNL     1      46.626   0.182   7.423  0.00  0.00    +0.000 F 
ENDBRANCH  24  28
ENDBRANCH  19  20
ENDBRANCH  17  19
ENDBRANCH   1  17
TORSDOF 7
ENDMDL
MODEL 3
REMARK VINA RESULT:    -7.164      3.932      4.469
REMARK INTER + INTRA:         -10.925
REMARK INTER:                  -9.891
REMARK INTRA:                  -1.035
REMARK UNBOUND:                -1.039
REMARK  Name = 
REMARK  8 active torsions:
REMARK  status: ('A' for Active; 'I' for Inactive)
REMARK    1  A    between atoms: C_1  and  C_2
REMARK    2  A    between atoms: C_2  and  C_3
REMARK    3  A    between atoms: C_2  and  N_19
REMARK    4  A    between atoms: C_3  and  C_4
REMARK    5  A    between atoms: C_8  and  C_9
REMARK    6  A    between atoms: C_12  and  C_13
REMARK    7  A    between atoms: C_13  and  O_15
REMARK    8  A    between atoms: C_23  and  C_24
REMARK                            x       y       z     vdW  Elec       q    Type
REMARK                         _______ _______ _______ _____ _____    ______ ____
ROOT
ATOM      1  C   UNL     1      44.449   6.271  12.255  0.00  0.00    +0.000 A 
ATOM      2  C   UNL     1      43.152   5.819  12.539  0.00  0.00    +0.000 A 
ATOM      3  C   UNL     1      42.667   4.637  11.997  0.00  0.00    +0.000 A 
ATOM      4  C   UNL     1      43.434   3.936  11.078  0.00  0.00    +0.000 A 
ATOM      5  C   UNL     1      44.675   4.430  10.638  0.00  0.00    +0.000 A 
ATOM      6  C   UNL     1      45.195   5.568  11.288  0.00  0.00    +0.000 A 
ENDROOT
BRANCH   5   7
ATOM      7  C   UNL     1      45.314   3.840   9.441  0.00  0.00    +0.000 A 
ATOM      8  C   UNL     1      45.907   4.699   8.491  0.00  0.00    +0.000 A 
ATOM      9  C   UNL     1      46.610   4.214   7.389  0.00  0.00    +0.000 A 
ATOM     10  C   UNL     1      46.728   2.840   7.201  0.00  0.00    +0.000 A 
ATOM     11  C   UNL     1      46.156   1.963   8.131  0.00  0.00    +0.000 A 
ATOM     12  C   UNL     1      45.448   2.460   9.236  0.00  0.00    +0.000 A 
BRANCH  10  13
ATOM     13  C   UNL     1      47.512   2.278   6.075  0.00  0.00    +0.000 C 
ATOM     14  O   UNL     1      48.140   1.237   6.168  0.00  0.00    +0.000 OA
BRANCH  13  15
ATOM     15  O   UNL     1      47.447   3.003   4.939  0.00  0.00    +0.000 OA
ATOM     16  H   UNL     1      47.603   3.957   5.049  0.00  0.00    +0.000 HD
ENDBRANCH  13  15
ENDBRANCH  10  13
ENDBRANCH   5   7
BRANCH   1  17
ATOM     17  C   UNL     1      45.066   7.489  12.929  0.00  0.00    +0.000 C 
BRANCH  17  19
ATOM     18  C   UNL     1      44.508   9.456  11.380  0.00  0.00    +0.000 C 
ATOM     19  C   UNL     1      45.624   8.590  11.990  0.00  0.00    +0.000 C 
BRANCH  19  20
ATOM     20  N   UNL     1      46.534   9.493  12.722  0.00  0.00    +0.000 N 
ATOM     21  C   UNL     1      47.904   9.277  12.494  0.00  0.00    +0.000 A 
ATOM     22  C   UNL     1      48.847  10.156  13.034  0.00  0.00    +0.000 A 
ATOM     23  N   UNL     1      50.191  10.009  12.893  0.00  0.00    +0.000 NA
ATOM     24  C   UNL     1      50.595   8.931  12.166  0.00  0.00    +0.000 A 
ATOM     25  C   UNL     1      49.662   8.069  11.606  0.00  0.00    +0.000 A 
ATOM     26  N   UNL     1      48.326   8.232  11.753  0.00  0.00    +0.000 NA
ATOM     27  H   UNL     1      46.364   9.518  13.724  0.00  0.00    +0.000 HD
BRANCH  24  28
ATOM     28  C   UNL     1      52.059   8.621  11.955  0.00  0.00    +0.000 C 
ATOM     29  F   UNL     1      52.803   9.671  11.511  0.00  0.00    +0.000 F 
ATOM     30  F   UNL     1      52.668   8.194  13.101  0.00  0.00    +0.000 F 
ATOM     31  F   UNL     1      52.255   7.617  11.050  0.00  0.00    +0.000 F 
ENDBRANCH  24  28
ENDBRANCH  19  20
ENDBRANCH  17  19
ENDBRANCH   1  17
TORSDOF 7
ENDMDL
MODEL 4
REMARK VINA RESULT:    -7.081      5.075      7.443
REMARK INTER + INTRA:         -10.811
REMARK INTER:                  -9.529
REMARK INTRA:                  -1.283
REMARK UNBOUND:                -1.039
REMARK  Name = 
REMARK  8 active torsions:
REMARK  status: ('A' for Active; 'I' for Inactive)
REMARK    1  A    between atoms: C_1  and  C_2
REMARK    2  A    between atoms: C_2  and  C_3
REMARK    3  A    between atoms: C_2  and  N_19
REMARK    4  A    between atoms: C_3  and  C_4
REMARK    5  A    between atoms: C_8  and  C_9
REMARK    6  A    between atoms: C_12  and  C_13
REMARK    7  A    between atoms: C_13  and  O_15
REMARK    8  A    between atoms: C_23  and  C_24
REMARK                            x       y       z     vdW  Elec       q    Type
REMARK                         _______ _______ _______ _____ _____    ______ ____
ROOT
ATOM      1  C   UNL     1      47.891  10.248  11.699  0.00  0.00    +0.000 A 
ATOM      2  C   UNL     1      48.512  11.146  10.819  0.00  0.00    +0.000 A 
ATOM      3  C   UNL     1      47.786  12.128  10.161  0.00  0.00    +0.000 A 
ATOM      4  C   UNL     1      46.406  12.165  10.290  0.00  0.00    +0.000 A 
ATOM      5  C   UNL     1      45.717  11.189  11.032  0.00  0.00    +0.000 A 
ATOM      6  C   UNL     1      46.485  10.275  11.783  0.00  0.00    +0.000 A 
ENDROOT
BRANCH   5   7
ATOM      7  C   UNL     1      44.249  11.063  10.893  0.00  0.00    +0.000 A 
ATOM      8  C   UNL     1      43.689   9.784  10.694  0.00  0.00    +0.000 A 
ATOM      9  C   UNL     1      42.312   9.575  10.649  0.00  0.00    +0.000 A 
ATOM     10  C   UNL     1      41.448  10.658  10.792  0.00  0.00    +0.000 A 
ATOM     11  C   UNL     1      41.976  11.939  10.998  0.00  0.00    +0.000 A 
ATOM     12  C   UNL     1      43.364  12.141  11.039  0.00  0.00    +0.000 A 
BRANCH  10  13
ATOM     13  C   UNL     1      39.977  10.478  10.808  0.00  0.00    +0.000 C 
ATOM     14  O   UNL     1      39.215  11.256  10.261  0.00  0.00    +0.000 OA
BRANCH  13  15
ATOM     15  O   UNL     1      39.562   9.369  11.454  0.00  0.00    +0.000 OA
ATOM     16  H   UNL     1      40.053   8.556  11.236  0.00  0.00    +0.000 HD
ENDBRANCH  13  15
ENDBRANCH  10  13
ENDBRANCH   5   7
BRANCH   1  17
ATOM     17  C   UNL     1      48.667   9.243  12.541  0.00  0.00    +0.000 C 
BRANCH  17  19
ATOM     18  C   UNL     1      50.267   7.573  11.431  0.00  0.00    +0.000 C 
ATOM     19  C   UNL     1      48.836   7.823  11.940  0.00  0.00    +0.000 C 
BRANCH  19  20
ATOM     20  N   UNL     1      48.539   6.788  12.949  0.00  0.00    +0.000 N 
ATOM     21  C   UNL     1      47.280   6.174  12.825  0.00  0.00    +0.000 A 
ATOM     22  C   UNL     1      46.949   5.093  13.646  0.00  0.00    +0.000 A 
ATOM     23  N   UNL     1      45.747   4.460  13.620  0.00  0.00    +0.000 NA
ATOM     24  C   UNL     1      44.846   4.936  12.716  0.00  0.00    +0.000 A 
ATOM     25  C   UNL     1      45.179   5.993  11.880  0.00  0.00    +0.000 A 
ATOM     26  N   UNL     1      46.383   6.611  11.917  0.00  0.00    +0.000 NA
ATOM     27  H   UNL     1      48.660   7.105  13.907  0.00  0.00    +0.000 HD
BRANCH  24  28
ATOM     28  C   UNL     1      43.457   4.353  12.598  0.00  0.00    +0.000 C 
ATOM     29  F   UNL     1      43.375   3.022  12.876  0.00  0.00    +0.000 F 
ATOM     30  F   UNL     1      42.566   4.962  13.436  0.00  0.00    +0.000 F 
ATOM     31  F   UNL     1      42.932   4.504  11.346  0.00  0.00    +0.000 F 
ENDBRANCH  24  28
ENDBRANCH  19  20
ENDBRANCH  17  19
ENDBRANCH   1  17
TORSDOF 7
ENDMDL
MODEL 5
REMARK VINA RESULT:    -7.011      5.457      8.641
REMARK INTER + INTRA:         -10.714
REMARK INTER:                  -9.776
REMARK INTRA:                  -0.938
REMARK UNBOUND:                -1.039
REMARK  Name = 
REMARK  8 active torsions:
REMARK  status: ('A' for Active; 'I' for Inactive)
REMARK    1  A    between atoms: C_1  and  C_2
REMARK    2  A    between atoms: C_2  and  C_3
REMARK    3  A    between atoms: C_2  and  N_19
REMARK    4  A    between atoms: C_3  and  C_4
REMARK    5  A    between atoms: C_8  and  C_9
REMARK    6  A    between atoms: C_12  and  C_13
REMARK    7  A    between atoms: C_13  and  O_15
REMARK    8  A    between atoms: C_23  and  C_24
REMARK                            x       y       z     vdW  Elec       q    Type
REMARK                         _______ _______ _______ _____ _____    ______ ____
ROOT
ATOM      1  C   UNL     1      45.856   6.358  12.673  0.00  0.00    +0.000 A 
ATOM      2  C   UNL     1      46.853   7.063  11.985  0.00  0.00    +0.000 A 
ATOM      3  C   UNL     1      48.185   6.984  12.367  0.00  0.00    +0.000 A 
ATOM      4  C   UNL     1      48.532   6.280  13.510  0.00  0.00    +0.000 A 
ATOM      5  C   UNL     1      47.552   5.688  14.326  0.00  0.00    +0.000 A 
ATOM      6  C   UNL     1      46.222   5.683  13.855  0.00  0.00    +0.000 A 
ENDROOT
BRANCH   5   7
ATOM      7  C   UNL     1      47.912   5.226  15.685  0.00  0.00    +0.000 A 
ATOM      8  C   UNL     1      48.868   5.956  16.423  0.00  0.00    +0.000 A 
ATOM      9  C   UNL     1      49.187   5.638  17.742  0.00  0.00    +0.000 A 
ATOM     10  C   UNL     1      48.558   4.561  18.361  0.00  0.00    +0.000 A 
ATOM     11  C   UNL     1      47.599   3.823  17.655  0.00  0.00    +0.000 A 
ATOM     12  C   UNL     1      47.286   4.148  16.326  0.00  0.00    +0.000 A 
BRANCH  10  13
ATOM     13  C   UNL     1      48.823   4.220  19.778  0.00  0.00    +0.000 C 
ATOM     14  O   UNL     1      49.467   4.944  20.518  0.00  0.00    +0.000 OA
BRANCH  13  15
ATOM     15  O   UNL     1      48.269   3.058  20.181  0.00  0.00    +0.000 OA
ATOM     16  H   UNL     1      47.433   3.148  20.672  0.00  0.00    +0.000 HD
ENDBRANCH  13  15
ENDBRANCH  10  13
ENDBRANCH   5   7
BRANCH   1  17
ATOM     17  C   UNL     1      44.406   6.310  12.209  0.00  0.00    +0.000 C 
BRANCH  17  19
ATOM     18  C   UNL     1      42.497   4.960  11.154  0.00  0.00    +0.000 C 
ATOM     19  C   UNL     1      44.022   5.145  11.262  0.00  0.00    +0.000 C 
BRANCH  19  20
ATOM     20  N   UNL     1      44.535   5.385   9.899  0.00  0.00    +0.000 N 
ATOM     21  C   UNL     1      45.091   4.263   9.261  0.00  0.00    +0.000 A 
ATOM     22  C   UNL     1      45.488   4.347   7.924  0.00  0.00    +0.000 A 
ATOM     23  N   UNL     1      46.064   3.326   7.236  0.00  0.00    +0.000 NA
ATOM     24  C   UNL     1      46.235   2.167   7.931  0.00  0.00    +0.000 A 
ATOM     25  C   UNL     1      45.819   2.070   9.252  0.00  0.00    +0.000 A 
ATOM     26  N   UNL     1      45.243   3.096   9.921  0.00  0.00    +0.000 NA
ATOM     27  H   UNL     1      45.191   6.158   9.841  0.00  0.00    +0.000 HD
BRANCH  24  28
ATOM     28  C   UNL     1      46.892   0.958   7.306  0.00  0.00    +0.000 C 
ATOM     29  F   UNL     1      46.527  -0.234   7.856  0.00  0.00    +0.000 F 
ATOM     30  F   UNL     1      46.617   0.851   5.972  0.00  0.00    +0.000 F 
ATOM     31  F   UNL     1      48.254   1.004   7.389  0.00  0.00    +0.000 F 
ENDBRANCH  24  28
ENDBRANCH  19  20
ENDBRANCH  17  19
ENDBRANCH   1  17
TORSDOF 7
ENDMDL
MODEL 6
REMARK VINA RESULT:    -7.004      2.377      3.885
REMARK INTER + INTRA:         -10.705
REMARK INTER:                  -9.541
REMARK INTRA:                  -1.164
REMARK UNBOUND:                -1.039
REMARK  Name = 
REMARK  8 active torsions:
REMARK  status: ('A' for Active; 'I' for Inactive)
REMARK    1  A    between atoms: C_1  and  C_2
REMARK    2  A    between atoms: C_2  and  C_3
REMARK    3  A    between atoms: C_2  and  N_19
REMARK    4  A    between atoms: C_3  and  C_4
REMARK    5  A    between atoms: C_8  and  C_9
REMARK    6  A    between atoms: C_12  and  C_13
REMARK    7  A    between atoms: C_13  and  O_15
REMARK    8  A    between atoms: C_23  and  C_24
REMARK                            x       y       z     vdW  Elec       q    Type
REMARK                         _______ _______ _______ _____ _____    ______ ____
ROOT
ATOM      1  C   UNL     1      47.698   9.480  12.394  0.00  0.00    +0.000 A 
ATOM      2  C   UNL     1      46.920  10.581  12.008  0.00  0.00    +0.000 A 
ATOM      3  C   UNL     1      45.558  10.453  11.771  0.00  0.00    +0.000 A 
ATOM      4  C   UNL     1      44.968   9.199  11.816  0.00  0.00    +0.000 A 
ATOM      5  C   UNL     1      45.733   8.041  12.041  0.00  0.00    +0.000 A 
ATOM      6  C   UNL     1      47.089   8.210  12.393  0.00  0.00    +0.000 A 
ENDROOT
BRANCH   5   7
ATOM      7  C   UNL     1      45.146   6.711  11.770  0.00  0.00    +0.000 A 
ATOM      8  C   UNL     1      45.514   6.030  10.590  0.00  0.00    +0.000 A 
ATOM      9  C   UNL     1      45.077   4.735  10.313  0.00  0.00    +0.000 A 
ATOM     10  C   UNL     1      44.239   4.085  11.217  0.00  0.00    +0.000 A 
ATOM     11  C   UNL     1      43.862   4.735  12.399  0.00  0.00    +0.000 A 
ATOM     12  C   UNL     1      44.305   6.039  12.668  0.00  0.00    +0.000 A 
BRANCH  10  13
ATOM     13  C   UNL     1      43.794   2.690  10.992  0.00  0.00    +0.000 C 
ATOM     14  O   UNL     1      42.916   2.166  11.656  0.00  0.00    +0.000 OA
BRANCH  13  15
ATOM     15  O   UNL     1      44.425   2.064   9.977  0.00  0.00    +0.000 OA
ATOM     16  H   UNL     1      45.372   1.889  10.125  0.00  0.00    +0.000 HD
ENDBRANCH  13  15
ENDBRANCH  10  13
ENDBRANCH   5   7
BRANCH   1  17
ATOM     17  C   UNL     1      49.164   9.602  12.790  0.00  0.00    +0.000 C 
BRANCH  17  19
ATOM     18  C   UNL     1      51.175   8.221  11.998  0.00  0.00    +0.000 C 
ATOM     19  C   UNL     1      49.953   8.275  12.932  0.00  0.00    +0.000 C 
BRANCH  19  20
ATOM     20  N   UNL     1      50.444   8.101  14.313  0.00  0.00    +0.000 N 
ATOM     21  C   UNL     1      49.770   7.129  15.072  0.00  0.00    +0.000 A 
ATOM     22  C   UNL     1      50.236   6.793  16.345  0.00  0.00    +0.000 A 
ATOM     23  N   UNL     1      49.630   5.891  17.163  0.00  0.00    +0.000 NA
ATOM     24  C   UNL     1      48.511   5.297  16.662  0.00  0.00    +0.000 A 
ATOM     25  C   UNL     1      48.059   5.609  15.387  0.00  0.00    +0.000 A 
ATOM     26  N   UNL     1      48.675   6.507  14.585  0.00  0.00    +0.000 NA
ATOM     27  H   UNL     1      50.484   8.967  14.843  0.00  0.00    +0.000 HD
BRANCH  24  28
ATOM     28  C   UNL     1      47.714   4.299  17.471  0.00  0.00    +0.000 C 
ATOM     29  F   UNL     1      47.160   3.292  16.741  0.00  0.00    +0.000 F 
ATOM     30  F   UNL     1      48.471   3.689  18.431  0.00  0.00    +0.000 F 
ATOM     31  F   UNL     1      46.681   4.882  18.146  0.00  0.00    +0.000 F 
ENDBRANCH  24  28
ENDBRANCH  19  20
ENDBRANCH  17  19
ENDBRANCH   1  17
TORSDOF 7
ENDMDL
MODEL 7
REMARK VINA RESULT:    -6.984      3.107      4.813
REMARK INTER + INTRA:         -10.677
REMARK INTER:                  -9.253
REMARK INTRA:                  -1.425
REMARK UNBOUND:                -1.039
REMARK  Name = 
REMARK  8 active torsions:
REMARK  status: ('A' for Active; 'I' for Inactive)
REMARK    1  A    between atoms: C_1  and  C_2
REMARK    2  A    between atoms: C_2  and  C_3
REMARK    3  A    between atoms: C_2  and  N_19
REMARK    4  A    between atoms: C_3  and  C_4
REMARK    5  A    between atoms: C_8  and  C_9
REMARK    6  A    between atoms: C_12  and  C_13
REMARK    7  A    between atoms: C_13  and  O_15
REMARK    8  A    between atoms: C_23  and  C_24
REMARK                            x       y       z     vdW  Elec       q    Type
REMARK                         _______ _______ _______ _____ _____    ______ ____
ROOT
ATOM      1  C   UNL     1      48.836   9.132  14.293  0.00  0.00    +0.000 A 
ATOM      2  C   UNL     1      49.922   9.262  13.416  0.00  0.00    +0.000 A 
ATOM      3  C   UNL     1      49.906   8.675  12.158  0.00  0.00    +0.000 A 
ATOM      4  C   UNL     1      48.845   7.860  11.794  0.00  0.00    +0.000 A 
ATOM      5  C   UNL     1      47.808   7.567  12.696  0.00  0.00    +0.000 A 
ATOM      6  C   UNL     1      47.788   8.266  13.921  0.00  0.00    +0.000 A 
ENDROOT
BRANCH   5   7
ATOM      7  C   UNL     1      46.872   6.459  12.402  0.00  0.00    +0.000 A 
ATOM      8  C   UNL     1      46.615   5.499  13.404  0.00  0.00    +0.000 A 
ATOM      9  C   UNL     1      45.675   4.483  13.234  0.00  0.00    +0.000 A 
ATOM     10  C   UNL     1      44.968   4.394  12.037  0.00  0.00    +0.000 A 
ATOM     11  C   UNL     1      45.198   5.338  11.028  0.00  0.00    +0.000 A 
ATOM     12  C   UNL     1      46.147   6.355  11.206  0.00  0.00    +0.000 A 
BRANCH  10  13
ATOM     13  C   UNL     1      43.921   3.367  11.832  0.00  0.00    +0.000 C 
ATOM     14  O   UNL     1      43.009   3.508  11.036  0.00  0.00    +0.000 OA
BRANCH  13  15
ATOM     15  O   UNL     1      44.081   2.256  12.582  0.00  0.00    +0.000 OA
ATOM     16  H   UNL     1      44.875   1.731  12.378  0.00  0.00    +0.000 HD
ENDBRANCH  13  15
ENDBRANCH  10  13
ENDBRANCH   5   7
BRANCH   1  17
ATOM     17  C   UNL     1      48.756   9.867  15.625  0.00  0.00    +0.000 C 
BRANCH  17  19
ATOM     18  C   UNL     1      50.335  10.269  17.607  0.00  0.00    +0.000 C 
ATOM     19  C   UNL     1      49.523   9.229  16.812  0.00  0.00    +0.000 C 
BRANCH  19  20
ATOM     20  N   UNL     1      48.589   8.584  17.755  0.00  0.00    +0.000 N 
ATOM     21  C   UNL     1      48.458   7.191  17.611  0.00  0.00    +0.000 A 
ATOM     22  C   UNL     1      47.701   6.464  18.532  0.00  0.00    +0.000 A 
ATOM     23  N   UNL     1      47.493   5.123  18.455  0.00  0.00    +0.000 NA
ATOM     24  C   UNL     1      48.086   4.492  17.403  0.00  0.00    +0.000 A 
ATOM     25  C   UNL     1      48.860   5.206  16.499  0.00  0.00    +0.000 A 
ATOM     26  N   UNL     1      49.061   6.541  16.593  0.00  0.00    +0.000 NA
ATOM     27  H   UNL     1      47.664   9.004  17.765  0.00  0.00    +0.000 HD
BRANCH  24  28
ATOM     28  C   UNL     1      47.914   3.008  17.169  0.00  0.00    +0.000 C 
ATOM     29  F   UNL     1      46.851   2.452  17.813  0.00  0.00    +0.000 F 
ATOM     30  F   UNL     1      47.745   2.709  15.847  0.00  0.00    +0.000 F 
ATOM     31  F   UNL     1      49.005   2.289  17.562  0.00  0.00    +0.000 F 
ENDBRANCH  24  28
ENDBRANCH  19  20
ENDBRANCH  17  19
ENDBRANCH   1  17
TORSDOF 7
ENDMDL
MODEL 8
REMARK VINA RESULT:    -6.905      5.316      8.203
REMARK INTER + INTRA:         -10.568
REMARK INTER:                  -9.702
REMARK INTRA:                  -0.866
REMARK UNBOUND:                -1.039
REMARK  Name = 
REMARK  8 active torsions:
REMARK  status: ('A' for Active; 'I' for Inactive)
REMARK    1  A    between atoms: C_1  and  C_2
REMARK    2  A    between atoms: C_2  and  C_3
REMARK    3  A    between atoms: C_2  and  N_19
REMARK    4  A    between atoms: C_3  and  C_4
REMARK    5  A    between atoms: C_8  and  C_9
REMARK    6  A    between atoms: C_12  and  C_13
REMARK    7  A    between atoms: C_13  and  O_15
REMARK    8  A    between atoms: C_23  and  C_24
REMARK                            x       y       z     vdW  Elec       q    Type
REMARK                         _______ _______ _______ _____ _____    ______ ____
ROOT
ATOM      1  C   UNL     1      45.348   6.582  12.848  0.00  0.00    +0.000 A 
ATOM      2  C   UNL     1      44.795   7.841  12.572  0.00  0.00    +0.000 A 
ATOM      3  C   UNL     1      45.600   8.959  12.404  0.00  0.00    +0.000 A 
ATOM      4  C   UNL     1      46.967   8.859  12.610  0.00  0.00    +0.000 A 
ATOM      5  C   UNL     1      47.553   7.657  13.044  0.00  0.00    +0.000 A 
ATOM      6  C   UNL     1      46.733   6.510  13.095  0.00  0.00    +0.000 A 
ENDROOT
BRANCH   5   7
ATOM      7  C   UNL     1      48.940   7.661  13.558  0.00  0.00    +0.000 A 
ATOM      8  C   UNL     1      49.944   8.309  12.808  0.00  0.00    +0.000 A 
ATOM      9  C   UNL     1      51.252   8.437  13.273  0.00  0.00    +0.000 A 
ATOM     10  C   UNL     1      51.596   7.902  14.512  0.00  0.00    +0.000 A 
ATOM     11  C   UNL     1      50.618   7.259  15.282  0.00  0.00    +0.000 A 
ATOM     12  C   UNL     1      49.305   7.132  14.805  0.00  0.00    +0.000 A 
BRANCH  10  13
ATOM     13  C   UNL     1      52.958   8.061  15.073  0.00  0.00    +0.000 C 
ATOM     14  O   UNL     1      53.351   9.109  15.556  0.00  0.00    +0.000 OA
BRANCH  13  15
ATOM     15  O   UNL     1      53.711   6.943  15.024  0.00  0.00    +0.000 OA
ATOM     16  H   UNL     1      54.118   6.756  14.159  0.00  0.00    +0.000 HD
ENDBRANCH  13  15
ENDBRANCH  10  13
ENDBRANCH   5   7
BRANCH   1  17
ATOM     17  C   UNL     1      44.514   5.308  12.908  0.00  0.00    +0.000 C 
BRANCH  17  19
ATOM     18  C   UNL     1      42.380   5.403  11.488  0.00  0.00    +0.000 C 
ATOM     19  C   UNL     1      43.821   4.873  11.591  0.00  0.00    +0.000 C 
BRANCH  19  20
ATOM     20  N   UNL     1      44.562   5.375  10.418  0.00  0.00    +0.000 N 
ATOM     21  C   UNL     1      45.118   4.384   9.590  0.00  0.00    +0.000 A 
ATOM     22  C   UNL     1      45.727   4.744   8.385  0.00  0.00    +0.000 A 
ATOM     23  N   UNL     1      46.319   3.861   7.539  0.00  0.00    +0.000 NA
ATOM     24  C   UNL     1      46.282   2.555   7.927  0.00  0.00    +0.000 A 
ATOM     25  C   UNL     1      45.656   2.189   9.110  0.00  0.00    +0.000 A 
ATOM     26  N   UNL     1      45.068   3.082   9.940  0.00  0.00    +0.000 NA
ATOM     27  H   UNL     1      45.281   6.055  10.650  0.00  0.00    +0.000 HD
BRANCH  24  28
ATOM     28  C   UNL     1      46.929   1.465   7.103  0.00  0.00    +0.000 C 
ATOM     29  F   UNL     1      46.552   0.201   7.439  0.00  0.00    +0.000 F 
ATOM     30  F   UNL     1      46.655   1.592   5.771  0.00  0.00    +0.000 F 
ATOM     31  F   UNL     1      48.291   1.483   7.192  0.00  0.00    +0.000 F 
ENDBRANCH  24  28
ENDBRANCH  19  20
ENDBRANCH  17  19
ENDBRANCH   1  17
TORSDOF 7
ENDMDL
MODEL 9
REMARK VINA RESULT:    -6.728      5.021      8.522
REMARK INTER + INTRA:         -10.324
REMARK INTER:                  -9.723
REMARK INTRA:                  -0.601
REMARK UNBOUND:                -1.039
REMARK  Name = 
REMARK  8 active torsions:
REMARK  status: ('A' for Active; 'I' for Inactive)
REMARK    1  A    between atoms: C_1  and  C_2
REMARK    2  A    between atoms: C_2  and  C_3
REMARK    3  A    between atoms: C_2  and  N_19
REMARK    4  A    between atoms: C_3  and  C_4
REMARK    5  A    between atoms: C_8  and  C_9
REMARK    6  A    between atoms: C_12  and  C_13
REMARK    7  A    between atoms: C_13  and  O_15
REMARK    8  A    between atoms: C_23  and  C_24
REMARK                            x       y       z     vdW  Elec       q    Type
REMARK                         _______ _______ _______ _____ _____    ______ ____
ROOT
ATOM      1  C   UNL     1      48.901   6.746  16.845  0.00  0.00    +0.000 A 
ATOM      2  C   UNL     1      47.993   6.731  17.913  0.00  0.00    +0.000 A 
ATOM      3  C   UNL     1      48.177   5.889  19.002  0.00  0.00    +0.000 A 
ATOM      4  C   UNL     1      49.216   4.972  18.993  0.00  0.00    +0.000 A 
ATOM      5  C   UNL     1      50.059   4.836  17.876  0.00  0.00    +0.000 A 
ATOM      6  C   UNL     1      49.925   5.779  16.836  0.00  0.00    +0.000 A 
ENDROOT
BRANCH   5   7
ATOM      7  C   UNL     1      50.941   3.653  17.764  0.00  0.00    +0.000 A 
ATOM      8  C   UNL     1      52.268   3.744  18.234  0.00  0.00    +0.000 A 
ATOM      9  C   UNL     1      53.127   2.646  18.249  0.00  0.00    +0.000 A 
ATOM     10  C   UNL     1      52.677   1.415  17.776  0.00  0.00    +0.000 A 
ATOM     11  C   UNL     1      51.362   1.294  17.309  0.00  0.00    +0.000 A 
ATOM     12  C   UNL     1      50.505   2.405  17.295  0.00  0.00    +0.000 A 
BRANCH  10  13
ATOM     13  C   UNL     1      53.534   0.208  17.823  0.00  0.00    +0.000 C 
ATOM     14  O   UNL     1      53.962  -0.253  18.867  0.00  0.00    +0.000 OA
BRANCH  13  15
ATOM     15  O   UNL     1      53.776  -0.347  16.618  0.00  0.00    +0.000 OA
ATOM     16  H   UNL     1      53.642   0.245  15.856  0.00  0.00    +0.000 HD
ENDBRANCH  13  15
ENDBRANCH  10  13
ENDBRANCH   5   7
BRANCH   1  17
ATOM     17  C   UNL     1      48.811   7.745  15.697  0.00  0.00    +0.000 C 
BRANCH  17  19
ATOM     18  C   UNL     1      49.189   7.307  13.198  0.00  0.00    +0.000 C 
ATOM     19  C   UNL     1      48.198   7.220  14.373  0.00  0.00    +0.000 C 
BRANCH  19  20
ATOM     20  N   UNL     1      47.793   5.808  14.505  0.00  0.00    +0.000 N 
ATOM     21  C   UNL     1      46.713   5.415  13.694  0.00  0.00    +0.000 A 
ATOM     22  C   UNL     1      46.332   4.072  13.645  0.00  0.00    +0.000 A 
ATOM     23  N   UNL     1      45.283   3.606  12.916  0.00  0.00    +0.000 NA
ATOM     24  C   UNL     1      44.598   4.541  12.200  0.00  0.00    +0.000 A 
ATOM     25  C   UNL     1      44.989   5.873  12.226  0.00  0.00    +0.000 A 
ATOM     26  N   UNL     1      46.039   6.320  12.954  0.00  0.00    +0.000 NA
ATOM     27  H   UNL     1      47.607   5.525  15.463  0.00  0.00    +0.000 HD
BRANCH  24  28
ATOM     28  C   UNL     1      43.389   4.175  11.371  0.00  0.00    +0.000 C 
ATOM     29  F   UNL     1      43.601   4.178  10.026  0.00  0.00    +0.000 F 
ATOM     30  F   UNL     1      42.915   2.929  11.669  0.00  0.00    +0.000 F 
ATOM     31  F   UNL     1      42.336   5.019  11.583  0.00  0.00    +0.000 F 
ENDBRANCH  24  28
ENDBRANCH  19  20
ENDBRANCH  17  19
ENDBRANCH   1  17
TORSDOF 7
ENDMDL
