MODEL 1
REMARK VINA RESULT:    -8.423      0.000      0.000
REMARK INTER + INTRA:         -11.348
REMARK INTER:                 -11.377
REMARK INTRA:                   0.029
REMARK UNBOUND:                 0.029
REMARK  Name = 
REMARK  8 active torsions:
REMARK  status: ('A' for Active; 'I' for Inactive)
REMARK    1  A    between atoms: C_1  and  C_2
REMARK    2  A    between atoms: C_2  and  N_3
REMARK    3  A    between atoms: C_2  and  C_19
REMARK    4  A    between atoms: N_3  and  C_4
REMARK    5  A    between atoms: C_7  and  C_8
REMARK    6  A    between atoms: C_8  and  C_9
REMARK    7  A    between atoms: C_8  and  N_10
REMARK    8  A    between atoms: C_19  and  C_21
REMARK                            x       y       z     vdW  Elec       q    Type
REMARK                         _______ _______ _______ _____ _____    ______ ____
ROOT
ATOM      1  N   UNL     1      47.353   6.753  14.318  0.00  0.00    +0.000 N 
ATOM      2  H   UNL     1      46.913   7.647  14.554  0.00  0.00    +0.000 HD
ENDROOT
BRANCH   1   3
ATOM      3  C   UNL     1      46.712   6.092  13.277  0.00  0.00    +0.000 A 
ATOM      4  C   UNL     1      46.377   6.719  12.077  0.00  0.00    +0.000 A 
ATOM      5  C   UNL     1      45.576   6.069  11.134  0.00  0.00    +0.000 A 
ATOM      6  C   UNL     1      45.088   4.779  11.384  0.00  0.00    +0.000 A 
ATOM      7  C   UNL     1      45.603   4.076  12.478  0.00  0.00    +0.000 A 
ATOM      8  C   UNL     1      46.407   4.733  13.414  0.00  0.00    +0.000 A 
BRANCH   6   9
ATOM      9  C   UNL     1      43.878   4.282  10.607  0.00  0.00    +0.000 C 
ATOM     10  C   UNL     1      43.729   2.774  10.887  0.00  0.00    +0.000 C 
BRANCH   9  11
ATOM     11  N   UNL     1      43.980   4.503   9.171  0.00  0.00    +0.000 N 
ATOM     12  C   UNL     1      44.953   3.692   8.585  0.00  0.00    +0.000 A 
ATOM     13  N   UNL     1      45.030   2.391   8.892  0.00  0.00    +0.000 NA
ATOM     14  C   UNL     1      46.018   1.680   8.322  0.00  0.00    +0.000 A 
ATOM     15  C   UNL     1      46.947   2.223   7.472  0.00  0.00    +0.000 A 
ATOM     16  C   UNL     1      46.793   3.565   7.226  0.00  0.00    +0.000 A 
ATOM     17  N   UNL     1      45.813   4.317   7.765  0.00  0.00    +0.000 NA
ATOM     18  H   UNL     1      44.294   5.438   8.930  0.00  0.00    +0.000 HD
ENDBRANCH   9  11
ENDBRANCH   6   9
ENDBRANCH   1   3
BRANCH   1  20
ATOM     19  C   UNL     1      49.393   7.990  13.480  0.00  0.00    +0.000 C 
ATOM     20  C   UNL     1      48.830   6.878  14.367  0.00  0.00    +0.000 C 
BRANCH  20  21
ATOM     21  C   UNL     1      49.203   7.252  15.815  0.00  0.00    +0.000 C 
ATOM     22  O   UNL     1      48.722   8.272  16.321  0.00  0.00    +0.000 OA
BRANCH  21  23
ATOM     23  C   UNL     1      50.070   6.382  16.613  0.00  0.00    +0.000 A 
ATOM     24  C   UNL     1      51.341   6.708  17.049  0.00  0.00    +0.000 A 
ATOM     25  S   UNL     1      52.204   5.344  17.629  0.00  0.00    +0.000 S 
ATOM     26  C   UNL     1      50.865   4.320  17.382  0.00  0.00    +0.000 A 
ATOM     27  N   UNL     1      50.940   2.977  17.580  0.00  0.00    +0.000 NA
ATOM     28  C   UNL     1      49.827   2.352  17.369  0.00  0.00    +0.000 A 
ATOM     29  N   UNL     1      48.638   2.948  17.027  0.00  0.00    +0.000 N 
ATOM     30  C   UNL     1      48.495   4.312  16.912  0.00  0.00    +0.000 A 
ATOM     31  O   UNL     1      47.389   4.843  16.876  0.00  0.00    +0.000 OA
ATOM     32  C   UNL     1      49.756   5.029  16.978  0.00  0.00    +0.000 A 
ATOM     33  H   UNL     1      47.782   2.415  17.004  0.00  0.00    +0.000 HD
ENDBRANCH  21  23
ENDBRANCH  20  21
ENDBRANCH   1  20
TORSDOF 6
ENDMDL
MODEL 2
REMARK VINA RESULT:    -8.401      1.609      1.786
REMARK INTER + INTRA:         -11.319
REMARK INTER:                 -11.354
REMARK INTRA:                   0.035
REMARK UNBOUND:                 0.029
REMARK  Name = 
REMARK  8 active torsions:
REMARK  status: ('A' for Active; 'I' for Inactive)
REMARK    1  A    between atoms: C_1  and  C_2
REMARK    2  A    between atoms: C_2  and  N_3
REMARK    3  A    between atoms: C_2  and  C_19
REMARK    4  A    between atoms: N_3  and  C_4
REMARK    5  A    between atoms: C_7  and  C_8
REMARK    6  A    between atoms: C_8  and  C_9
REMARK    7  A    between atoms: C_8  and  N_10
REMARK    8  A    between atoms: C_19  and  C_21
REMARK                            x       y       z     vdW  Elec       q    Type
REMARK                         _______ _______ _______ _____ _____    ______ ____
ROOT
ATOM      1  N   UNL     1      47.478   6.540  14.395  0.00  0.00    +0.000 N 
ATOM      2  H   UNL     1      46.885   7.116  14.998  0.00  0.00    +0.000 HD
ENDROOT
BRANCH   1   3
ATOM      3  C   UNL     1      46.777   5.950  13.350  0.00  0.00    +0.000 A 
ATOM      4  C   UNL     1      46.396   6.649  12.205  0.00  0.00    +0.000 A 
ATOM      5  C   UNL     1      45.540   6.067  11.266  0.00  0.00    +0.000 A 
ATOM      6  C   UNL     1      45.042   4.773  11.465  0.00  0.00    +0.000 A 
ATOM      7  C   UNL     1      45.595   4.000  12.492  0.00  0.00    +0.000 A 
ATOM      8  C   UNL     1      46.455   4.589  13.424  0.00  0.00    +0.000 A 
BRANCH   6   9
ATOM      9  C   UNL     1      43.787   4.338  10.721  0.00  0.00    +0.000 C 
ATOM     10  C   UNL     1      43.557   2.845  11.021  0.00  0.00    +0.000 C 
BRANCH   9  11
ATOM     11  N   UNL     1      43.870   4.539   9.281  0.00  0.00    +0.000 N 
ATOM     12  C   UNL     1      44.830   3.715   8.692  0.00  0.00    +0.000 A 
ATOM     13  N   UNL     1      44.905   2.418   9.017  0.00  0.00    +0.000 NA
ATOM     14  C   UNL     1      45.880   1.694   8.443  0.00  0.00    +0.000 A 
ATOM     15  C   UNL     1      46.800   2.220   7.571  0.00  0.00    +0.000 A 
ATOM     16  C   UNL     1      46.650   3.559   7.309  0.00  0.00    +0.000 A 
ATOM     17  N   UNL     1      45.681   4.323   7.852  0.00  0.00    +0.000 NA
ATOM     18  H   UNL     1      44.185   5.469   9.022  0.00  0.00    +0.000 HD
ENDBRANCH   9  11
ENDBRANCH   6   9
ENDBRANCH   1   3
BRANCH   1  20
ATOM     19  C   UNL     1      48.693   8.712  13.947  0.00  0.00    +0.000 C 
ATOM     20  C   UNL     1      48.787   7.202  14.176  0.00  0.00    +0.000 C 
BRANCH  20  21
ATOM     21  C   UNL     1      49.608   7.013  15.466  0.00  0.00    +0.000 C 
ATOM     22  O   UNL     1      50.831   6.851  15.388  0.00  0.00    +0.000 OA
BRANCH  21  23
ATOM     23  C   UNL     1      48.964   7.086  16.779  0.00  0.00    +0.000 A 
ATOM     24  C   UNL     1      48.605   8.254  17.427  0.00  0.00    +0.000 A 
ATOM     25  S   UNL     1      48.220   7.996  19.078  0.00  0.00    +0.000 S 
ATOM     26  C   UNL     1      48.448   6.314  18.927  0.00  0.00    +0.000 A 
ATOM     27  N   UNL     1      48.377   5.479  19.998  0.00  0.00    +0.000 NA
ATOM     28  C   UNL     1      48.553   4.232  19.705  0.00  0.00    +0.000 A 
ATOM     29  N   UNL     1      48.743   3.737  18.437  0.00  0.00    +0.000 N 
ATOM     30  C   UNL     1      48.723   4.535  17.316  0.00  0.00    +0.000 A 
ATOM     31  O   UNL     1      48.623   4.059  16.190  0.00  0.00    +0.000 OA
ATOM     32  C   UNL     1      48.697   5.953  17.622  0.00  0.00    +0.000 A 
ATOM     33  H   UNL     1      48.744   2.742  18.267  0.00  0.00    +0.000 HD
ENDBRANCH  21  23
ENDBRANCH  20  21
ENDBRANCH   1  20
TORSDOF 6
ENDMDL
MODEL 3
REMARK VINA RESULT:    -7.774      2.409      4.367
REMARK INTER + INTRA:         -10.472
REMARK INTER:                  -8.555
REMARK INTRA:                  -1.917
REMARK UNBOUND:                 0.029
REMARK  Name = 
REMARK  8 active torsions:
REMARK  status: ('A' for Active; 'I' for Inactive)
REMARK    1  A    between atoms: C_1  and  C_2
REMARK    2  A    between atoms: C_2  and  N_3
REMARK    3  A    between atoms: C_2  and  C_19
REMARK    4  A    between atoms: N_3  and  C_4
REMARK    5  A    between atoms: C_7  and  C_8
REMARK    6  A    between atoms: C_8  and  C_9
REMARK    7  A    between atoms: C_8  and  N_10
REMARK    8  A    between atoms: C_19  and  C_21
REMARK                            x       y       z     vdW  Elec       q    Type
REMARK                         _______ _______ _______ _____ _____    ______ ____
ROOT
ATOM      1  N   UNL     1      50.605   8.151  17.181  0.00  0.00    +0.000 N 
ATOM      2  H   UNL     1      50.935   9.086  17.434  0.00  0.00    +0.000 HD
ENDROOT
BRANCH   1   3
ATOM      3  C   UNL     1      49.788   8.152  16.056  0.00  0.00    +0.000 A 
ATOM      4  C   UNL     1      48.705   9.019  15.910  0.00  0.00    +0.000 A 
ATOM      5  C   UNL     1      47.807   8.864  14.851  0.00  0.00    +0.000 A 
ATOM      6  C   UNL     1      47.974   7.827  13.923  0.00  0.00    +0.000 A 
ATOM      7  C   UNL     1      49.172   7.104  13.945  0.00  0.00    +0.000 A 
ATOM      8  C   UNL     1      50.068   7.269  15.006  0.00  0.00    +0.000 A 
BRANCH   6   9
ATOM      9  C   UNL     1      46.784   7.382  13.085  0.00  0.00    +0.000 C 
ATOM     10  C   UNL     1      45.829   8.583  12.953  0.00  0.00    +0.000 C 
BRANCH   9  11
ATOM     11  N   UNL     1      46.066   6.250  13.655  0.00  0.00    +0.000 N 
ATOM     12  C   UNL     1      45.130   5.723  12.764  0.00  0.00    +0.000 A 
ATOM     13  N   UNL     1      45.455   5.510  11.482  0.00  0.00    +0.000 NA
ATOM     14  C   UNL     1      44.491   5.040  10.672  0.00  0.00    +0.000 A 
ATOM     15  C   UNL     1      43.207   4.795  11.087  0.00  0.00    +0.000 A 
ATOM     16  C   UNL     1      42.967   5.053  12.413  0.00  0.00    +0.000 A 
ATOM     17  N   UNL     1      43.904   5.514  13.267  0.00  0.00    +0.000 NA
ATOM     18  H   UNL     1      45.496   6.498  14.457  0.00  0.00    +0.000 HD
ENDBRANCH   9  11
ENDBRANCH   6   9
ENDBRANCH   1   3
BRANCH   1  20
ATOM     19  C   UNL     1      53.018   7.757  17.826  0.00  0.00    +0.000 C 
ATOM     20  C   UNL     1      51.694   7.158  17.349  0.00  0.00    +0.000 C 
BRANCH  20  21
ATOM     21  C   UNL     1      51.243   6.179  18.451  0.00  0.00    +0.000 C 
ATOM     22  O   UNL     1      51.253   6.547  19.631  0.00  0.00    +0.000 OA
BRANCH  21  23
ATOM     23  C   UNL     1      50.748   4.844  18.108  0.00  0.00    +0.000 A 
ATOM     24  C   UNL     1      51.503   3.685  18.129  0.00  0.00    +0.000 A 
ATOM     25  S   UNL     1      50.726   2.383  17.327  0.00  0.00    +0.000 S 
ATOM     26  C   UNL     1      49.342   3.326  17.016  0.00  0.00    +0.000 A 
ATOM     27  N   UNL     1      48.306   2.860  16.266  0.00  0.00    +0.000 NA
ATOM     28  C   UNL     1      47.326   3.695  16.147  0.00  0.00    +0.000 A 
ATOM     29  N   UNL     1      47.263   4.930  16.745  0.00  0.00    +0.000 N 
ATOM     30  C   UNL     1      48.243   5.400  17.588  0.00  0.00    +0.000 A 
ATOM     31  O   UNL     1      48.054   6.368  18.319  0.00  0.00    +0.000 OA
ATOM     32  C   UNL     1      49.429   4.564  17.612  0.00  0.00    +0.000 A 
ATOM     33  H   UNL     1      46.413   5.475  16.713  0.00  0.00    +0.000 HD
ENDBRANCH  21  23
ENDBRANCH  20  21
ENDBRANCH   1  20
TORSDOF 6
ENDMDL
MODEL 4
REMARK VINA RESULT:    -7.151      1.572      2.155
REMARK INTER + INTRA:          -9.631
REMARK INTER:                  -9.929
REMARK INTRA:                   0.298
REMARK UNBOUND:                 0.029
REMARK  Name = 
REMARK  8 active torsions:
REMARK  status: ('A' for Active; 'I' for Inactive)
REMARK    1  A    between atoms: C_1  and  C_2
REMARK    2  A    between atoms: C_2  and  N_3
REMARK    3  A    between atoms: C_2  and  C_19
REMARK    4  A    between atoms: N_3  and  C_4
REMARK    5  A    between atoms: C_7  and  C_8
REMARK    6  A    between atoms: C_8  and  C_9
REMARK    7  A    between atoms: C_8  and  N_10
REMARK    8  A    between atoms: C_19  and  C_21
REMARK                            x       y       z     vdW  Elec       q    Type
REMARK                         _______ _______ _______ _____ _____    ______ ____
ROOT
ATOM      1  N   UNL     1      48.801   6.548  14.007  0.00  0.00    +0.000 N 
ATOM      2  H   UNL     1      49.179   5.815  14.613  0.00  0.00    +0.000 HD
ENDROOT
BRANCH   1   3
ATOM      3  C   UNL     1      47.731   6.112  13.234  0.00  0.00    +0.000 A 
ATOM      4  C   UNL     1      47.358   6.732  12.041  0.00  0.00    +0.000 A 
ATOM      5  C   UNL     1      46.173   6.374  11.394  0.00  0.00    +0.000 A 
ATOM      6  C   UNL     1      45.333   5.392  11.938  0.00  0.00    +0.000 A 
ATOM      7  C   UNL     1      45.815   4.626  13.004  0.00  0.00    +0.000 A 
ATOM      8  C   UNL     1      47.004   4.987  13.644  0.00  0.00    +0.000 A 
BRANCH   6   9
ATOM      9  C   UNL     1      43.874   5.344  11.509  0.00  0.00    +0.000 C 
ATOM     10  C   UNL     1      43.247   4.078  12.122  0.00  0.00    +0.000 C 
BRANCH   9  11
ATOM     11  N   UNL     1      43.695   5.325  10.064  0.00  0.00    +0.000 N 
ATOM     12  C   UNL     1      44.348   4.244   9.470  0.00  0.00    +0.000 A 
ATOM     13  N   UNL     1      44.250   3.017   9.997  0.00  0.00    +0.000 NA
ATOM     14  C   UNL     1      44.940   2.031   9.398  0.00  0.00    +0.000 A 
ATOM     15  C   UNL     1      45.742   2.227   8.302  0.00  0.00    +0.000 A 
ATOM     16  C   UNL     1      45.787   3.519   7.841  0.00  0.00    +0.000 A 
ATOM     17  N   UNL     1      45.105   4.539   8.402  0.00  0.00    +0.000 NA
ATOM     18  H   UNL     1      44.115   6.124   9.597  0.00  0.00    +0.000 HD
ENDBRANCH   9  11
ENDBRANCH   6   9
ENDBRANCH   1   3
BRANCH   1  20
ATOM     19  C   UNL     1      47.475   8.642  14.509  0.00  0.00    +0.000 C 
ATOM     20  C   UNL     1      48.762   7.844  14.727  0.00  0.00    +0.000 C 
BRANCH  20  21
ATOM     21  C   UNL     1      48.818   7.523  16.234  0.00  0.00    +0.000 C 
ATOM     22  O   UNL     1      48.565   8.412  17.053  0.00  0.00    +0.000 OA
BRANCH  21  23
ATOM     23  C   UNL     1      49.109   6.164  16.698  0.00  0.00    +0.000 A 
ATOM     24  C   UNL     1      48.158   5.212  17.018  0.00  0.00    +0.000 A 
ATOM     25  S   UNL     1      48.826   3.879  17.867  0.00  0.00    +0.000 S 
ATOM     26  C   UNL     1      50.400   4.518  17.745  0.00  0.00    +0.000 A 
ATOM     27  N   UNL     1      51.466   3.928  18.351  0.00  0.00    +0.000 NA
ATOM     28  C   UNL     1      52.591   4.529  18.138  0.00  0.00    +0.000 A 
ATOM     29  N   UNL     1      52.758   5.633  17.339  0.00  0.00    +0.000 N 
ATOM     30  C   UNL     1      51.726   6.203  16.629  0.00  0.00    +0.000 A 
ATOM     31  O   UNL     1      51.932   7.003  15.723  0.00  0.00    +0.000 OA
ATOM     32  C   UNL     1      50.425   5.659  16.974  0.00  0.00    +0.000 A 
ATOM     33  H   UNL     1      53.683   5.972  17.115  0.00  0.00    +0.000 HD
ENDBRANCH  21  23
ENDBRANCH  20  21
ENDBRANCH   1  20
TORSDOF 6
ENDMDL
MODEL 5
REMARK VINA RESULT:    -7.023      3.755      8.904
REMARK INTER + INTRA:          -9.458
REMARK INTER:                  -8.300
REMARK INTRA:                  -1.158
REMARK UNBOUND:                 0.029
REMARK  Name = 
REMARK  8 active torsions:
REMARK  status: ('A' for Active; 'I' for Inactive)
REMARK    1  A    between atoms: C_1  and  C_2
REMARK    2  A    between atoms: C_2  and  N_3
REMARK    3  A    between atoms: C_2  and  C_19
REMARK    4  A    between atoms: N_3  and  C_4
REMARK    5  A    between atoms: C_7  and  C_8
REMARK    6  A    between atoms: C_8  and  C_9
REMARK    7  A    between atoms: C_8  and  N_10
REMARK    8  A    between atoms: C_19  and  C_21
REMARK                            x       y       z     vdW  Elec       q    Type
REMARK                         _______ _______ _______ _____ _____    ______ ____
ROOT
ATOM      1  N   UNL     1      46.931   5.947  12.834  0.00  0.00    +0.000 N 
ATOM      2  H   UNL     1      47.595   5.848  12.061  0.00  0.00    +0.000 HD
ENDROOT
BRANCH   1   3
ATOM      3  C   UNL     1      47.431   5.472  14.041  0.00  0.00    +0.000 A 
ATOM      4  C   UNL     1      46.986   4.289  14.630  0.00  0.00    +0.000 A 
ATOM      5  C   UNL     1      47.384   3.944  15.924  0.00  0.00    +0.000 A 
ATOM      6  C   UNL     1      48.231   4.787  16.656  0.00  0.00    +0.000 A 
ATOM      7  C   UNL     1      48.846   5.850  15.987  0.00  0.00    +0.000 A 
ATOM      8  C   UNL     1      48.446   6.186  14.691  0.00  0.00    +0.000 A 
BRANCH   6   9
ATOM      9  C   UNL     1      48.278   4.656  18.171  0.00  0.00    +0.000 C 
ATOM     10  C   UNL     1      48.350   3.156  18.511  0.00  0.00    +0.000 C 
BRANCH   9  11
ATOM     11  N   UNL     1      47.130   5.253  18.840  0.00  0.00    +0.000 N 
ATOM     12  C   UNL     1      47.504   6.280  19.707  0.00  0.00    +0.000 A 
ATOM     13  N   UNL     1      48.389   7.208  19.320  0.00  0.00    +0.000 NA
ATOM     14  C   UNL     1      48.735   8.143  20.221  0.00  0.00    +0.000 A 
ATOM     15  C   UNL     1      48.248   8.176  21.503  0.00  0.00    +0.000 A 
ATOM     16  C   UNL     1      47.357   7.178  21.809  0.00  0.00    +0.000 A 
ATOM     17  N   UNL     1      46.971   6.225  20.937  0.00  0.00    +0.000 NA
ATOM     18  H   UNL     1      46.644   4.607  19.455  0.00  0.00    +0.000 HD
ENDBRANCH   9  11
ENDBRANCH   6   9
ENDBRANCH   1   3
BRANCH   1  20
ATOM     19  C   UNL     1      47.072   8.378  12.153  0.00  0.00    +0.000 C 
ATOM     20  C   UNL     1      46.226   7.249  12.745  0.00  0.00    +0.000 C 
BRANCH  20  21
ATOM     21  C   UNL     1      45.039   7.053  11.782  0.00  0.00    +0.000 C 
ATOM     22  O   UNL     1      44.680   7.991  11.062  0.00  0.00    +0.000 OA
BRANCH  21  23
ATOM     23  C   UNL     1      44.375   5.752  11.670  0.00  0.00    +0.000 A 
ATOM     24  C   UNL     1      43.442   5.255  12.562  0.00  0.00    +0.000 A 
ATOM     25  S   UNL     1      43.150   3.579  12.338  0.00  0.00    +0.000 S 
ATOM     26  C   UNL     1      44.200   3.517  10.999  0.00  0.00    +0.000 A 
ATOM     27  N   UNL     1      44.502   2.347  10.374  0.00  0.00    +0.000 NA
ATOM     28  C   UNL     1      45.297   2.481   9.362  0.00  0.00    +0.000 A 
ATOM     29  N   UNL     1      45.778   3.677   8.889  0.00  0.00    +0.000 N 
ATOM     30  C   UNL     1      45.422   4.890   9.430  0.00  0.00    +0.000 A 
ATOM     31  O   UNL     1      45.636   5.946   8.842  0.00  0.00    +0.000 OA
ATOM     32  C   UNL     1      44.668   4.769  10.665  0.00  0.00    +0.000 A 
ATOM     33  H   UNL     1      46.289   3.719   8.019  0.00  0.00    +0.000 HD
ENDBRANCH  21  23
ENDBRANCH  20  21
ENDBRANCH   1  20
TORSDOF 6
ENDMDL
MODEL 6
REMARK VINA RESULT:    -6.997      3.053      4.927
REMARK INTER + INTRA:          -9.423
REMARK INTER:                  -7.882
REMARK INTRA:                  -1.541
REMARK UNBOUND:                 0.029
REMARK  Name = 
REMARK  8 active torsions:
REMARK  status: ('A' for Active; 'I' for Inactive)
REMARK    1  A    between atoms: C_1  and  C_2
REMARK    2  A    between atoms: C_2  and  N_3
REMARK    3  A    between atoms: C_2  and  C_19
REMARK    4  A    between atoms: N_3  and  C_4
REMARK    5  A    between atoms: C_7  and  C_8
REMARK    6  A    between atoms: C_8  and  C_9
REMARK    7  A    between atoms: C_8  and  N_10
REMARK    8  A    between atoms: C_19  and  C_21
REMARK                            x       y       z     vdW  Elec       q    Type
REMARK                         _______ _______ _______ _____ _____    ______ ____
ROOT
ATOM      1  N   UNL     1      47.731   4.926  19.300  0.00  0.00    +0.000 N 
ATOM      2  H   UNL     1      46.818   4.611  19.639  0.00  0.00    +0.000 HD
ENDROOT
BRANCH   1   3
ATOM      3  C   UNL     1      47.821   4.930  17.913  0.00  0.00    +0.000 A 
ATOM      4  C   UNL     1      48.416   5.969  17.197  0.00  0.00    +0.000 A 
ATOM      5  C   UNL     1      48.324   6.017  15.804  0.00  0.00    +0.000 A 
ATOM      6  C   UNL     1      47.623   5.026  15.103  0.00  0.00    +0.000 A 
ATOM      7  C   UNL     1      47.221   3.881  15.798  0.00  0.00    +0.000 A 
ATOM      8  C   UNL     1      47.321   3.839  17.192  0.00  0.00    +0.000 A 
BRANCH   6   9
ATOM      9  C   UNL     1      47.134   5.322  13.692  0.00  0.00    +0.000 C 
ATOM     10  C   UNL     1      48.165   6.250  13.023  0.00  0.00    +0.000 C 
BRANCH   9  11
ATOM     11  N   UNL     1      45.818   5.947  13.654  0.00  0.00    +0.000 N 
ATOM     12  C   UNL     1      44.903   5.195  12.916  0.00  0.00    +0.000 A 
ATOM     13  N   UNL     1      44.817   3.869  13.088  0.00  0.00    +0.000 NA
ATOM     14  C   UNL     1      43.943   3.203  12.314  0.00  0.00    +0.000 A 
ATOM     15  C   UNL     1      43.166   3.806  11.358  0.00  0.00    +0.000 A 
ATOM     16  C   UNL     1      43.332   5.164  11.249  0.00  0.00    +0.000 A 
ATOM     17  N   UNL     1      44.188   5.877  12.010  0.00  0.00    +0.000 NA
ATOM     18  H   UNL     1      45.813   6.841  13.171  0.00  0.00    +0.000 HD
ENDBRANCH   9  11
ENDBRANCH   6   9
ENDBRANCH   1   3
BRANCH   1  20
ATOM     19  C   UNL     1      47.337   6.394  21.320  0.00  0.00    +0.000 C 
ATOM     20  C   UNL     1      48.218   6.067  20.113  0.00  0.00    +0.000 C 
BRANCH  20  21
ATOM     21  C   UNL     1      49.592   5.661  20.682  0.00  0.00    +0.000 C 
ATOM     22  O   UNL     1      49.676   4.671  21.417  0.00  0.00    +0.000 OA
BRANCH  21  23
ATOM     23  C   UNL     1      50.801   6.398  20.310  0.00  0.00    +0.000 A 
ATOM     24  C   UNL     1      51.298   7.502  20.980  0.00  0.00    +0.000 A 
ATOM     25  S   UNL     1      52.499   8.330  20.077  0.00  0.00    +0.000 S 
ATOM     26  C   UNL     1      52.428   7.181  18.821  0.00  0.00    +0.000 A 
ATOM     27  N   UNL     1      53.134   7.330  17.668  0.00  0.00    +0.000 NA
ATOM     28  C   UNL     1      52.983   6.356  16.830  0.00  0.00    +0.000 A 
ATOM     29  N   UNL     1      52.234   5.228  17.057  0.00  0.00    +0.000 N 
ATOM     30  C   UNL     1      51.584   4.991  18.246  0.00  0.00    +0.000 A 
ATOM     31  O   UNL     1      51.153   3.880  18.534  0.00  0.00    +0.000 OA
ATOM     32  C   UNL     1      51.594   6.133  19.142  0.00  0.00    +0.000 A 
ATOM     33  H   UNL     1      52.266   4.451  16.413  0.00  0.00    +0.000 HD
ENDBRANCH  21  23
ENDBRANCH  20  21
ENDBRANCH   1  20
TORSDOF 6
ENDMDL
MODEL 7
REMARK VINA RESULT:    -6.949      2.332      3.719
REMARK INTER + INTRA:          -9.357
REMARK INTER:                  -8.310
REMARK INTRA:                  -1.047
REMARK UNBOUND:                 0.029
REMARK  Name = 
REMARK  8 active torsions:
REMARK  status: ('A' for Active; 'I' for Inactive)
REMARK    1  A    between atoms: C_1  and  C_2
REMARK    2  A    between atoms: C_2  and  N_3
REMARK    3  A    between atoms: C_2  and  C_19
REMARK    4  A    between atoms: N_3  and  C_4
REMARK    5  A    between atoms: C_7  and  C_8
REMARK    6  A    between atoms: C_8  and  C_9
REMARK    7  A    between atoms: C_8  and  N_10
REMARK    8  A    between atoms: C_19  and  C_21
REMARK                            x       y       z     vdW  Elec       q    Type
REMARK                         _______ _______ _______ _____ _____    ______ ____
ROOT
ATOM      1  N   UNL     1      50.691   7.218  14.612  0.00  0.00    +0.000 N 
ATOM      2  H   UNL     1      50.578   6.293  15.037  0.00  0.00    +0.000 HD
ENDROOT
BRANCH   1   3
ATOM      3  C   UNL     1      49.533   7.674  13.994  0.00  0.00    +0.000 A 
ATOM      4  C   UNL     1      48.463   8.222  14.703  0.00  0.00    +0.000 A 
ATOM      5  C   UNL     1      47.253   8.499  14.062  0.00  0.00    +0.000 A 
ATOM      6  C   UNL     1      47.090   8.222  12.698  0.00  0.00    +0.000 A 
ATOM      7  C   UNL     1      48.223   7.884  11.951  0.00  0.00    +0.000 A 
ATOM      8  C   UNL     1      49.432   7.612  12.599  0.00  0.00    +0.000 A 
BRANCH   6   9
ATOM      9  C   UNL     1      45.684   8.082  12.133  0.00  0.00    +0.000 C 
ATOM     10  C   UNL     1      45.065   9.490  12.060  0.00  0.00    +0.000 C 
BRANCH   9  11
ATOM     11  N   UNL     1      44.825   7.213  12.926  0.00  0.00    +0.000 N 
ATOM     12  C   UNL     1      44.489   6.044  12.241  0.00  0.00    +0.000 A 
ATOM     13  N   UNL     1      45.425   5.348  11.582  0.00  0.00    +0.000 NA
ATOM     14  C   UNL     1      45.022   4.256  10.910  0.00  0.00    +0.000 A 
ATOM     15  C   UNL     1      43.716   3.843  10.852  0.00  0.00    +0.000 A 
ATOM     16  C   UNL     1      42.829   4.625  11.549  0.00  0.00    +0.000 A 
ATOM     17  N   UNL     1      43.186   5.722  12.246  0.00  0.00    +0.000 NA
ATOM     18  H   UNL     1      43.917   7.622  13.128  0.00  0.00    +0.000 HD
ENDBRANCH   9  11
ENDBRANCH   6   9
ENDBRANCH   1   3
BRANCH   1  20
ATOM     19  C   UNL     1      51.207   9.587  15.327  0.00  0.00    +0.000 C 
ATOM     20  C   UNL     1      51.498   8.095  15.494  0.00  0.00    +0.000 C 
BRANCH  20  21
ATOM     21  C   UNL     1      51.121   7.743  16.946  0.00  0.00    +0.000 C 
ATOM     22  O   UNL     1      50.909   8.653  17.756  0.00  0.00    +0.000 OA
BRANCH  21  23
ATOM     23  C   UNL     1      50.952   6.348  17.358  0.00  0.00    +0.000 A 
ATOM     24  C   UNL     1      51.973   5.421  17.466  0.00  0.00    +0.000 A 
ATOM     25  S   UNL     1      51.387   3.815  17.608  0.00  0.00    +0.000 S 
ATOM     26  C   UNL     1      49.768   4.345  17.610  0.00  0.00    +0.000 A 
ATOM     27  N   UNL     1      48.724   3.473  17.606  0.00  0.00    +0.000 NA
ATOM     28  C   UNL     1      47.563   4.042  17.630  0.00  0.00    +0.000 A 
ATOM     29  N   UNL     1      47.349   5.397  17.707  0.00  0.00    +0.000 N 
ATOM     30  C   UNL     1      48.374   6.308  17.811  0.00  0.00    +0.000 A 
ATOM     31  O   UNL     1      48.171   7.470  18.148  0.00  0.00    +0.000 OA
ATOM     32  C   UNL     1      49.687   5.720  17.619  0.00  0.00    +0.000 A 
ATOM     33  H   UNL     1      46.420   5.764  17.853  0.00  0.00    +0.000 HD
ENDBRANCH  21  23
ENDBRANCH  20  21
ENDBRANCH   1  20
TORSDOF 6
ENDMDL
MODEL 8
REMARK VINA RESULT:    -6.759      2.731      4.351
REMARK INTER + INTRA:          -9.101
REMARK INTER:                  -9.922
REMARK INTRA:                   0.820
REMARK UNBOUND:                 0.029
REMARK  Name = 
REMARK  8 active torsions:
REMARK  status: ('A' for Active; 'I' for Inactive)
REMARK    1  A    between atoms: C_1  and  C_2
REMARK    2  A    between atoms: C_2  and  N_3
REMARK    3  A    between atoms: C_2  and  C_19
REMARK    4  A    between atoms: N_3  and  C_4
REMARK    5  A    between atoms: C_7  and  C_8
REMARK    6  A    between atoms: C_8  and  C_9
REMARK    7  A    between atoms: C_8  and  N_10
REMARK    8  A    between atoms: C_19  and  C_21
REMARK                            x       y       z     vdW  Elec       q    Type
REMARK                         _______ _______ _______ _____ _____    ______ ____
ROOT
ATOM      1  N   UNL     1      48.135   6.673  13.341  0.00  0.00    +0.000 N 
ATOM      2  H   UNL     1      48.920   6.049  13.135  0.00  0.00    +0.000 HD
ENDROOT
BRANCH   1   3
ATOM      3  C   UNL     1      46.949   6.266  12.740  0.00  0.00    +0.000 A 
ATOM      4  C   UNL     1      46.023   5.440  13.377  0.00  0.00    +0.000 A 
ATOM      5  C   UNL     1      44.938   4.912  12.674  0.00  0.00    +0.000 A 
ATOM      6  C   UNL     1      44.766   5.196  11.313  0.00  0.00    +0.000 A 
ATOM      7  C   UNL     1      45.564   6.191  10.738  0.00  0.00    +0.000 A 
ATOM      8  C   UNL     1      46.645   6.718  11.450  0.00  0.00    +0.000 A 
BRANCH   6   9
ATOM      9  C   UNL     1      43.895   4.277  10.468  0.00  0.00    +0.000 C 
ATOM     10  C   UNL     1      44.275   2.825  10.811  0.00  0.00    +0.000 C 
BRANCH   9  11
ATOM     11  N   UNL     1      44.044   4.494   9.035  0.00  0.00    +0.000 N 
ATOM     12  C   UNL     1      45.009   3.654   8.477  0.00  0.00    +0.000 A 
ATOM     13  N   UNL     1      45.039   2.352   8.786  0.00  0.00    +0.000 NA
ATOM     14  C   UNL     1      46.021   1.612   8.245  0.00  0.00    +0.000 A 
ATOM     15  C   UNL     1      46.989   2.126   7.421  0.00  0.00    +0.000 A 
ATOM     16  C   UNL     1      46.882   3.471   7.170  0.00  0.00    +0.000 A 
ATOM     17  N   UNL     1      45.909   4.253   7.682  0.00  0.00    +0.000 NA
ATOM     18  H   UNL     1      44.393   5.420   8.803  0.00  0.00    +0.000 HD
ENDBRANCH   9  11
ENDBRANCH   6   9
ENDBRANCH   1   3
BRANCH   1  20
ATOM     19  C   UNL     1      49.235   6.388  15.599  0.00  0.00    +0.000 C 
ATOM     20  C   UNL     1      48.179   7.106  14.758  0.00  0.00    +0.000 C 
BRANCH  20  21
ATOM     21  C   UNL     1      48.569   8.597  14.760  0.00  0.00    +0.000 C 
ATOM     22  O   UNL     1      48.529   9.233  15.819  0.00  0.00    +0.000 OA
BRANCH  21  23
ATOM     23  C   UNL     1      49.044   9.248  13.537  0.00  0.00    +0.000 A 
ATOM     24  C   UNL     1      48.278  10.056  12.717  0.00  0.00    +0.000 A 
ATOM     25  S   UNL     1      49.025  10.345  11.199  0.00  0.00    +0.000 S 
ATOM     26  C   UNL     1      50.411   9.465  11.650  0.00  0.00    +0.000 A 
ATOM     27  N   UNL     1      51.426   9.222  10.778  0.00  0.00    +0.000 NA
ATOM     28  C   UNL     1      52.412   8.559  11.289  0.00  0.00    +0.000 A 
ATOM     29  N   UNL     1      52.500   8.159  12.600  0.00  0.00    +0.000 N 
ATOM     30  C   UNL     1      51.543   8.467  13.538  0.00  0.00    +0.000 A 
ATOM     31  O   UNL     1      51.756   8.345  14.740  0.00  0.00    +0.000 OA
ATOM     32  C   UNL     1      50.349   9.063  12.966  0.00  0.00    +0.000 A 
ATOM     33  H   UNL     1      53.354   7.759  12.960  0.00  0.00    +0.000 HD
ENDBRANCH  21  23
ENDBRANCH  20  21
ENDBRANCH   1  20
TORSDOF 6
ENDMDL
MODEL 9
REMARK VINA RESULT:    -6.564      3.264      8.911
REMARK INTER + INTRA:          -8.837
REMARK INTER:                  -7.451
REMARK INTRA:                  -1.386
REMARK UNBOUND:                 0.029
REMARK  Name = 
REMARK  8 active torsions:
REMARK  status: ('A' for Active; 'I' for Inactive)
REMARK    1  A    between atoms: C_1  and  C_2
REMARK    2  A    between atoms: C_2  and  N_3
REMARK    3  A    between atoms: C_2  and  C_19
REMARK    4  A    between atoms: N_3  and  C_4
REMARK    5  A    between atoms: C_7  and  C_8
REMARK    6  A    between atoms: C_8  and  C_9
REMARK    7  A    between atoms: C_8  and  N_10
REMARK    8  A    between atoms: C_19  and  C_21
REMARK                            x       y       z     vdW  Elec       q    Type
REMARK                         _______ _______ _______ _____ _____    ______ ____
ROOT
ATOM      1  N   UNL     1      48.799   9.146  13.834  0.00  0.00    +0.000 N 
ATOM      2  H   UNL     1      49.052  10.138  13.842  0.00  0.00    +0.000 HD
ENDROOT
BRANCH   1   3
ATOM      3  C   UNL     1      49.097   8.502  15.029  0.00  0.00    +0.000 A 
ATOM      4  C   UNL     1      50.051   7.490  15.125  0.00  0.00    +0.000 A 
ATOM      5  C   UNL     1      50.189   6.750  16.302  0.00  0.00    +0.000 A 
ATOM      6  C   UNL     1      49.363   7.008  17.404  0.00  0.00    +0.000 A 
ATOM      7  C   UNL     1      48.566   8.158  17.381  0.00  0.00    +0.000 A 
ATOM      8  C   UNL     1      48.438   8.895  16.201  0.00  0.00    +0.000 A 
BRANCH   6   9
ATOM      9  C   UNL     1      49.193   5.935  18.470  0.00  0.00    +0.000 C 
ATOM     10  C   UNL     1      47.741   5.425  18.394  0.00  0.00    +0.000 C 
BRANCH   9  11
ATOM     11  N   UNL     1      49.473   6.408  19.819  0.00  0.00    +0.000 N 
ATOM     12  C   UNL     1      50.598   5.791  20.366  0.00  0.00    +0.000 A 
ATOM     13  N   UNL     1      51.719   5.657  19.646  0.00  0.00    +0.000 NA
ATOM     14  C   UNL     1      52.750   5.015  20.222  0.00  0.00    +0.000 A 
ATOM     15  C   UNL     1      52.698   4.482  21.485  0.00  0.00    +0.000 A 
ATOM     16  C   UNL     1      51.505   4.659  22.140  0.00  0.00    +0.000 A 
ATOM     17  N   UNL     1      50.448   5.305  21.608  0.00  0.00    +0.000 NA
ATOM     18  H   UNL     1      48.743   6.174  20.486  0.00  0.00    +0.000 HD
ENDBRANCH   9  11
ENDBRANCH   6   9
ENDBRANCH   1   3
BRANCH   1  20
ATOM     19  C   UNL     1      47.139  10.062  12.161  0.00  0.00    +0.000 C 
ATOM     20  C   UNL     1      47.497   8.952  13.150  0.00  0.00    +0.000 C 
BRANCH  20  21
ATOM     21  C   UNL     1      47.614   7.658  12.320  0.00  0.00    +0.000 C 
ATOM     22  O   UNL     1      48.359   7.634  11.335  0.00  0.00    +0.000 OA
BRANCH  21  23
ATOM     23  C   UNL     1      46.899   6.445  12.723  0.00  0.00    +0.000 A 
ATOM     24  C   UNL     1      47.373   5.500  13.614  0.00  0.00    +0.000 A 
ATOM     25  S   UNL     1      46.462   4.047  13.576  0.00  0.00    +0.000 S 
ATOM     26  C   UNL     1      45.377   4.691  12.432  0.00  0.00    +0.000 A 
ATOM     27  N   UNL     1      44.389   3.941  11.873  0.00  0.00    +0.000 NA
ATOM     28  C   UNL     1      43.642   4.591  11.041  0.00  0.00    +0.000 A 
ATOM     29  N   UNL     1      43.759   5.928  10.752  0.00  0.00    +0.000 N 
ATOM     30  C   UNL     1      44.680   6.745  11.367  0.00  0.00    +0.000 A 
ATOM     31  O   UNL     1      44.597   7.968  11.306  0.00  0.00    +0.000 OA
ATOM     32  C   UNL     1      45.640   6.019  12.178  0.00  0.00    +0.000 A 
ATOM     33  H   UNL     1      43.061   6.397  10.193  0.00  0.00    +0.000 HD
ENDBRANCH  21  23
ENDBRANCH  20  21
ENDBRANCH   1  20
TORSDOF 6
ENDMDL
