MODEL 1
REMARK VINA RESULT:    -7.853      0.000      0.000
REMARK INTER + INTRA:         -12.279
REMARK INTER:                 -11.297
REMARK INTRA:                  -0.982
REMARK UNBOUND:                -0.982
REMARK  Name = 
REMARK  8 active torsions:
REMARK  status: ('A' for Active; 'I' for Inactive)
REMARK    1  A    between atoms: C_2  and  C_3
REMARK    2  A    between atoms: C_8  and  N_9
REMARK    3  A    between atoms: N_9  and  C_10
REMARK    4  A    between atoms: C_10  and  C_11
REMARK    5  A    between atoms: C_11  and  C_13
REMARK    6  A    between atoms: C_17  and  O_18
REMARK    7  A    between atoms: O_18  and  C_19
REMARK    8  A    between atoms: C_23  and  O_24
REMARK                            x       y       z     vdW  Elec       q    Type
REMARK                         _______ _______ _______ _____ _____    ______ ____
ROOT
ATOM      1  C   UNL     1      45.561   4.312  12.901  0.00  0.00    +0.000 A 
ATOM      2  C   UNL     1      44.542   5.190  13.299  0.00  0.00    +0.000 A 
ATOM      3  C   UNL     1      43.324   5.217  12.620  0.00  0.00    +0.000 A 
ATOM      4  C   UNL     1      43.123   4.399  11.508  0.00  0.00    +0.000 A 
ATOM      5  C   UNL     1      44.159   3.591  11.042  0.00  0.00    +0.000 A 
ATOM      6  C   UNL     1      45.351   3.505  11.770  0.00  0.00    +0.000 A 
ENDROOT
BRANCH   1   7
ATOM      7  C   UNL     1      46.875   4.267  13.665  0.00  0.00    +0.000 C 
ATOM      8  F   UNL     1      47.317   2.976  13.809  0.00  0.00    +0.000 F 
BRANCH   7   9
ATOM      9  C   UNL     1      46.731   4.883  15.078  0.00  0.00    +0.000 C 
BRANCH   9  10
ATOM     10  N   UNL     1      46.571   3.893  16.172  0.00  0.00    +0.000 N 
ATOM     11  H   UNL     1      45.594   3.680  16.352  0.00  0.00    +0.000 HD
BRANCH  10  17
ATOM     12  C   UNL     1      48.528   3.490  17.598  0.00  0.00    +0.000 A 
ATOM     13  C   UNL     1      49.270   3.863  18.731  0.00  0.00    +0.000 A 
ATOM     14  C   UNL     1      48.804   4.873  19.558  0.00  0.00    +0.000 A 
ATOM     15  C   UNL     1      47.600   5.460  19.237  0.00  0.00    +0.000 A 
ATOM     16  N   UNL     1      46.849   5.095  18.173  0.00  0.00    +0.000 NA
ATOM     17  C   UNL     1      47.304   4.131  17.341  0.00  0.00    +0.000 A 
BRANCH  12  19
ATOM     18  N   UNL     1      49.523   1.659  16.051  0.00  0.00    +0.000 NA
ATOM     19  C   UNL     1      49.060   2.446  16.763  0.00  0.00    +0.000 C 
ENDBRANCH  12  19
ENDBRANCH  10  17
ENDBRANCH   9  10
ENDBRANCH   7   9
ENDBRANCH   1   7
BRANCH   5  20
ATOM     20  O   UNL     1      44.120   2.874   9.874  0.00  0.00    +0.000 OA
BRANCH  20  21
ATOM     21  C   UNL     1      45.362   2.748   9.174  0.00  0.00    +0.000 C 
ATOM     22  C   UNL     1      45.542   1.405   8.456  0.00  0.00    +0.000 C 
ATOM     23  C   UNL     1      46.653   1.676   7.451  0.00  0.00    +0.000 C 
ATOM     24  C   UNL     1      46.541   3.161   7.105  0.00  0.00    +0.000 C 
ATOM     25  C   UNL     1      45.404   3.707   7.972  0.00  0.00    +0.000 C 
BRANCH  25  26
ATOM     26  O   UNL     1      45.643   5.061   8.324  0.00  0.00    +0.000 OA
ATOM     27  H   UNL     1      44.917   5.366   8.893  0.00  0.00    +0.000 HD
ENDBRANCH  25  26
ENDBRANCH  20  21
ENDBRANCH   5  20
TORSDOF 8
ENDMDL
MODEL 2
REMARK VINA RESULT:    -7.703      0.933      2.084
REMARK INTER + INTRA:         -12.063
REMARK INTER:                 -11.291
REMARK INTRA:                  -0.772
REMARK UNBOUND:                -0.982
REMARK  Name = 
REMARK  8 active torsions:
REMARK  status: ('A' for Active; 'I' for Inactive)
REMARK    1  A    between atoms: C_2  and  C_3
REMARK    2  A    between atoms: C_8  and  N_9
REMARK    3  A    between atoms: N_9  and  C_10
REMARK    4  A    between atoms: C_10  and  C_11
REMARK    5  A    between atoms: C_11  and  C_13
REMARK    6  A    between atoms: C_17  and  O_18
REMARK    7  A    between atoms: O_18  and  C_19
REMARK    8  A    between atoms: C_23  and  O_24
REMARK                            x       y       z     vdW  Elec       q    Type
REMARK                         _______ _______ _______ _____ _____    ______ ____
ROOT
ATOM      1  C   UNL     1      45.228   4.858  12.788  0.00  0.00    +0.000 A 
ATOM      2  C   UNL     1      44.116   5.670  13.056  0.00  0.00    +0.000 A 
ATOM      3  C   UNL     1      42.915   5.477  12.375  0.00  0.00    +0.000 A 
ATOM      4  C   UNL     1      42.820   4.498  11.386  0.00  0.00    +0.000 A 
ATOM      5  C   UNL     1      43.943   3.746  11.041  0.00  0.00    +0.000 A 
ATOM      6  C   UNL     1      45.123   3.886  11.779  0.00  0.00    +0.000 A 
ENDROOT
BRANCH   1   7
ATOM      7  C   UNL     1      46.524   5.055  13.558  0.00  0.00    +0.000 C 
ATOM      8  F   UNL     1      47.521   5.517  12.736  0.00  0.00    +0.000 F 
BRANCH   7   9
ATOM      9  C   UNL     1      47.009   3.733  14.202  0.00  0.00    +0.000 C 
BRANCH   9  10
ATOM     10  N   UNL     1      46.862   3.673  15.677  0.00  0.00    +0.000 N 
ATOM     11  H   UNL     1      46.355   4.475  16.041  0.00  0.00    +0.000 HD
BRANCH  10  17
ATOM     12  C   UNL     1      48.285   3.968  17.656  0.00  0.00    +0.000 A 
ATOM     13  C   UNL     1      49.403   3.539  18.390  0.00  0.00    +0.000 A 
ATOM     14  C   UNL     1      50.207   2.526  17.892  0.00  0.00    +0.000 A 
ATOM     15  C   UNL     1      49.879   1.992  16.666  0.00  0.00    +0.000 A 
ATOM     16  N   UNL     1      48.829   2.410  15.923  0.00  0.00    +0.000 NA
ATOM     17  C   UNL     1      48.019   3.379  16.408  0.00  0.00    +0.000 A 
BRANCH  12  19
ATOM     18  N   UNL     1      46.819   5.817  18.739  0.00  0.00    +0.000 NA
ATOM     19  C   UNL     1      47.474   5.014  18.220  0.00  0.00    +0.000 C 
ENDBRANCH  12  19
ENDBRANCH  10  17
ENDBRANCH   9  10
ENDBRANCH   7   9
ENDBRANCH   1   7
BRANCH   5  20
ATOM     20  O   UNL     1      44.000   2.876   9.982  0.00  0.00    +0.000 OA
BRANCH  20  21
ATOM     21  C   UNL     1      45.261   2.785   9.313  0.00  0.00    +0.000 C 
ATOM     22  C   UNL     1      45.508   1.440   8.621  0.00  0.00    +0.000 C 
ATOM     23  C   UNL     1      46.631   1.737   7.637  0.00  0.00    +0.000 C 
ATOM     24  C   UNL     1      46.470   3.211   7.264  0.00  0.00    +0.000 C 
ATOM     25  C   UNL     1      45.295   3.727   8.096  0.00  0.00    +0.000 C 
BRANCH  25  26
ATOM     26  O   UNL     1      45.475   5.094   8.431  0.00  0.00    +0.000 OA
ATOM     27  H   UNL     1      45.128   5.242   9.327  0.00  0.00    +0.000 HD
ENDBRANCH  25  26
ENDBRANCH  20  21
ENDBRANCH   5  20
TORSDOF 8
ENDMDL
MODEL 3
REMARK VINA RESULT:    -7.684      2.028      2.272
REMARK INTER + INTRA:         -12.035
REMARK INTER:                 -11.176
REMARK INTRA:                  -0.859
REMARK UNBOUND:                -0.982
REMARK  Name = 
REMARK  8 active torsions:
REMARK  status: ('A' for Active; 'I' for Inactive)
REMARK    1  A    between atoms: C_2  and  C_3
REMARK    2  A    between atoms: C_8  and  N_9
REMARK    3  A    between atoms: N_9  and  C_10
REMARK    4  A    between atoms: C_10  and  C_11
REMARK    5  A    between atoms: C_11  and  C_13
REMARK    6  A    between atoms: C_17  and  O_18
REMARK    7  A    between atoms: O_18  and  C_19
REMARK    8  A    between atoms: C_23  and  O_24
REMARK                            x       y       z     vdW  Elec       q    Type
REMARK                         _______ _______ _______ _____ _____    ______ ____
ROOT
ATOM      1  C   UNL     1      45.468   5.869  12.069  0.00  0.00    +0.000 A 
ATOM      2  C   UNL     1      44.318   5.845  12.870  0.00  0.00    +0.000 A 
ATOM      3  C   UNL     1      43.203   5.098  12.489  0.00  0.00    +0.000 A 
ATOM      4  C   UNL     1      43.207   4.400  11.282  0.00  0.00    +0.000 A 
ATOM      5  C   UNL     1      44.306   4.490  10.429  0.00  0.00    +0.000 A 
ATOM      6  C   UNL     1      45.453   5.174  10.848  0.00  0.00    +0.000 A 
ENDROOT
BRANCH   1   7
ATOM      7  C   UNL     1      46.691   6.661  12.507  0.00  0.00    +0.000 C 
ATOM      8  F   UNL     1      47.398   7.115  11.423  0.00  0.00    +0.000 F 
BRANCH   7   9
ATOM      9  C   UNL     1      47.643   5.801  13.374  0.00  0.00    +0.000 C 
BRANCH   9  10
ATOM     10  N   UNL     1      47.308   5.774  14.819  0.00  0.00    +0.000 N 
ATOM     11  H   UNL     1      46.607   6.468  15.060  0.00  0.00    +0.000 HD
BRANCH  10  17
ATOM     12  C   UNL     1      48.495   4.798  16.734  0.00  0.00    +0.000 A 
ATOM     13  C   UNL     1      49.662   4.761  17.515  0.00  0.00    +0.000 A 
ATOM     14  C   UNL     1      50.699   5.641  17.248  0.00  0.00    +0.000 A 
ATOM     15  C   UNL     1      50.524   6.544  16.223  0.00  0.00    +0.000 A 
ATOM     16  N   UNL     1      49.397   6.624  15.479  0.00  0.00    +0.000 NA
ATOM     17  C   UNL     1      48.388   5.754  15.709  0.00  0.00    +0.000 A 
BRANCH  12  19
ATOM     18  N   UNL     1      46.632   3.103  17.363  0.00  0.00    +0.000 NA
ATOM     19  C   UNL     1      47.452   3.855  17.042  0.00  0.00    +0.000 C 
ENDBRANCH  12  19
ENDBRANCH  10  17
ENDBRANCH   9  10
ENDBRANCH   7   9
ENDBRANCH   1   7
BRANCH   5  20
ATOM     20  O   UNL     1      44.348   3.977   9.158  0.00  0.00    +0.000 OA
BRANCH  20  21
ATOM     21  C   UNL     1      45.471   3.143   8.855  0.00  0.00    +0.000 C 
ATOM     22  C   UNL     1      45.133   1.652   8.751  0.00  0.00    +0.000 C 
ATOM     23  C   UNL     1      46.316   1.063   7.994  0.00  0.00    +0.000 C 
ATOM     24  C   UNL     1      46.836   2.190   7.103  0.00  0.00    +0.000 C 
ATOM     25  C   UNL     1      45.970   3.410   7.424  0.00  0.00    +0.000 C 
BRANCH  25  26
ATOM     26  O   UNL     1      46.716   4.609   7.289  0.00  0.00    +0.000 OA
ATOM     27  H   UNL     1      47.346   4.501   6.557  0.00  0.00    +0.000 HD
ENDBRANCH  25  26
ENDBRANCH  20  21
ENDBRANCH   5  20
TORSDOF 8
ENDMDL
MODEL 4
REMARK VINA RESULT:    -7.328      3.336      4.694
REMARK INTER + INTRA:         -11.523
REMARK INTER:                 -10.388
REMARK INTRA:                  -1.135
REMARK UNBOUND:                -0.982
REMARK  Name = 
REMARK  8 active torsions:
REMARK  status: ('A' for Active; 'I' for Inactive)
REMARK    1  A    between atoms: C_2  and  C_3
REMARK    2  A    between atoms: C_8  and  N_9
REMARK    3  A    between atoms: N_9  and  C_10
REMARK    4  A    between atoms: C_10  and  C_11
REMARK    5  A    between atoms: C_11  and  C_13
REMARK    6  A    between atoms: C_17  and  O_18
REMARK    7  A    between atoms: O_18  and  C_19
REMARK    8  A    between atoms: C_23  and  O_24
REMARK                            x       y       z     vdW  Elec       q    Type
REMARK                         _______ _______ _______ _____ _____    ______ ____
ROOT
ATOM      1  C   UNL     1      45.430   4.280  12.910  0.00  0.00    +0.000 A 
ATOM      2  C   UNL     1      44.318   5.054  13.270  0.00  0.00    +0.000 A 
ATOM      3  C   UNL     1      43.117   4.940  12.568  0.00  0.00    +0.000 A 
ATOM      4  C   UNL     1      43.026   4.083  11.471  0.00  0.00    +0.000 A 
ATOM      5  C   UNL     1      44.150   3.378  11.043  0.00  0.00    +0.000 A 
ATOM      6  C   UNL     1      45.329   3.433  11.794  0.00  0.00    +0.000 A 
ENDROOT
BRANCH   1   7
ATOM      7  C   UNL     1      46.726   4.387  13.700  0.00  0.00    +0.000 C 
ATOM      8  F   UNL     1      46.533   4.038  15.013  0.00  0.00    +0.000 F 
BRANCH   7   9
ATOM      9  C   UNL     1      47.294   5.827  13.666  0.00  0.00    +0.000 C 
BRANCH   9  10
ATOM     10  N   UNL     1      47.368   6.430  12.312  0.00  0.00    +0.000 N 
ATOM     11  H   UNL     1      48.188   6.116  11.801  0.00  0.00    +0.000 HD
BRANCH  10  17
ATOM     12  C   UNL     1      48.204   8.697  11.876  0.00  0.00    +0.000 A 
ATOM     13  C   UNL     1      47.908  10.059  11.701  0.00  0.00    +0.000 A 
ATOM     14  C   UNL     1      46.605  10.507  11.853  0.00  0.00    +0.000 A 
ATOM     15  C   UNL     1      45.646   9.581  12.197  0.00  0.00    +0.000 A 
ATOM     16  N   UNL     1      45.910   8.271  12.406  0.00  0.00    +0.000 NA
ATOM     17  C   UNL     1      47.171   7.814  12.235  0.00  0.00    +0.000 A 
BRANCH  12  19
ATOM     18  N   UNL     1      50.668   7.983  11.486  0.00  0.00    +0.000 NA
ATOM     19  C   UNL     1      49.568   8.279  11.695  0.00  0.00    +0.000 C 
ENDBRANCH  12  19
ENDBRANCH  10  17
ENDBRANCH   9  10
ENDBRANCH   7   9
ENDBRANCH   1   7
BRANCH   5  20
ATOM     20  O   UNL     1      44.209   2.639   9.889  0.00  0.00    +0.000 OA
BRANCH  20  21
ATOM     21  C   UNL     1      45.461   2.660   9.195  0.00  0.00    +0.000 C 
ATOM     22  C   UNL     1      45.774   1.370   8.430  0.00  0.00    +0.000 C 
ATOM     23  C   UNL     1      46.857   1.786   7.443  0.00  0.00    +0.000 C 
ATOM     24  C   UNL     1      46.601   3.264   7.151  0.00  0.00    +0.000 C 
ATOM     25  C   UNL     1      45.413   3.664   8.029  0.00  0.00    +0.000 C 
BRANCH  25  26
ATOM     26  O   UNL     1      45.517   5.021   8.433  0.00  0.00    +0.000 OA
ATOM     27  H   UNL     1      46.372   5.147   8.878  0.00  0.00    +0.000 HD
ENDBRANCH  25  26
ENDBRANCH  20  21
ENDBRANCH   5  20
TORSDOF 8
ENDMDL
MODEL 5
REMARK VINA RESULT:    -7.312      2.615      4.066
REMARK INTER + INTRA:         -11.500
REMARK INTER:                 -10.021
REMARK INTRA:                  -1.480
REMARK UNBOUND:                -0.982
REMARK  Name = 
REMARK  8 active torsions:
REMARK  status: ('A' for Active; 'I' for Inactive)
REMARK    1  A    between atoms: C_2  and  C_3
REMARK    2  A    between atoms: C_8  and  N_9
REMARK    3  A    between atoms: N_9  and  C_10
REMARK    4  A    between atoms: C_10  and  C_11
REMARK    5  A    between atoms: C_11  and  C_13
REMARK    6  A    between atoms: C_17  and  O_18
REMARK    7  A    between atoms: O_18  and  C_19
REMARK    8  A    between atoms: C_23  and  O_24
REMARK                            x       y       z     vdW  Elec       q    Type
REMARK                         _______ _______ _______ _____ _____    ______ ____
ROOT
ATOM      1  C   UNL     1      45.643   3.929  12.964  0.00  0.00    +0.000 A 
ATOM      2  C   UNL     1      44.538   4.603  13.504  0.00  0.00    +0.000 A 
ATOM      3  C   UNL     1      43.290   4.532  12.884  0.00  0.00    +0.000 A 
ATOM      4  C   UNL     1      43.139   3.821  11.694  0.00  0.00    +0.000 A 
ATOM      5  C   UNL     1      44.248   3.225  11.094  0.00  0.00    +0.000 A 
ATOM      6  C   UNL     1      45.480   3.230  11.756  0.00  0.00    +0.000 A 
ENDROOT
BRANCH   1   7
ATOM      7  C   UNL     1      46.992   3.987  13.663  0.00  0.00    +0.000 C 
ATOM      8  F   UNL     1      47.312   2.774  14.219  0.00  0.00    +0.000 F 
BRANCH   7   9
ATOM      9  C   UNL     1      47.002   5.048  14.790  0.00  0.00    +0.000 C 
BRANCH   9  10
ATOM     10  N   UNL     1      46.977   6.454  14.317  0.00  0.00    +0.000 N 
ATOM     11  H   UNL     1      46.063   6.719  13.962  0.00  0.00    +0.000 HD
BRANCH  10  17
ATOM     12  C   UNL     1      47.825   7.140  12.117  0.00  0.00    +0.000 A 
ATOM     13  C   UNL     1      48.896   7.644  11.361  0.00  0.00    +0.000 A 
ATOM     14  C   UNL     1      50.120   7.874  11.967  0.00  0.00    +0.000 A 
ATOM     15  C   UNL     1      50.239   7.570  13.305  0.00  0.00    +0.000 A 
ATOM     16  N   UNL     1      49.235   7.051  14.048  0.00  0.00    +0.000 NA
ATOM     17  C   UNL     1      48.026   6.847  13.477  0.00  0.00    +0.000 A 
BRANCH  12  19
ATOM     18  N   UNL     1      45.557   6.837  10.890  0.00  0.00    +0.000 NA
ATOM     19  C   UNL     1      46.570   6.931  11.445  0.00  0.00    +0.000 C 
ENDBRANCH  12  19
ENDBRANCH  10  17
ENDBRANCH   9  10
ENDBRANCH   7   9
ENDBRANCH   1   7
BRANCH   5  20
ATOM     20  O   UNL     1      44.240   2.643   9.851  0.00  0.00    +0.000 OA
BRANCH  20  21
ATOM     21  C   UNL     1      45.482   2.665   9.142  0.00  0.00    +0.000 C 
ATOM     22  C   UNL     1      45.795   1.366   8.390  0.00  0.00    +0.000 C 
ATOM     23  C   UNL     1      46.863   1.777   7.384  0.00  0.00    +0.000 C 
ATOM     24  C   UNL     1      46.593   3.249   7.076  0.00  0.00    +0.000 C 
ATOM     25  C   UNL     1      45.413   3.652   7.963  0.00  0.00    +0.000 C 
BRANCH  25  26
ATOM     26  O   UNL     1      45.511   5.015   8.347  0.00  0.00    +0.000 OA
ATOM     27  H   UNL     1      45.548   5.061   9.317  0.00  0.00    +0.000 HD
ENDBRANCH  25  26
ENDBRANCH  20  21
ENDBRANCH   5  20
TORSDOF 8
ENDMDL
MODEL 6
REMARK VINA RESULT:    -7.026      2.037      2.472
REMARK INTER + INTRA:         -11.089
REMARK INTER:                 -10.129
REMARK INTRA:                  -0.960
REMARK UNBOUND:                -0.982
REMARK  Name = 
REMARK  8 active torsions:
REMARK  status: ('A' for Active; 'I' for Inactive)
REMARK    1  A    between atoms: C_2  and  C_3
REMARK    2  A    between atoms: C_8  and  N_9
REMARK    3  A    between atoms: N_9  and  C_10
REMARK    4  A    between atoms: C_10  and  C_11
REMARK    5  A    between atoms: C_11  and  C_13
REMARK    6  A    between atoms: C_17  and  O_18
REMARK    7  A    between atoms: O_18  and  C_19
REMARK    8  A    between atoms: C_23  and  O_24
REMARK                            x       y       z     vdW  Elec       q    Type
REMARK                         _______ _______ _______ _____ _____    ______ ____
ROOT
ATOM      1  C   UNL     1      46.626   6.180  12.949  0.00  0.00    +0.000 A 
ATOM      2  C   UNL     1      46.369   7.558  12.917  0.00  0.00    +0.000 A 
ATOM      3  C   UNL     1      45.266   8.058  12.224  0.00  0.00    +0.000 A 
ATOM      4  C   UNL     1      44.431   7.192  11.519  0.00  0.00    +0.000 A 
ATOM      5  C   UNL     1      44.727   5.831  11.463  0.00  0.00    +0.000 A 
ATOM      6  C   UNL     1      45.785   5.321  12.222  0.00  0.00    +0.000 A 
ENDROOT
BRANCH   1   7
ATOM      7  C   UNL     1      47.813   5.640  13.733  0.00  0.00    +0.000 C 
ATOM      8  F   UNL     1      47.493   4.464  14.363  0.00  0.00    +0.000 F 
BRANCH   7   9
ATOM      9  C   UNL     1      48.287   6.647  14.809  0.00  0.00    +0.000 C 
BRANCH   9  10
ATOM     10  N   UNL     1      48.092   6.195  16.209  0.00  0.00    +0.000 N 
ATOM     11  H   UNL     1      47.753   6.943  16.806  0.00  0.00    +0.000 HD
BRANCH  10  17
ATOM     12  C   UNL     1      48.957   4.182  17.318  0.00  0.00    +0.000 A 
ATOM     13  C   UNL     1      50.076   3.462  17.768  0.00  0.00    +0.000 A 
ATOM     14  C   UNL     1      51.343   4.012  17.651  0.00  0.00    +0.000 A 
ATOM     15  C   UNL     1      51.446   5.273  17.108  0.00  0.00    +0.000 A 
ATOM     16  N   UNL     1      50.382   6.002  16.699  0.00  0.00    +0.000 NA
ATOM     17  C   UNL     1      49.143   5.469  16.782  0.00  0.00    +0.000 A 
BRANCH  12  19
ATOM     18  N   UNL     1      46.638   3.030  17.490  0.00  0.00    +0.000 NA
ATOM     19  C   UNL     1      47.665   3.564  17.449  0.00  0.00    +0.000 C 
ENDBRANCH  12  19
ENDBRANCH  10  17
ENDBRANCH   9  10
ENDBRANCH   7   9
ENDBRANCH   1   7
BRANCH   5  20
ATOM     20  O   UNL     1      44.066   4.924  10.673  0.00  0.00    +0.000 OA
BRANCH  20  21
ATOM     21  C   UNL     1      44.878   3.913  10.068  0.00  0.00    +0.000 C 
ATOM     22  C   UNL     1      44.200   2.541   9.972  0.00  0.00    +0.000 C 
ATOM     23  C   UNL     1      45.022   1.802   8.925  0.00  0.00    +0.000 C 
ATOM     24  C   UNL     1      45.570   2.882   7.994  0.00  0.00    +0.000 C 
ATOM     25  C   UNL     1      45.093   4.215   8.575  0.00  0.00    +0.000 C 
BRANCH  25  26
ATOM     26  O   UNL     1      46.040   5.243   8.326  0.00  0.00    +0.000 OA
ATOM     27  H   UNL     1      45.911   5.570   7.420  0.00  0.00    +0.000 HD
ENDBRANCH  25  26
ENDBRANCH  20  21
ENDBRANCH   5  20
TORSDOF 8
ENDMDL
MODEL 7
REMARK VINA RESULT:    -6.951      2.785      3.051
REMARK INTER + INTRA:         -10.981
REMARK INTER:                 -10.204
REMARK INTRA:                  -0.777
REMARK UNBOUND:                -0.982
REMARK  Name = 
REMARK  8 active torsions:
REMARK  status: ('A' for Active; 'I' for Inactive)
REMARK    1  A    between atoms: C_2  and  C_3
REMARK    2  A    between atoms: C_8  and  N_9
REMARK    3  A    between atoms: N_9  and  C_10
REMARK    4  A    between atoms: C_10  and  C_11
REMARK    5  A    between atoms: C_11  and  C_13
REMARK    6  A    between atoms: C_17  and  O_18
REMARK    7  A    between atoms: O_18  and  C_19
REMARK    8  A    between atoms: C_23  and  O_24
REMARK                            x       y       z     vdW  Elec       q    Type
REMARK                         _______ _______ _______ _____ _____    ______ ____
ROOT
ATOM      1  C   UNL     1      45.429   5.951  12.009  0.00  0.00    +0.000 A 
ATOM      2  C   UNL     1      44.272   5.938  12.800  0.00  0.00    +0.000 A 
ATOM      3  C   UNL     1      43.160   5.186  12.420  0.00  0.00    +0.000 A 
ATOM      4  C   UNL     1      43.175   4.471  11.223  0.00  0.00    +0.000 A 
ATOM      5  C   UNL     1      44.282   4.549  10.378  0.00  0.00    +0.000 A 
ATOM      6  C   UNL     1      45.425   5.238  10.798  0.00  0.00    +0.000 A 
ENDROOT
BRANCH   1   7
ATOM      7  C   UNL     1      46.648   6.749  12.446  0.00  0.00    +0.000 C 
ATOM      8  F   UNL     1      47.524   6.922  11.405  0.00  0.00    +0.000 F 
BRANCH   7   9
ATOM      9  C   UNL     1      47.406   6.042  13.597  0.00  0.00    +0.000 C 
BRANCH   9  10
ATOM     10  N   UNL     1      47.948   6.955  14.633  0.00  0.00    +0.000 N 
ATOM     11  H   UNL     1      48.184   7.866  14.251  0.00  0.00    +0.000 HD
BRANCH  10  17
ATOM     12  C   UNL     1      50.223   7.017  15.555  0.00  0.00    +0.000 A 
ATOM     13  C   UNL     1      51.138   6.515  16.495  0.00  0.00    +0.000 A 
ATOM     14  C   UNL     1      50.764   5.478  17.335  0.00  0.00    +0.000 A 
ATOM     15  C   UNL     1      49.496   4.963  17.191  0.00  0.00    +0.000 A 
ATOM     16  N   UNL     1      48.608   5.403  16.271  0.00  0.00    +0.000 NA
ATOM     17  C   UNL     1      48.948   6.433  15.463  0.00  0.00    +0.000 A 
BRANCH  12  19
ATOM     18  N   UNL     1      51.034   8.925  13.993  0.00  0.00    +0.000 NA
ATOM     19  C   UNL     1      50.653   8.103  14.714  0.00  0.00    +0.000 C 
ENDBRANCH  12  19
ENDBRANCH  10  17
ENDBRANCH   9  10
ENDBRANCH   7   9
ENDBRANCH   1   7
BRANCH   5  20
ATOM     20  O   UNL     1      44.334   4.018   9.115  0.00  0.00    +0.000 OA
BRANCH  20  21
ATOM     21  C   UNL     1      45.461   3.182   8.833  0.00  0.00    +0.000 C 
ATOM     22  C   UNL     1      45.127   1.688   8.749  0.00  0.00    +0.000 C 
ATOM     23  C   UNL     1      46.317   1.091   8.011  0.00  0.00    +0.000 C 
ATOM     24  C   UNL     1      46.842   2.205   7.106  0.00  0.00    +0.000 C 
ATOM     25  C   UNL     1      45.970   3.428   7.402  0.00  0.00    +0.000 C 
BRANCH  25  26
ATOM     26  O   UNL     1      46.715   4.627   7.253  0.00  0.00    +0.000 OA
ATOM     27  H   UNL     1      46.186   5.259   6.738  0.00  0.00    +0.000 HD
ENDBRANCH  25  26
ENDBRANCH  20  21
ENDBRANCH   5  20
TORSDOF 8
ENDMDL
MODEL 8
REMARK VINA RESULT:    -6.783      4.599      6.407
REMARK INTER + INTRA:         -10.740
REMARK INTER:                  -9.907
REMARK INTRA:                  -0.832
REMARK UNBOUND:                -0.982
REMARK  Name = 
REMARK  8 active torsions:
REMARK  status: ('A' for Active; 'I' for Inactive)
REMARK    1  A    between atoms: C_2  and  C_3
REMARK    2  A    between atoms: C_8  and  N_9
REMARK    3  A    between atoms: N_9  and  C_10
REMARK    4  A    between atoms: C_10  and  C_11
REMARK    5  A    between atoms: C_11  and  C_13
REMARK    6  A    between atoms: C_17  and  O_18
REMARK    7  A    between atoms: O_18  and  C_19
REMARK    8  A    between atoms: C_23  and  O_24
REMARK                            x       y       z     vdW  Elec       q    Type
REMARK                         _______ _______ _______ _____ _____    ______ ____
ROOT
ATOM      1  C   UNL     1      45.115   5.017  11.918  0.00  0.00    +0.000 A 
ATOM      2  C   UNL     1      44.172   4.447  12.786  0.00  0.00    +0.000 A 
ATOM      3  C   UNL     1      43.445   3.319  12.403  0.00  0.00    +0.000 A 
ATOM      4  C   UNL     1      43.619   2.773  11.132  0.00  0.00    +0.000 A 
ATOM      5  C   UNL     1      44.482   3.384  10.223  0.00  0.00    +0.000 A 
ATOM      6  C   UNL     1      45.269   4.465  10.635  0.00  0.00    +0.000 A 
ENDROOT
BRANCH   1   7
ATOM      7  C   UNL     1      45.926   6.227  12.356  0.00  0.00    +0.000 C 
ATOM      8  F   UNL     1      46.461   6.036  13.605  0.00  0.00    +0.000 F 
BRANCH   7   9
ATOM      9  C   UNL     1      45.057   7.507  12.397  0.00  0.00    +0.000 C 
BRANCH   9  10
ATOM     10  N   UNL     1      44.799   8.123  11.072  0.00  0.00    +0.000 N 
ATOM     11  H   UNL     1      45.643   8.184  10.511  0.00  0.00    +0.000 HD
BRANCH  10  17
ATOM     12  C   UNL     1      44.645  10.565  11.262  0.00  0.00    +0.000 A 
ATOM     13  C   UNL     1      43.856  11.720  11.128  0.00  0.00    +0.000 A 
ATOM     14  C   UNL     1      42.520  11.606  10.779  0.00  0.00    +0.000 A 
ATOM     15  C   UNL     1      42.011  10.339  10.599  0.00  0.00    +0.000 A 
ATOM     16  N   UNL     1      42.739   9.210  10.756  0.00  0.00    +0.000 NA
ATOM     17  C   UNL     1      44.051   9.306  11.069  0.00  0.00    +0.000 A 
BRANCH  12  19
ATOM     18  N   UNL     1      47.124  10.935  11.936  0.00  0.00    +0.000 NA
ATOM     19  C   UNL     1      46.030  10.736  11.613  0.00  0.00    +0.000 C 
ENDBRANCH  12  19
ENDBRANCH  10  17
ENDBRANCH   9  10
ENDBRANCH   7   9
ENDBRANCH   1   7
BRANCH   5  20
ATOM     20  O   UNL     1      44.605   3.024   8.905  0.00  0.00    +0.000 OA
BRANCH  20  21
ATOM     21  C   UNL     1      45.908   2.604   8.489  0.00  0.00    +0.000 C 
ATOM     22  C   UNL     1      46.003   1.115   8.136  0.00  0.00    +0.000 C 
ATOM     23  C   UNL     1      47.281   1.017   7.314  0.00  0.00    +0.000 C 
ATOM     24  C   UNL     1      47.433   2.375   6.628  0.00  0.00    +0.000 C 
ATOM     25  C   UNL     1      46.268   3.229   7.130  0.00  0.00    +0.000 C 
BRANCH  25  26
ATOM     26  O   UNL     1      46.640   4.597   7.206  0.00  0.00    +0.000 OA
ATOM     27  H   UNL     1      47.415   4.739   6.637  0.00  0.00    +0.000 HD
ENDBRANCH  25  26
ENDBRANCH  20  21
ENDBRANCH   5  20
TORSDOF 8
ENDMDL
MODEL 9
REMARK VINA RESULT:    -6.552      3.819      7.579
REMARK INTER + INTRA:         -10.407
REMARK INTER:                  -8.805
REMARK INTRA:                  -1.602
REMARK UNBOUND:                -0.982
REMARK  Name = 
REMARK  8 active torsions:
REMARK  status: ('A' for Active; 'I' for Inactive)
REMARK    1  A    between atoms: C_2  and  C_3
REMARK    2  A    between atoms: C_8  and  N_9
REMARK    3  A    between atoms: N_9  and  C_10
REMARK    4  A    between atoms: C_10  and  C_11
REMARK    5  A    between atoms: C_11  and  C_13
REMARK    6  A    between atoms: C_17  and  O_18
REMARK    7  A    between atoms: O_18  and  C_19
REMARK    8  A    between atoms: C_23  and  O_24
REMARK                            x       y       z     vdW  Elec       q    Type
REMARK                         _______ _______ _______ _____ _____    ______ ____
ROOT
ATOM      1  C   UNL     1      48.520   7.597  14.044  0.00  0.00    +0.000 A 
ATOM      2  C   UNL     1      48.532   8.983  14.255  0.00  0.00    +0.000 A 
ATOM      3  C   UNL     1      48.819   9.506  15.516  0.00  0.00    +0.000 A 
ATOM      4  C   UNL     1      49.057   8.651  16.592  0.00  0.00    +0.000 A 
ATOM      5  C   UNL     1      48.956   7.271  16.419  0.00  0.00    +0.000 A 
ATOM      6  C   UNL     1      48.746   6.747  15.139  0.00  0.00    +0.000 A 
ENDROOT
BRANCH   1   7
ATOM      7  C   UNL     1      48.237   7.036  12.659  0.00  0.00    +0.000 C 
ATOM      8  F   UNL     1      49.049   7.614  11.717  0.00  0.00    +0.000 F 
BRANCH   7   9
ATOM      9  C   UNL     1      46.766   7.279  12.238  0.00  0.00    +0.000 C 
BRANCH   9  10
ATOM     10  N   UNL     1      45.757   6.633  13.113  0.00  0.00    +0.000 N 
ATOM     11  H   UNL     1      46.147   6.374  14.014  0.00  0.00    +0.000 HD
BRANCH  10  17
ATOM     12  C   UNL     1      45.261   4.254  12.763  0.00  0.00    +0.000 A 
ATOM     13  C   UNL     1      44.381   3.287  12.249  0.00  0.00    +0.000 A 
ATOM     14  C   UNL     1      43.250   3.685  11.553  0.00  0.00    +0.000 A 
ATOM     15  C   UNL     1      43.049   5.035  11.375  0.00  0.00    +0.000 A 
ATOM     16  N   UNL     1      43.898   5.985  11.829  0.00  0.00    +0.000 NA
ATOM     17  C   UNL     1      44.991   5.615  12.533  0.00  0.00    +0.000 A 
BRANCH  12  19
ATOM     18  N   UNL     1      47.298   3.412  14.133  0.00  0.00    +0.000 NA
ATOM     19  C   UNL     1      46.414   3.793  13.488  0.00  0.00    +0.000 C 
ENDBRANCH  12  19
ENDBRANCH  10  17
ENDBRANCH   9  10
ENDBRANCH   7   9
ENDBRANCH   1   7
BRANCH   5  20
ATOM     20  O   UNL     1      49.013   6.354  17.438  0.00  0.00    +0.000 OA
BRANCH  20  21
ATOM     21  C   UNL     1      49.002   4.979  17.045  0.00  0.00    +0.000 C 
ATOM     22  C   UNL     1      50.165   4.157  17.611  0.00  0.00    +0.000 C 
ATOM     23  C   UNL     1      49.700   2.715  17.459  0.00  0.00    +0.000 C 
ATOM     24  C   UNL     1      48.175   2.764  17.547  0.00  0.00    +0.000 C 
ATOM     25  C   UNL     1      47.812   4.244  17.687  0.00  0.00    +0.000 C 
BRANCH  25  26
ATOM     26  O   UNL     1      46.564   4.518  17.068  0.00  0.00    +0.000 OA
ATOM     27  H   UNL     1      45.857   4.138  17.615  0.00  0.00    +0.000 HD
ENDBRANCH  25  26
ENDBRANCH  20  21
ENDBRANCH   5  20
TORSDOF 8
ENDMDL
