MODEL 1
REMARK VINA RESULT:    -7.476      0.000      0.000
REMARK INTER + INTRA:         -11.551
REMARK INTER:                 -10.753
REMARK INTRA:                  -0.798
REMARK UNBOUND:                -0.798
REMARK  Name = 
REMARK  8 active torsions:
REMARK  status: ('A' for Active; 'I' for Inactive)
REMARK    1  A    between atoms: C_2  and  C_3
REMARK    2  A    between atoms: N_13  and  C_14
REMARK    3  A    between atoms: N_13  and  C_17
REMARK    4  A    between atoms: C_14  and  C_15
REMARK    5  A    between atoms: C_15  and  O_16
REMARK    6  A    between atoms: C_17  and  C_18
REMARK    7  A    between atoms: C_21  and  O_22
REMARK    8  A    between atoms: O_22  and  C_23
REMARK                            x       y       z     vdW  Elec       q    Type
REMARK                         _______ _______ _______ _____ _____    ______ ____
ROOT
ATOM      1  O   UNL     1      43.748   7.370  11.403  0.00  0.00    +0.000 OA
ATOM      2  C   UNL     1      44.598   6.551  11.738  0.00  0.00    +0.000 C 
ATOM      3  N   UNL     1      45.818   6.950  12.322  0.00  0.00    +0.000 N 
ENDROOT
BRANCH   2   4
ATOM      4  C   UNL     1      44.298   5.115  11.541  0.00  0.00    +0.000 A 
ATOM      5  C   UNL     1      43.678   4.281  12.458  0.00  0.00    +0.000 A 
ATOM      6  S   UNL     1      43.455   2.683  11.902  0.00  0.00    +0.000 S 
ATOM      7  C   UNL     1      44.314   3.004  10.474  0.00  0.00    +0.000 A 
ATOM      8  N   UNL     1      44.531   2.023   9.559  0.00  0.00    +0.000 NA
ATOM      9  C   UNL     1      45.237   2.394   8.543  0.00  0.00    +0.000 A 
ATOM     10  N   UNL     1      45.742   3.655   8.362  0.00  0.00    +0.000 N 
ATOM     11  C   UNL     1      45.511   4.695   9.236  0.00  0.00    +0.000 A 
ATOM     12  O   UNL     1      45.927   5.821   8.990  0.00  0.00    +0.000 OA
ATOM     13  C   UNL     1      44.734   4.322  10.407  0.00  0.00    +0.000 A 
ATOM     14  H   UNL     1      46.282   3.884   7.541  0.00  0.00    +0.000 HD
ENDBRANCH   2   4
BRANCH   3  15
ATOM     15  C   UNL     1      46.072   8.356  12.723  0.00  0.00    +0.000 C 
BRANCH  15  16
ATOM     16  C   UNL     1      45.488   9.527  11.924  0.00  0.00    +0.000 C 
BRANCH  16  17
ATOM     17  O   UNL     1      44.333  10.068  12.557  0.00  0.00    +0.000 OA
ATOM     18  H   UNL     1      44.096  10.861  12.021  0.00  0.00    +0.000 HD
ENDBRANCH  16  17
ENDBRANCH  15  16
ENDBRANCH   3  15
BRANCH   3  19
ATOM     19  C   UNL     1      46.903   5.994  12.555  0.00  0.00    +0.000 C 
BRANCH  19  20
ATOM     20  C   UNL     1      47.300   5.658  13.972  0.00  0.00    +0.000 A 
ATOM     21  C   UNL     1      46.782   4.522  14.600  0.00  0.00    +0.000 A 
ATOM     22  C   UNL     1      47.248   4.143  15.859  0.00  0.00    +0.000 A 
ATOM     23  C   UNL     1      48.266   4.871  16.481  0.00  0.00    +0.000 A 
ATOM     24  C   UNL     1      48.729   6.050  15.902  0.00  0.00    +0.000 A 
ATOM     25  C   UNL     1      48.248   6.443  14.651  0.00  0.00    +0.000 A 
BRANCH  23  26
ATOM     26  O   UNL     1      48.820   4.513  17.689  0.00  0.00    +0.000 OA
BRANCH  26  27
ATOM     27  C   UNL     1      49.964   3.723  17.664  0.00  0.00    +0.000 A 
ATOM     28  C   UNL     1      51.092   4.216  18.303  0.00  0.00    +0.000 A 
ATOM     29  N   UNL     1      52.248   3.509  18.390  0.00  0.00    +0.000 NA
ATOM     30  C   UNL     1      52.223   2.291  17.801  0.00  0.00    +0.000 A 
ATOM     31  C   UNL     1      51.108   1.811  17.136  0.00  0.00    +0.000 A 
ATOM     32  N   UNL     1      49.961   2.519  17.040  0.00  0.00    +0.000 NA
ENDBRANCH  26  27
ENDBRANCH  23  26
ENDBRANCH  19  20
ENDBRANCH   3  19
TORSDOF 8
ENDMDL
MODEL 2
REMARK VINA RESULT:    -7.023      3.809      8.423
REMARK INTER + INTRA:         -10.900
REMARK INTER:                  -9.867
REMARK INTRA:                  -1.033
REMARK UNBOUND:                -0.798
REMARK  Name = 
REMARK  8 active torsions:
REMARK  status: ('A' for Active; 'I' for Inactive)
REMARK    1  A    between atoms: C_2  and  C_3
REMARK    2  A    between atoms: N_13  and  C_14
REMARK    3  A    between atoms: N_13  and  C_17
REMARK    4  A    between atoms: C_14  and  C_15
REMARK    5  A    between atoms: C_15  and  O_16
REMARK    6  A    between atoms: C_17  and  C_18
REMARK    7  A    between atoms: C_21  and  O_22
REMARK    8  A    between atoms: O_22  and  C_23
REMARK                            x       y       z     vdW  Elec       q    Type
REMARK                         _______ _______ _______ _____ _____    ______ ____
ROOT
ATOM      1  O   UNL     1      49.164   6.258  14.325  0.00  0.00    +0.000 OA
ATOM      2  C   UNL     1      48.240   6.824  13.748  0.00  0.00    +0.000 C 
ATOM      3  N   UNL     1      46.953   6.251  13.677  0.00  0.00    +0.000 N 
ENDROOT
BRANCH   2   4
ATOM      4  C   UNL     1      48.502   8.151  13.148  0.00  0.00    +0.000 A 
ATOM      5  C   UNL     1      48.795   8.397  11.816  0.00  0.00    +0.000 A 
ATOM      6  S   UNL     1      49.014  10.050  11.448  0.00  0.00    +0.000 S 
ATOM      7  C   UNL     1      48.875  10.486  13.083  0.00  0.00    +0.000 A 
ATOM      8  N   UNL     1      49.014  11.782  13.468  0.00  0.00    +0.000 NA
ATOM      9  C   UNL     1      48.931  11.965  14.745  0.00  0.00    +0.000 A 
ATOM     10  N   UNL     1      48.721  10.970  15.664  0.00  0.00    +0.000 N 
ATOM     11  C   UNL     1      48.528   9.650  15.320  0.00  0.00    +0.000 A 
ATOM     12  O   UNL     1      48.273   8.811  16.177  0.00  0.00    +0.000 OA
ATOM     13  C   UNL     1      48.629   9.390  13.892  0.00  0.00    +0.000 A 
ATOM     14  H   UNL     1      48.660  11.179  16.649  0.00  0.00    +0.000 HD
ENDBRANCH   2   4
BRANCH   3  15
ATOM     15  C   UNL     1      46.598   5.026  14.435  0.00  0.00    +0.000 C 
BRANCH  15  16
ATOM     16  C   UNL     1      46.907   3.631  13.880  0.00  0.00    +0.000 C 
BRANCH  16  17
ATOM     17  O   UNL     1      47.711   2.876  14.779  0.00  0.00    +0.000 OA
ATOM     18  H   UNL     1      47.518   3.250  15.670  0.00  0.00    +0.000 HD
ENDBRANCH  16  17
ENDBRANCH  15  16
ENDBRANCH   3  15
BRANCH   3  19
ATOM     19  C   UNL     1      45.902   6.835  12.839  0.00  0.00    +0.000 C 
BRANCH  19  20
ATOM     20  C   UNL     1      45.482   6.121  11.577  0.00  0.00    +0.000 A 
ATOM     21  C   UNL     1      46.261   6.214  10.420  0.00  0.00    +0.000 A 
ATOM     22  C   UNL     1      45.941   5.451   9.298  0.00  0.00    +0.000 A 
ATOM     23  C   UNL     1      44.866   4.558   9.335  0.00  0.00    +0.000 A 
ATOM     24  C   UNL     1      44.036   4.520  10.453  0.00  0.00    +0.000 A 
ATOM     25  C   UNL     1      44.342   5.299  11.571  0.00  0.00    +0.000 A 
BRANCH  23  26
ATOM     26  O   UNL     1      44.540   3.726   8.289  0.00  0.00    +0.000 OA
BRANCH  26  27
ATOM     27  C   UNL     1      45.537   2.897   7.788  0.00  0.00    +0.000 A 
ATOM     28  C   UNL     1      46.262   3.359   6.699  0.00  0.00    +0.000 A 
ATOM     29  N   UNL     1      47.294   2.661   6.161  0.00  0.00    +0.000 NA
ATOM     30  C   UNL     1      47.559   1.476   6.757  0.00  0.00    +0.000 A 
ATOM     31  C   UNL     1      46.817   0.999   7.824  0.00  0.00    +0.000 A 
ATOM     32  N   UNL     1      45.783   1.689   8.353  0.00  0.00    +0.000 NA
ENDBRANCH  26  27
ENDBRANCH  23  26
ENDBRANCH  19  20
ENDBRANCH   3  19
TORSDOF 8
ENDMDL
MODEL 3
REMARK VINA RESULT:    -6.972      1.867      2.306
REMARK INTER + INTRA:         -10.827
REMARK INTER:                  -9.441
REMARK INTRA:                  -1.386
REMARK UNBOUND:                -0.798
REMARK  Name = 
REMARK  8 active torsions:
REMARK  status: ('A' for Active; 'I' for Inactive)
REMARK    1  A    between atoms: C_2  and  C_3
REMARK    2  A    between atoms: N_13  and  C_14
REMARK    3  A    between atoms: N_13  and  C_17
REMARK    4  A    between atoms: C_14  and  C_15
REMARK    5  A    between atoms: C_15  and  O_16
REMARK    6  A    between atoms: C_17  and  C_18
REMARK    7  A    between atoms: C_21  and  O_22
REMARK    8  A    between atoms: O_22  and  C_23
REMARK                            x       y       z     vdW  Elec       q    Type
REMARK                         _______ _______ _______ _____ _____    ______ ____
ROOT
ATOM      1  O   UNL     1      44.036   7.549  10.966  0.00  0.00    +0.000 OA
ATOM      2  C   UNL     1      44.833   6.714  11.384  0.00  0.00    +0.000 C 
ATOM      3  N   UNL     1      46.090   7.088  11.902  0.00  0.00    +0.000 N 
ENDROOT
BRANCH   2   4
ATOM      4  C   UNL     1      44.427   5.291  11.359  0.00  0.00    +0.000 A 
ATOM      5  C   UNL     1      43.773   4.615  12.377  0.00  0.00    +0.000 A 
ATOM      6  S   UNL     1      43.423   2.984  12.013  0.00  0.00    +0.000 S 
ATOM      7  C   UNL     1      44.267   3.077  10.542  0.00  0.00    +0.000 A 
ATOM      8  N   UNL     1      44.390   1.984   9.743  0.00  0.00    +0.000 NA
ATOM      9  C   UNL     1      45.095   2.185   8.679  0.00  0.00    +0.000 A 
ATOM     10  N   UNL     1      45.682   3.377   8.345  0.00  0.00    +0.000 N 
ATOM     11  C   UNL     1      45.548   4.524   9.097  0.00  0.00    +0.000 A 
ATOM     12  O   UNL     1      46.036   5.582   8.716  0.00  0.00    +0.000 OA
ATOM     13  C   UNL     1      44.776   4.345  10.316  0.00  0.00    +0.000 A 
ATOM     14  H   UNL     1      46.216   3.471   7.494  0.00  0.00    +0.000 HD
ENDBRANCH   2   4
BRANCH   3  15
ATOM     15  C   UNL     1      46.452   8.508  12.134  0.00  0.00    +0.000 C 
BRANCH  15  16
ATOM     16  C   UNL     1      45.759   9.337  13.221  0.00  0.00    +0.000 C 
BRANCH  16  17
ATOM     17  O   UNL     1      44.533   9.892  12.756  0.00  0.00    +0.000 OA
ATOM     18  H   UNL     1      44.639  10.867  12.860  0.00  0.00    +0.000 HD
ENDBRANCH  16  17
ENDBRANCH  15  16
ENDBRANCH   3  15
BRANCH   3  19
ATOM     19  C   UNL     1      47.109   6.088  12.231  0.00  0.00    +0.000 C 
BRANCH  19  20
ATOM     20  C   UNL     1      47.411   5.789  13.679  0.00  0.00    +0.000 A 
ATOM     21  C   UNL     1      46.847   4.671  14.302  0.00  0.00    +0.000 A 
ATOM     22  C   UNL     1      47.229   4.325  15.598  0.00  0.00    +0.000 A 
ATOM     23  C   UNL     1      48.206   5.068  16.267  0.00  0.00    +0.000 A 
ATOM     24  C   UNL     1      48.711   6.230  15.688  0.00  0.00    +0.000 A 
ATOM     25  C   UNL     1      48.315   6.590  14.398  0.00  0.00    +0.000 A 
BRANCH  23  26
ATOM     26  O   UNL     1      48.678   4.741  17.517  0.00  0.00    +0.000 OA
BRANCH  26  27
ATOM     27  C   UNL     1      48.613   5.715  18.507  0.00  0.00    +0.000 A 
ATOM     28  C   UNL     1      49.814   6.195  19.008  0.00  0.00    +0.000 A 
ATOM     29  N   UNL     1      49.874   7.184  19.936  0.00  0.00    +0.000 NA
ATOM     30  C   UNL     1      48.676   7.663  20.344  0.00  0.00    +0.000 A 
ATOM     31  C   UNL     1      47.476   7.163  19.867  0.00  0.00    +0.000 A 
ATOM     32  N   UNL     1      47.417   6.171  18.952  0.00  0.00    +0.000 NA
ENDBRANCH  26  27
ENDBRANCH  23  26
ENDBRANCH  19  20
ENDBRANCH   3  19
TORSDOF 8
ENDMDL
MODEL 4
REMARK VINA RESULT:    -6.896      3.296      8.184
REMARK INTER + INTRA:         -10.718
REMARK INTER:                  -9.354
REMARK INTRA:                  -1.364
REMARK UNBOUND:                -0.798
REMARK  Name = 
REMARK  8 active torsions:
REMARK  status: ('A' for Active; 'I' for Inactive)
REMARK    1  A    between atoms: C_2  and  C_3
REMARK    2  A    between atoms: N_13  and  C_14
REMARK    3  A    between atoms: N_13  and  C_17
REMARK    4  A    between atoms: C_14  and  C_15
REMARK    5  A    between atoms: C_15  and  O_16
REMARK    6  A    between atoms: C_17  and  C_18
REMARK    7  A    between atoms: C_21  and  O_22
REMARK    8  A    between atoms: O_22  and  C_23
REMARK                            x       y       z     vdW  Elec       q    Type
REMARK                         _______ _______ _______ _____ _____    ______ ____
ROOT
ATOM      1  O   UNL     1      50.970   7.638  14.774  0.00  0.00    +0.000 OA
ATOM      2  C   UNL     1      49.751   7.767  14.854  0.00  0.00    +0.000 C 
ATOM      3  N   UNL     1      48.916   7.597  13.730  0.00  0.00    +0.000 N 
ENDROOT
BRANCH   2   4
ATOM      4  C   UNL     1      49.170   8.078  16.178  0.00  0.00    +0.000 A 
ATOM      5  C   UNL     1      49.167   9.321  16.793  0.00  0.00    +0.000 A 
ATOM      6  S   UNL     1      48.385   9.342  18.310  0.00  0.00    +0.000 S 
ATOM      7  C   UNL     1      48.152   7.660  18.272  0.00  0.00    +0.000 A 
ATOM      8  N   UNL     1      47.563   7.019  19.315  0.00  0.00    +0.000 NA
ATOM      9  C   UNL     1      47.491   5.736  19.174  0.00  0.00    +0.000 A 
ATOM     10  N   UNL     1      47.952   5.044  18.084  0.00  0.00    +0.000 N 
ATOM     11  C   UNL     1      48.513   5.653  16.983  0.00  0.00    +0.000 A 
ATOM     12  O   UNL     1      48.845   4.992  16.005  0.00  0.00    +0.000 OA
ATOM     13  C   UNL     1      48.632   7.097  17.102  0.00  0.00    +0.000 A 
ATOM     14  H   UNL     1      47.860   4.041  18.031  0.00  0.00    +0.000 HD
ENDBRANCH   2   4
BRANCH   3  15
ATOM     15  C   UNL     1      49.435   7.087  12.437  0.00  0.00    +0.000 C 
BRANCH  15  16
ATOM     16  C   UNL     1      50.304   7.965  11.529  0.00  0.00    +0.000 C 
BRANCH  16  17
ATOM     17  O   UNL     1      51.688   7.821  11.829  0.00  0.00    +0.000 OA
ATOM     18  H   UNL     1      52.047   8.739  11.826  0.00  0.00    +0.000 HD
ENDBRANCH  16  17
ENDBRANCH  15  16
ENDBRANCH   3  15
BRANCH   3  19
ATOM     19  C   UNL     1      47.489   7.925  13.783  0.00  0.00    +0.000 C 
BRANCH  19  20
ATOM     20  C   UNL     1      46.512   7.104  12.977  0.00  0.00    +0.000 A 
ATOM     21  C   UNL     1      45.750   7.702  11.969  0.00  0.00    +0.000 A 
ATOM     22  C   UNL     1      44.946   6.918  11.141  0.00  0.00    +0.000 A 
ATOM     23  C   UNL     1      44.929   5.529  11.287  0.00  0.00    +0.000 A 
ATOM     24  C   UNL     1      45.619   4.933  12.340  0.00  0.00    +0.000 A 
ATOM     25  C   UNL     1      46.408   5.718  13.183  0.00  0.00    +0.000 A 
BRANCH  23  26
ATOM     26  O   UNL     1      44.213   4.692  10.460  0.00  0.00    +0.000 OA
BRANCH  26  27
ATOM     27  C   UNL     1      44.922   3.957   9.517  0.00  0.00    +0.000 A 
ATOM     28  C   UNL     1      44.915   2.576   9.648  0.00  0.00    +0.000 A 
ATOM     29  N   UNL     1      45.526   1.756   8.756  0.00  0.00    +0.000 NA
ATOM     30  C   UNL     1      46.150   2.382   7.732  0.00  0.00    +0.000 A 
ATOM     31  C   UNL     1      46.185   3.762   7.616  0.00  0.00    +0.000 A 
ATOM     32  N   UNL     1      45.586   4.578   8.511  0.00  0.00    +0.000 NA
ENDBRANCH  26  27
ENDBRANCH  23  26
ENDBRANCH  19  20
ENDBRANCH   3  19
TORSDOF 8
ENDMDL
MODEL 5
REMARK VINA RESULT:    -6.812      2.354      7.805
REMARK INTER + INTRA:         -10.597
REMARK INTER:                  -9.111
REMARK INTRA:                  -1.486
REMARK UNBOUND:                -0.798
REMARK  Name = 
REMARK  8 active torsions:
REMARK  status: ('A' for Active; 'I' for Inactive)
REMARK    1  A    between atoms: C_2  and  C_3
REMARK    2  A    between atoms: N_13  and  C_14
REMARK    3  A    between atoms: N_13  and  C_17
REMARK    4  A    between atoms: C_14  and  C_15
REMARK    5  A    between atoms: C_15  and  O_16
REMARK    6  A    between atoms: C_17  and  C_18
REMARK    7  A    between atoms: C_21  and  O_22
REMARK    8  A    between atoms: O_22  and  C_23
REMARK                            x       y       z     vdW  Elec       q    Type
REMARK                         _______ _______ _______ _____ _____    ______ ____
ROOT
ATOM      1  O   UNL     1      48.742   7.358  18.277  0.00  0.00    +0.000 OA
ATOM      2  C   UNL     1      48.866   6.721  17.235  0.00  0.00    +0.000 C 
ATOM      3  N   UNL     1      49.223   7.349  16.024  0.00  0.00    +0.000 N 
ENDROOT
BRANCH   2   4
ATOM      4  C   UNL     1      48.659   5.256  17.285  0.00  0.00    +0.000 A 
ATOM      5  C   UNL     1      47.438   4.611  17.408  0.00  0.00    +0.000 A 
ATOM      6  S   UNL     1      47.550   2.908  17.405  0.00  0.00    +0.000 S 
ATOM      7  C   UNL     1      49.247   2.968  17.391  0.00  0.00    +0.000 A 
ATOM      8  N   UNL     1      49.981   1.824  17.426  0.00  0.00    +0.000 NA
ATOM      9  C   UNL     1      51.258   2.017  17.457  0.00  0.00    +0.000 A 
ATOM     10  N   UNL     1      51.862   3.248  17.455  0.00  0.00    +0.000 N 
ATOM     11  C   UNL     1      51.164   4.433  17.373  0.00  0.00    +0.000 A 
ATOM     12  O   UNL     1      51.757   5.503  17.303  0.00  0.00    +0.000 OA
ATOM     13  C   UNL     1      49.719   4.269  17.353  0.00  0.00    +0.000 A 
ATOM     14  H   UNL     1      52.867   3.331  17.474  0.00  0.00    +0.000 HD
ENDBRANCH   2   4
BRANCH   3  15
ATOM     15  C   UNL     1      49.635   8.773  15.972  0.00  0.00    +0.000 C 
BRANCH  15  16
ATOM     16  C   UNL     1      48.598   9.898  15.870  0.00  0.00    +0.000 C 
BRANCH  16  17
ATOM     17  O   UNL     1      47.348   9.509  16.428  0.00  0.00    +0.000 OA
ATOM     18  H   UNL     1      46.982  10.330  16.833  0.00  0.00    +0.000 HD
ENDBRANCH  16  17
ENDBRANCH  15  16
ENDBRANCH   3  15
BRANCH   3  19
ATOM     19  C   UNL     1      49.194   6.625  14.750  0.00  0.00    +0.000 C 
BRANCH  19  20
ATOM     20  C   UNL     1      47.880   6.451  14.029  0.00  0.00    +0.000 A 
ATOM     21  C   UNL     1      47.300   7.526  13.348  0.00  0.00    +0.000 A 
ATOM     22  C   UNL     1      46.156   7.331  12.576  0.00  0.00    +0.000 A 
ATOM     23  C   UNL     1      45.605   6.053  12.444  0.00  0.00    +0.000 A 
ATOM     24  C   UNL     1      46.126   4.993  13.183  0.00  0.00    +0.000 A 
ATOM     25  C   UNL     1      47.260   5.192  13.974  0.00  0.00    +0.000 A 
BRANCH  23  26
ATOM     26  O   UNL     1      44.520   5.778  11.643  0.00  0.00    +0.000 OA
BRANCH  26  27
ATOM     27  C   UNL     1      44.722   4.950  10.545  0.00  0.00    +0.000 A 
ATOM     28  C   UNL     1      45.542   5.423   9.531  0.00  0.00    +0.000 A 
ATOM     29  N   UNL     1      45.854   4.681   8.439  0.00  0.00    +0.000 NA
ATOM     30  C   UNL     1      45.300   3.447   8.405  0.00  0.00    +0.000 A 
ATOM     31  C   UNL     1      44.456   2.984   9.400  0.00  0.00    +0.000 A 
ATOM     32  N   UNL     1      44.137   3.728  10.482  0.00  0.00    +0.000 NA
ENDBRANCH  26  27
ENDBRANCH  23  26
ENDBRANCH  19  20
ENDBRANCH   3  19
TORSDOF 8
ENDMDL
MODEL 6
REMARK VINA RESULT:    -6.796      1.519      2.162
REMARK INTER + INTRA:         -10.573
REMARK INTER:                  -9.147
REMARK INTRA:                  -1.426
REMARK UNBOUND:                -0.798
REMARK  Name = 
REMARK  8 active torsions:
REMARK  status: ('A' for Active; 'I' for Inactive)
REMARK    1  A    between atoms: C_2  and  C_3
REMARK    2  A    between atoms: N_13  and  C_14
REMARK    3  A    between atoms: N_13  and  C_17
REMARK    4  A    between atoms: C_14  and  C_15
REMARK    5  A    between atoms: C_15  and  O_16
REMARK    6  A    between atoms: C_17  and  C_18
REMARK    7  A    between atoms: C_21  and  O_22
REMARK    8  A    between atoms: O_22  and  C_23
REMARK                            x       y       z     vdW  Elec       q    Type
REMARK                         _______ _______ _______ _____ _____    ______ ____
ROOT
ATOM      1  O   UNL     1      44.721   8.188  11.031  0.00  0.00    +0.000 OA
ATOM      2  C   UNL     1      45.474   7.275  11.357  0.00  0.00    +0.000 C 
ATOM      3  N   UNL     1      46.461   7.451  12.349  0.00  0.00    +0.000 N 
ENDROOT
BRANCH   2   4
ATOM      4  C   UNL     1      45.301   5.961  10.699  0.00  0.00    +0.000 A 
ATOM      5  C   UNL     1      45.750   5.621   9.432  0.00  0.00    +0.000 A 
ATOM      6  S   UNL     1      45.410   4.009   8.985  0.00  0.00    +0.000 S 
ATOM      7  C   UNL     1      44.517   3.749  10.406  0.00  0.00    +0.000 A 
ATOM      8  N   UNL     1      43.903   2.557  10.630  0.00  0.00    +0.000 NA
ATOM      9  C   UNL     1      43.221   2.512  11.726  0.00  0.00    +0.000 A 
ATOM     10  N   UNL     1      43.102   3.549  12.614  0.00  0.00    +0.000 N 
ATOM     11  C   UNL     1      43.742   4.759  12.456  0.00  0.00    +0.000 A 
ATOM     12  O   UNL     1      43.658   5.628  13.316  0.00  0.00    +0.000 OA
ATOM     13  C   UNL     1      44.510   4.865  11.225  0.00  0.00    +0.000 A 
ATOM     14  H   UNL     1      42.559   3.449  13.458  0.00  0.00    +0.000 HD
ENDBRANCH   2   4
BRANCH   3  15
ATOM     15  C   UNL     1      46.534   8.683  13.173  0.00  0.00    +0.000 C 
BRANCH  15  16
ATOM     16  C   UNL     1      47.370   9.888  12.727  0.00  0.00    +0.000 C 
BRANCH  16  17
ATOM     17  O   UNL     1      46.737  10.602  11.671  0.00  0.00    +0.000 OA
ATOM     18  H   UNL     1      45.782  10.624  11.914  0.00  0.00    +0.000 HD
ENDBRANCH  16  17
ENDBRANCH  15  16
ENDBRANCH   3  15
BRANCH   3  19
ATOM     19  C   UNL     1      47.474   6.424  12.610  0.00  0.00    +0.000 C 
BRANCH  19  20
ATOM     20  C   UNL     1      47.614   5.863  14.004  0.00  0.00    +0.000 A 
ATOM     21  C   UNL     1      46.943   4.691  14.365  0.00  0.00    +0.000 A 
ATOM     22  C   UNL     1      47.176   4.105  15.608  0.00  0.00    +0.000 A 
ATOM     23  C   UNL     1      48.112   4.660  16.484  0.00  0.00    +0.000 A 
ATOM     24  C   UNL     1      48.724   5.872  16.169  0.00  0.00    +0.000 A 
ATOM     25  C   UNL     1      48.476   6.472  14.933  0.00  0.00    +0.000 A 
BRANCH  23  26
ATOM     26  O   UNL     1      48.442   4.094  17.695  0.00  0.00    +0.000 OA
BRANCH  26  27
ATOM     27  C   UNL     1      49.791   3.968  18.002  0.00  0.00    +0.000 A 
ATOM     28  C   UNL     1      50.258   4.649  19.117  0.00  0.00    +0.000 A 
ATOM     29  N   UNL     1      51.543   4.556  19.544  0.00  0.00    +0.000 NA
ATOM     30  C   UNL     1      52.340   3.758  18.797  0.00  0.00    +0.000 A 
ATOM     31  C   UNL     1      51.885   3.102  17.666  0.00  0.00    +0.000 A 
ATOM     32  N   UNL     1      50.608   3.204  17.236  0.00  0.00    +0.000 NA
ENDBRANCH  26  27
ENDBRANCH  23  26
ENDBRANCH  19  20
ENDBRANCH   3  19
TORSDOF 8
ENDMDL
MODEL 7
REMARK VINA RESULT:    -6.288      3.265      8.234
REMARK INTER + INTRA:          -9.843
REMARK INTER:                  -8.473
REMARK INTRA:                  -1.369
REMARK UNBOUND:                -0.798
REMARK  Name = 
REMARK  8 active torsions:
REMARK  status: ('A' for Active; 'I' for Inactive)
REMARK    1  A    between atoms: C_2  and  C_3
REMARK    2  A    between atoms: N_13  and  C_14
REMARK    3  A    between atoms: N_13  and  C_17
REMARK    4  A    between atoms: C_14  and  C_15
REMARK    5  A    between atoms: C_15  and  O_16
REMARK    6  A    between atoms: C_17  and  C_18
REMARK    7  A    between atoms: C_21  and  O_22
REMARK    8  A    between atoms: O_22  and  C_23
REMARK                            x       y       z     vdW  Elec       q    Type
REMARK                         _______ _______ _______ _____ _____    ______ ____
ROOT
ATOM      1  O   UNL     1      50.843   7.682  15.295  0.00  0.00    +0.000 OA
ATOM      2  C   UNL     1      49.633   7.488  15.227  0.00  0.00    +0.000 C 
ATOM      3  N   UNL     1      48.862   7.997  14.161  0.00  0.00    +0.000 N 
ENDROOT
BRANCH   2   4
ATOM      4  C   UNL     1      48.999   6.671  16.285  0.00  0.00    +0.000 A 
ATOM      5  C   UNL     1      48.596   5.350  16.160  0.00  0.00    +0.000 A 
ATOM      6  S   UNL     1      47.925   4.692  17.585  0.00  0.00    +0.000 S 
ATOM      7  C   UNL     1      48.007   6.191  18.378  0.00  0.00    +0.000 A 
ATOM      8  N   UNL     1      47.540   6.330  19.647  0.00  0.00    +0.000 NA
ATOM      9  C   UNL     1      47.622   7.533  20.111  0.00  0.00    +0.000 A 
ATOM     10  N   UNL     1      48.130   8.603  19.421  0.00  0.00    +0.000 N 
ATOM     11  C   UNL     1      48.657   8.504  18.152  0.00  0.00    +0.000 A 
ATOM     12  O   UNL     1      49.163   9.478  17.608  0.00  0.00    +0.000 OA
ATOM     13  C   UNL     1      48.572   7.170  17.579  0.00  0.00    +0.000 A 
ATOM     14  H   UNL     1      48.172   9.518  19.842  0.00  0.00    +0.000 HD
ENDBRANCH   2   4
BRANCH   3  15
ATOM     15  C   UNL     1      49.486   8.643  12.981  0.00  0.00    +0.000 C 
BRANCH  15  16
ATOM     16  C   UNL     1      50.200   7.814  11.907  0.00  0.00    +0.000 C 
BRANCH  16  17
ATOM     17  O   UNL     1      51.580   7.639  12.211  0.00  0.00    +0.000 OA
ATOM     18  H   UNL     1      51.981   7.289  11.382  0.00  0.00    +0.000 HD
ENDBRANCH  16  17
ENDBRANCH  15  16
ENDBRANCH   3  15
BRANCH   3  19
ATOM     19  C   UNL     1      47.399   7.921  14.173  0.00  0.00    +0.000 C 
BRANCH  19  20
ATOM     20  C   UNL     1      46.695   7.069  13.144  0.00  0.00    +0.000 A 
ATOM     21  C   UNL     1      46.768   5.675  13.213  0.00  0.00    +0.000 A 
ATOM     22  C   UNL     1      46.013   4.891  12.342  0.00  0.00    +0.000 A 
ATOM     23  C   UNL     1      45.149   5.491  11.423  0.00  0.00    +0.000 A 
ATOM     24  C   UNL     1      45.132   6.878  11.290  0.00  0.00    +0.000 A 
ATOM     25  C   UNL     1      45.903   7.665  12.148  0.00  0.00    +0.000 A 
BRANCH  23  26
ATOM     26  O   UNL     1      44.325   4.777  10.583  0.00  0.00    +0.000 OA
BRANCH  26  27
ATOM     27  C   UNL     1      44.925   3.975   9.620  0.00  0.00    +0.000 A 
ATOM     28  C   UNL     1      45.594   4.612   8.586  0.00  0.00    +0.000 A 
ATOM     29  N   UNL     1      46.262   3.932   7.620  0.00  0.00    +0.000 NA
ATOM     30  C   UNL     1      46.222   2.585   7.733  0.00  0.00    +0.000 A 
ATOM     31  C   UNL     1      45.528   1.945   8.747  0.00  0.00    +0.000 A 
ATOM     32  N   UNL     1      44.853   2.623   9.701  0.00  0.00    +0.000 NA
ENDBRANCH  26  27
ENDBRANCH  23  26
ENDBRANCH  19  20
ENDBRANCH   3  19
TORSDOF 8
ENDMDL
MODEL 8
REMARK VINA RESULT:    -6.186      3.822      9.362
REMARK INTER + INTRA:          -9.696
REMARK INTER:                  -8.499
REMARK INTRA:                  -1.197
REMARK UNBOUND:                -0.798
REMARK  Name = 
REMARK  8 active torsions:
REMARK  status: ('A' for Active; 'I' for Inactive)
REMARK    1  A    between atoms: C_2  and  C_3
REMARK    2  A    between atoms: N_13  and  C_14
REMARK    3  A    between atoms: N_13  and  C_17
REMARK    4  A    between atoms: C_14  and  C_15
REMARK    5  A    between atoms: C_15  and  O_16
REMARK    6  A    between atoms: C_17  and  C_18
REMARK    7  A    between atoms: C_21  and  O_22
REMARK    8  A    between atoms: O_22  and  C_23
REMARK                            x       y       z     vdW  Elec       q    Type
REMARK                         _______ _______ _______ _____ _____    ______ ____
ROOT
ATOM      1  O   UNL     1      51.435   5.010  19.670  0.00  0.00    +0.000 OA
ATOM      2  C   UNL     1      50.244   4.873  19.405  0.00  0.00    +0.000 C 
ATOM      3  N   UNL     1      49.819   4.144  18.275  0.00  0.00    +0.000 N 
ENDROOT
BRANCH   2   4
ATOM      4  C   UNL     1      49.252   5.472  20.325  0.00  0.00    +0.000 A 
ATOM      5  C   UNL     1      48.590   4.811  21.348  0.00  0.00    +0.000 A 
ATOM      6  S   UNL     1      47.530   5.804  22.244  0.00  0.00    +0.000 S 
ATOM      7  C   UNL     1      47.799   7.119  21.204  0.00  0.00    +0.000 A 
ATOM      8  N   UNL     1      47.145   8.295  21.390  0.00  0.00    +0.000 NA
ATOM      9  C   UNL     1      47.410   9.194  20.499  0.00  0.00    +0.000 A 
ATOM     10  N   UNL     1      48.269   9.019  19.446  0.00  0.00    +0.000 N 
ATOM     11  C   UNL     1      48.991   7.863  19.241  0.00  0.00    +0.000 A 
ATOM     12  O   UNL     1      49.799   7.785  18.323  0.00  0.00    +0.000 OA
ATOM     13  C   UNL     1      48.713   6.814  20.209  0.00  0.00    +0.000 A 
ATOM     14  H   UNL     1      48.439   9.764  18.787  0.00  0.00    +0.000 HD
ENDBRANCH   2   4
BRANCH   3  15
ATOM     15  C   UNL     1      50.768   3.360  17.446  0.00  0.00    +0.000 C 
BRANCH  15  16
ATOM     16  C   UNL     1      50.461   1.914  17.040  0.00  0.00    +0.000 C 
BRANCH  16  17
ATOM     17  O   UNL     1      51.223   0.983  17.801  0.00  0.00    +0.000 OA
ATOM     18  H   UNL     1      50.561   0.498  18.348  0.00  0.00    +0.000 HD
ENDBRANCH  16  17
ENDBRANCH  15  16
ENDBRANCH   3  15
BRANCH   3  19
ATOM     19  C   UNL     1      48.415   4.131  17.857  0.00  0.00    +0.000 C 
BRANCH  19  20
ATOM     20  C   UNL     1      48.065   4.494  16.435  0.00  0.00    +0.000 A 
ATOM     21  C   UNL     1      47.418   3.570  15.609  0.00  0.00    +0.000 A 
ATOM     22  C   UNL     1      46.980   3.950  14.341  0.00  0.00    +0.000 A 
ATOM     23  C   UNL     1      47.147   5.267  13.903  0.00  0.00    +0.000 A 
ATOM     24  C   UNL     1      47.863   6.172  14.684  0.00  0.00    +0.000 A 
ATOM     25  C   UNL     1      48.321   5.787  15.946  0.00  0.00    +0.000 A 
BRANCH  23  26
ATOM     26  O   UNL     1      46.676   5.726  12.694  0.00  0.00    +0.000 OA
BRANCH  26  27
ATOM     27  C   UNL     1      45.366   5.414  12.352  0.00  0.00    +0.000 A 
ATOM     28  C   UNL     1      45.154   4.819  11.116  0.00  0.00    +0.000 A 
ATOM     29  N   UNL     1      43.925   4.422  10.699  0.00  0.00    +0.000 NA
ATOM     30  C   UNL     1      42.918   4.656  11.572  0.00  0.00    +0.000 A 
ATOM     31  C   UNL     1      43.122   5.278  12.792  0.00  0.00    +0.000 A 
ATOM     32  N   UNL     1      44.344   5.683  13.202  0.00  0.00    +0.000 NA
ENDBRANCH  26  27
ENDBRANCH  23  26
ENDBRANCH  19  20
ENDBRANCH   3  19
TORSDOF 8
ENDMDL
MODEL 9
REMARK VINA RESULT:    -6.123      2.800      7.960
REMARK INTER + INTRA:          -9.606
REMARK INTER:                  -8.849
REMARK INTRA:                  -0.757
REMARK UNBOUND:                -0.798
REMARK  Name = 
REMARK  8 active torsions:
REMARK  status: ('A' for Active; 'I' for Inactive)
REMARK    1  A    between atoms: C_2  and  C_3
REMARK    2  A    between atoms: N_13  and  C_14
REMARK    3  A    between atoms: N_13  and  C_17
REMARK    4  A    between atoms: C_14  and  C_15
REMARK    5  A    between atoms: C_15  and  O_16
REMARK    6  A    between atoms: C_17  and  C_18
REMARK    7  A    between atoms: C_21  and  O_22
REMARK    8  A    between atoms: O_22  and  C_23
REMARK                            x       y       z     vdW  Elec       q    Type
REMARK                         _______ _______ _______ _____ _____    ______ ____
ROOT
ATOM      1  O   UNL     1      49.076   8.885  17.100  0.00  0.00    +0.000 OA
ATOM      2  C   UNL     1      49.320   8.015  16.269  0.00  0.00    +0.000 C 
ATOM      3  N   UNL     1      48.714   8.019  14.996  0.00  0.00    +0.000 N 
ENDROOT
BRANCH   2   4
ATOM      4  C   UNL     1      50.301   6.966  16.626  0.00  0.00    +0.000 A 
ATOM      5  C   UNL     1      51.677   7.055  16.476  0.00  0.00    +0.000 A 
ATOM      6  S   UNL     1      52.523   5.675  17.017  0.00  0.00    +0.000 S 
ATOM      7  C   UNL     1      51.076   4.846  17.332  0.00  0.00    +0.000 A 
ATOM      8  N   UNL     1      51.095   3.565  17.785  0.00  0.00    +0.000 NA
ATOM      9  C   UNL     1      49.924   3.041  17.939  0.00  0.00    +0.000 A 
ATOM     10  N   UNL     1      48.741   3.684  17.682  0.00  0.00    +0.000 N 
ATOM     11  C   UNL     1      48.668   4.996  17.267  0.00  0.00    +0.000 A 
ATOM     12  O   UNL     1      47.582   5.545  17.120  0.00  0.00    +0.000 OA
ATOM     13  C   UNL     1      49.963   5.625  17.063  0.00  0.00    +0.000 A 
ATOM     14  H   UNL     1      47.857   3.221  17.829  0.00  0.00    +0.000 HD
ENDBRANCH   2   4
BRANCH   3  15
ATOM     15  C   UNL     1      47.886   9.158  14.525  0.00  0.00    +0.000 C 
BRANCH  15  16
ATOM     16  C   UNL     1      48.496  10.290  13.690  0.00  0.00    +0.000 C 
BRANCH  16  17
ATOM     17  O   UNL     1      47.505  10.966  12.923  0.00  0.00    +0.000 OA
ATOM     18  H   UNL     1      47.008  11.514  13.575  0.00  0.00    +0.000 HD
ENDBRANCH  16  17
ENDBRANCH  15  16
ENDBRANCH   3  15
BRANCH   3  19
ATOM     19  C   UNL     1      48.863   6.890  14.075  0.00  0.00    +0.000 C 
BRANCH  19  20
ATOM     20  C   UNL     1      47.658   6.394  13.312  0.00  0.00    +0.000 A 
ATOM     21  C   UNL     1      47.229   7.058  12.160  0.00  0.00    +0.000 A 
ATOM     22  C   UNL     1      46.199   6.524  11.386  0.00  0.00    +0.000 A 
ATOM     23  C   UNL     1      45.617   5.302  11.735  0.00  0.00    +0.000 A 
ATOM     24  C   UNL     1      45.979   4.676  12.926  0.00  0.00    +0.000 A 
ATOM     25  C   UNL     1      46.997   5.220  13.713  0.00  0.00    +0.000 A 
BRANCH  23  26
ATOM     26  O   UNL     1      44.645   4.686  10.980  0.00  0.00    +0.000 OA
BRANCH  26  27
ATOM     27  C   UNL     1      45.058   3.953   9.873  0.00  0.00    +0.000 A 
ATOM     28  C   UNL     1      45.513   4.663   8.772  0.00  0.00    +0.000 A 
ATOM     29  N   UNL     1      45.990   4.054   7.657  0.00  0.00    +0.000 NA
ATOM     30  C   UNL     1      45.983   2.701   7.694  0.00  0.00    +0.000 A 
ATOM     31  C   UNL     1      45.501   1.990   8.779  0.00  0.00    +0.000 A 
ATOM     32  N   UNL     1      45.015   2.598   9.884  0.00  0.00    +0.000 NA
ENDBRANCH  26  27
ENDBRANCH  23  26
ENDBRANCH  19  20
ENDBRANCH   3  19
TORSDOF 8
ENDMDL
