MODEL 1
REMARK VINA RESULT:    -7.851      0.000      0.000
REMARK INTER + INTRA:         -12.625
REMARK INTER:                 -11.522
REMARK INTRA:                  -1.102
REMARK UNBOUND:                -1.102
REMARK  Name = 
REMARK  9 active torsions:
REMARK  status: ('A' for Active; 'I' for Inactive)
REMARK    1  A    between atoms: C_1  and  C_2
REMARK    2  A    between atoms: C_2  and  N_3
REMARK    3  A    between atoms: C_2  and  C_11
REMARK    4  A    between atoms: N_3  and  C_4
REMARK    5  A    between atoms: C_4  and  C_5
REMARK    6  A    between atoms: C_14  and  C_15
REMARK    7  A    between atoms: C_15  and  O_16
REMARK    8  A    between atoms: O_16  and  C_17
REMARK    9  A    between atoms: C_17  and  C_18
REMARK                            x       y       z     vdW  Elec       q    Type
REMARK                         _______ _______ _______ _____ _____    ______ ____
ROOT
ATOM      1  C   UNL     1      44.848   4.704  11.408  0.00  0.00    +0.000 A 
ATOM      2  C   UNL     1      45.499   5.780  10.784  0.00  0.00    +0.000 A 
ATOM      3  C   UNL     1      46.521   6.480  11.440  0.00  0.00    +0.000 A 
ATOM      4  C   UNL     1      46.918   6.120  12.734  0.00  0.00    +0.000 A 
ATOM      5  C   UNL     1      46.278   5.044  13.356  0.00  0.00    +0.000 A 
ATOM      6  C   UNL     1      45.269   4.337  12.696  0.00  0.00    +0.000 A 
ENDROOT
BRANCH   1   8
ATOM      7  C   UNL     1      43.273   2.725  11.491  0.00  0.00    +0.000 C 
ATOM      8  C   UNL     1      43.742   3.945  10.680  0.00  0.00    +0.000 C 
BRANCH   8   9
ATOM      9  N   UNL     1      44.205   3.593   9.327  0.00  0.00    +0.000 NA
ATOM     10  H   UNL     1      43.381   3.475   8.735  0.00  0.00    +0.000 HD
BRANCH   9  11
ATOM     11  C   UNL     1      44.987   2.357   9.282  0.00  0.00    +0.000 C 
BRANCH  11  12
ATOM     12  C   UNL     1      45.909   2.306   8.092  0.00  0.00    +0.000 A 
ATOM     13  C   UNL     1      46.053   3.392   7.222  0.00  0.00    +0.000 A 
ATOM     14  C   UNL     1      46.976   3.337   6.182  0.00  0.00    +0.000 A 
ATOM     15  C   UNL     1      47.736   2.189   6.042  0.00  0.00    +0.000 A 
ATOM     16  N   UNL     1      47.627   1.114   6.855  0.00  0.00    +0.000 NA
ATOM     17  C   UNL     1      46.724   1.200   7.858  0.00  0.00    +0.000 A 
ENDBRANCH  11  12
ENDBRANCH   9  11
ENDBRANCH   8   9
ENDBRANCH   1   8
BRANCH   4  18
ATOM     18  C   UNL     1      48.042   6.837  13.434  0.00  0.00    +0.000 C 
BRANCH  18  19
ATOM     19  O   UNL     1      48.700   5.946  14.328  0.00  0.00    +0.000 OA
BRANCH  19  20
ATOM     20  C   UNL     1      48.716   6.468  15.656  0.00  0.00    +0.000 C 
BRANCH  20  21
ATOM     21  C   UNL     1      48.599   5.351  16.660  0.00  0.00    +0.000 A 
ATOM     22  C   UNL     1      47.610   4.374  16.515  0.00  0.00    +0.000 A 
ATOM     23  C   UNL     1      47.555   3.340  17.439  0.00  0.00    +0.000 A 
ATOM     24  N   UNL     1      48.410   3.208  18.474  0.00  0.00    +0.000 NA
ATOM     25  C   UNL     1      49.365   4.155  18.590  0.00  0.00    +0.000 A 
ATOM     26  C   UNL     1      49.503   5.224  17.718  0.00  0.00    +0.000 A 
ENDBRANCH  20  21
ENDBRANCH  19  20
ENDBRANCH  18  19
ENDBRANCH   4  18
TORSDOF 8
ENDMDL
MODEL 2
REMARK VINA RESULT:    -7.602      1.863      8.568
REMARK INTER + INTRA:         -12.259
REMARK INTER:                 -11.144
REMARK INTRA:                  -1.115
REMARK UNBOUND:                -1.102
REMARK  Name = 
REMARK  9 active torsions:
REMARK  status: ('A' for Active; 'I' for Inactive)
REMARK    1  A    between atoms: C_1  and  C_2
REMARK    2  A    between atoms: C_2  and  N_3
REMARK    3  A    between atoms: C_2  and  C_11
REMARK    4  A    between atoms: N_3  and  C_4
REMARK    5  A    between atoms: C_4  and  C_5
REMARK    6  A    between atoms: C_14  and  C_15
REMARK    7  A    between atoms: C_15  and  O_16
REMARK    8  A    between atoms: O_16  and  C_17
REMARK    9  A    between atoms: C_17  and  C_18
REMARK                            x       y       z     vdW  Elec       q    Type
REMARK                         _______ _______ _______ _____ _____    ______ ____
ROOT
ATOM      1  C   UNL     1      46.769   6.471  12.776  0.00  0.00    +0.000 A 
ATOM      2  C   UNL     1      46.516   5.102  12.968  0.00  0.00    +0.000 A 
ATOM      3  C   UNL     1      45.525   4.445  12.228  0.00  0.00    +0.000 A 
ATOM      4  C   UNL     1      44.764   5.137  11.276  0.00  0.00    +0.000 A 
ATOM      5  C   UNL     1      45.018   6.497  11.077  0.00  0.00    +0.000 A 
ATOM      6  C   UNL     1      46.016   7.150  11.805  0.00  0.00    +0.000 A 
ENDROOT
BRANCH   1   8
ATOM      7  C   UNL     1      48.741   8.054  12.684  0.00  0.00    +0.000 C 
ATOM      8  C   UNL     1      47.856   7.174  13.584  0.00  0.00    +0.000 C 
BRANCH   8   9
ATOM      9  N   UNL     1      48.624   6.171  14.341  0.00  0.00    +0.000 NA
ATOM     10  H   UNL     1      48.125   5.282  14.278  0.00  0.00    +0.000 HD
BRANCH   9  11
ATOM     11  C   UNL     1      48.790   6.509  15.755  0.00  0.00    +0.000 C 
BRANCH  11  12
ATOM     12  C   UNL     1      48.565   5.325  16.658  0.00  0.00    +0.000 A 
ATOM     13  C   UNL     1      47.465   4.475  16.500  0.00  0.00    +0.000 A 
ATOM     14  C   UNL     1      47.336   3.343  17.300  0.00  0.00    +0.000 A 
ATOM     15  C   UNL     1      48.320   3.091  18.240  0.00  0.00    +0.000 A 
ATOM     16  N   UNL     1      49.397   3.886  18.430  0.00  0.00    +0.000 NA
ATOM     17  C   UNL     1      49.495   4.976  17.635  0.00  0.00    +0.000 A 
ENDBRANCH  11  12
ENDBRANCH   9  11
ENDBRANCH   8   9
ENDBRANCH   1   8
BRANCH   4  18
ATOM     18  C   UNL     1      43.724   4.433  10.445  0.00  0.00    +0.000 C 
BRANCH  18  19
ATOM     19  O   UNL     1      44.335   3.393   9.690  0.00  0.00    +0.000 OA
BRANCH  19  20
ATOM     20  C   UNL     1      44.742   3.860   8.404  0.00  0.00    +0.000 C 
BRANCH  20  21
ATOM     21  C   UNL     1      45.820   2.972   7.840  0.00  0.00    +0.000 A 
ATOM     22  C   UNL     1      45.937   1.646   8.268  0.00  0.00    +0.000 A 
ATOM     23  C   UNL     1      46.919   0.847   7.701  0.00  0.00    +0.000 A 
ATOM     24  N   UNL     1      47.773   1.267   6.745  0.00  0.00    +0.000 NA
ATOM     25  C   UNL     1      47.638   2.548   6.338  0.00  0.00    +0.000 A 
ATOM     26  C   UNL     1      46.687   3.422   6.841  0.00  0.00    +0.000 A 
ENDBRANCH  20  21
ENDBRANCH  19  20
ENDBRANCH  18  19
ENDBRANCH   4  18
TORSDOF 8
ENDMDL
MODEL 3
REMARK VINA RESULT:    -7.158      2.138      8.744
REMARK INTER + INTRA:         -11.608
REMARK INTER:                 -10.810
REMARK INTRA:                  -0.798
REMARK UNBOUND:                -1.102
REMARK  Name = 
REMARK  9 active torsions:
REMARK  status: ('A' for Active; 'I' for Inactive)
REMARK    1  A    between atoms: C_1  and  C_2
REMARK    2  A    between atoms: C_2  and  N_3
REMARK    3  A    between atoms: C_2  and  C_11
REMARK    4  A    between atoms: N_3  and  C_4
REMARK    5  A    between atoms: C_4  and  C_5
REMARK    6  A    between atoms: C_14  and  C_15
REMARK    7  A    between atoms: C_15  and  O_16
REMARK    8  A    between atoms: O_16  and  C_17
REMARK    9  A    between atoms: C_17  and  C_18
REMARK                            x       y       z     vdW  Elec       q    Type
REMARK                         _______ _______ _______ _____ _____    ______ ____
ROOT
ATOM      1  C   UNL     1      47.225   5.345  14.345  0.00  0.00    +0.000 A 
ATOM      2  C   UNL     1      47.507   6.387  13.446  0.00  0.00    +0.000 A 
ATOM      3  C   UNL     1      46.955   6.393  12.158  0.00  0.00    +0.000 A 
ATOM      4  C   UNL     1      46.106   5.360  11.738  0.00  0.00    +0.000 A 
ATOM      5  C   UNL     1      45.816   4.326  12.633  0.00  0.00    +0.000 A 
ATOM      6  C   UNL     1      46.356   4.327  13.922  0.00  0.00    +0.000 A 
ENDROOT
BRANCH   1   8
ATOM      7  C   UNL     1      48.846   6.495  15.912  0.00  0.00    +0.000 C 
ATOM      8  C   UNL     1      47.827   5.354  15.748  0.00  0.00    +0.000 C 
BRANCH   8   9
ATOM      9  N   UNL     1      48.398   4.027  16.038  0.00  0.00    +0.000 NA
ATOM     10  H   UNL     1      47.672   3.330  15.868  0.00  0.00    +0.000 HD
BRANCH   9  11
ATOM     11  C   UNL     1      48.864   3.883  17.418  0.00  0.00    +0.000 C 
BRANCH  11  12
ATOM     12  C   UNL     1      50.205   3.203  17.501  0.00  0.00    +0.000 A 
ATOM     13  C   UNL     1      51.345   3.873  17.956  0.00  0.00    +0.000 A 
ATOM     14  C   UNL     1      52.549   3.188  18.098  0.00  0.00    +0.000 A 
ATOM     15  C   UNL     1      52.576   1.841  17.779  0.00  0.00    +0.000 A 
ATOM     16  N   UNL     1      51.500   1.154  17.332  0.00  0.00    +0.000 NA
ATOM     17  C   UNL     1      50.346   1.848  17.209  0.00  0.00    +0.000 A 
ENDBRANCH  11  12
ENDBRANCH   9  11
ENDBRANCH   8   9
ENDBRANCH   1   8
BRANCH   4  18
ATOM     18  C   UNL     1      45.473   5.377  10.372  0.00  0.00    +0.000 C 
BRANCH  18  19
ATOM     19  O   UNL     1      45.060   4.062  10.016  0.00  0.00    +0.000 OA
BRANCH  19  20
ATOM     20  C   UNL     1      44.824   3.958   8.612  0.00  0.00    +0.000 C 
BRANCH  20  21
ATOM     21  C   UNL     1      45.813   3.011   7.984  0.00  0.00    +0.000 A 
ATOM     22  C   UNL     1      46.765   3.486   7.077  0.00  0.00    +0.000 A 
ATOM     23  C   UNL     1      47.683   2.591   6.545  0.00  0.00    +0.000 A 
ATOM     24  N   UNL     1      47.723   1.279   6.856  0.00  0.00    +0.000 NA
ATOM     25  C   UNL     1      46.802   0.842   7.742  0.00  0.00    +0.000 A 
ATOM     26  C   UNL     1      45.848   1.658   8.330  0.00  0.00    +0.000 A 
ENDBRANCH  20  21
ENDBRANCH  19  20
ENDBRANCH  18  19
ENDBRANCH   4  18
TORSDOF 8
ENDMDL
MODEL 4
REMARK VINA RESULT:    -6.785      3.696      6.320
REMARK INTER + INTRA:         -11.060
REMARK INTER:                 -10.031
REMARK INTRA:                  -1.028
REMARK UNBOUND:                -1.102
REMARK  Name = 
REMARK  9 active torsions:
REMARK  status: ('A' for Active; 'I' for Inactive)
REMARK    1  A    between atoms: C_1  and  C_2
REMARK    2  A    between atoms: C_2  and  N_3
REMARK    3  A    between atoms: C_2  and  C_11
REMARK    4  A    between atoms: N_3  and  C_4
REMARK    5  A    between atoms: C_4  and  C_5
REMARK    6  A    between atoms: C_14  and  C_15
REMARK    7  A    between atoms: C_15  and  O_16
REMARK    8  A    between atoms: O_16  and  C_17
REMARK    9  A    between atoms: C_17  and  C_18
REMARK                            x       y       z     vdW  Elec       q    Type
REMARK                         _______ _______ _______ _____ _____    ______ ____
ROOT
ATOM      1  C   UNL     1      44.620   4.921  11.387  0.00  0.00    +0.000 A 
ATOM      2  C   UNL     1      45.935   5.071  11.855  0.00  0.00    +0.000 A 
ATOM      3  C   UNL     1      46.447   6.338  12.165  0.00  0.00    +0.000 A 
ATOM      4  C   UNL     1      45.657   7.485  12.017  0.00  0.00    +0.000 A 
ATOM      5  C   UNL     1      44.345   7.340  11.558  0.00  0.00    +0.000 A 
ATOM      6  C   UNL     1      43.830   6.075  11.262  0.00  0.00    +0.000 A 
ENDROOT
BRANCH   1   8
ATOM      7  C   UNL     1      43.434   2.879  12.296  0.00  0.00    +0.000 C 
ATOM      8  C   UNL     1      44.072   3.535  11.059  0.00  0.00    +0.000 C 
BRANCH   8   9
ATOM      9  N   UNL     1      45.143   2.718  10.462  0.00  0.00    +0.000 NA
ATOM     10  H   UNL     1      45.944   3.328  10.295  0.00  0.00    +0.000 HD
BRANCH   9  11
ATOM     11  C   UNL     1      44.763   2.094   9.194  0.00  0.00    +0.000 C 
BRANCH  11  12
ATOM     12  C   UNL     1      45.849   2.198   8.157  0.00  0.00    +0.000 A 
ATOM     13  C   UNL     1      46.146   3.407   7.518  0.00  0.00    +0.000 A 
ATOM     14  C   UNL     1      47.212   3.482   6.626  0.00  0.00    +0.000 A 
ATOM     15  C   UNL     1      47.957   2.338   6.399  0.00  0.00    +0.000 A 
ATOM     16  N   UNL     1      47.704   1.149   6.990  0.00  0.00    +0.000 NA
ATOM     17  C   UNL     1      46.663   1.109   7.854  0.00  0.00    +0.000 A 
ENDBRANCH  11  12
ENDBRANCH   9  11
ENDBRANCH   8   9
ENDBRANCH   1   8
BRANCH   4  18
ATOM     18  C   UNL     1      46.181   8.848  12.386  0.00  0.00    +0.000 C 
BRANCH  18  19
ATOM     19  O   UNL     1      45.130   9.805  12.314  0.00  0.00    +0.000 OA
BRANCH  19  20
ATOM     20  C   UNL     1      45.513  10.932  11.526  0.00  0.00    +0.000 C 
BRANCH  20  21
ATOM     21  C   UNL     1      44.417  11.290  10.557  0.00  0.00    +0.000 A 
ATOM     22  C   UNL     1      43.195  10.611  10.592  0.00  0.00    +0.000 A 
ATOM     23  C   UNL     1      42.196  10.993   9.708  0.00  0.00    +0.000 A 
ATOM     24  N   UNL     1      42.324  11.994   8.813  0.00  0.00    +0.000 NA
ATOM     25  C   UNL     1      43.506  12.645   8.803  0.00  0.00    +0.000 A 
ATOM     26  C   UNL     1      44.563  12.340   9.647  0.00  0.00    +0.000 A 
ENDBRANCH  20  21
ENDBRANCH  19  20
ENDBRANCH  18  19
ENDBRANCH   4  18
TORSDOF 8
ENDMDL
MODEL 5
REMARK VINA RESULT:    -6.759      3.361      8.169
REMARK INTER + INTRA:         -11.023
REMARK INTER:                 -10.089
REMARK INTRA:                  -0.933
REMARK UNBOUND:                -1.102
REMARK  Name = 
REMARK  9 active torsions:
REMARK  status: ('A' for Active; 'I' for Inactive)
REMARK    1  A    between atoms: C_1  and  C_2
REMARK    2  A    between atoms: C_2  and  N_3
REMARK    3  A    between atoms: C_2  and  C_11
REMARK    4  A    between atoms: N_3  and  C_4
REMARK    5  A    between atoms: C_4  and  C_5
REMARK    6  A    between atoms: C_14  and  C_15
REMARK    7  A    between atoms: C_15  and  O_16
REMARK    8  A    between atoms: O_16  and  C_17
REMARK    9  A    between atoms: C_17  and  C_18
REMARK                            x       y       z     vdW  Elec       q    Type
REMARK                         _______ _______ _______ _____ _____    ______ ____
ROOT
ATOM      1  C   UNL     1      47.195   6.203  12.390  0.00  0.00    +0.000 A 
ATOM      2  C   UNL     1      46.688   6.561  11.130  0.00  0.00    +0.000 A 
ATOM      3  C   UNL     1      45.593   5.883  10.578  0.00  0.00    +0.000 A 
ATOM      4  C   UNL     1      44.977   4.833  11.271  0.00  0.00    +0.000 A 
ATOM      5  C   UNL     1      45.474   4.479  12.529  0.00  0.00    +0.000 A 
ATOM      6  C   UNL     1      46.557   5.164  13.085  0.00  0.00    +0.000 A 
ENDROOT
BRANCH   1   8
ATOM      7  C   UNL     1      48.092   7.417  14.421  0.00  0.00    +0.000 C 
ATOM      8  C   UNL     1      48.384   6.953  12.983  0.00  0.00    +0.000 C 
BRANCH   8   9
ATOM      9  N   UNL     1      48.757   8.060  12.085  0.00  0.00    +0.000 NA
ATOM     10  H   UNL     1      49.730   7.926  11.811  0.00  0.00    +0.000 HD
BRANCH   9  11
ATOM     11  C   UNL     1      48.627   9.381  12.703  0.00  0.00    +0.000 C 
BRANCH  11  12
ATOM     12  C   UNL     1      47.654  10.264  11.967  0.00  0.00    +0.000 A 
ATOM     13  C   UNL     1      48.082  11.224  11.044  0.00  0.00    +0.000 A 
ATOM     14  C   UNL     1      47.150  11.964  10.322  0.00  0.00    +0.000 A 
ATOM     15  C   UNL     1      45.806  11.717  10.544  0.00  0.00    +0.000 A 
ATOM     16  N   UNL     1      45.347  10.803  11.428  0.00  0.00    +0.000 NA
ATOM     17  C   UNL     1      46.278  10.099  12.111  0.00  0.00    +0.000 A 
ENDBRANCH  11  12
ENDBRANCH   9  11
ENDBRANCH   8   9
ENDBRANCH   1   8
BRANCH   4  18
ATOM     18  C   UNL     1      43.774   4.125  10.707  0.00  0.00    +0.000 C 
BRANCH  18  19
ATOM     19  O   UNL     1      44.192   3.120   9.790  0.00  0.00    +0.000 OA
BRANCH  19  20
ATOM     20  C   UNL     1      44.619   3.695   8.555  0.00  0.00    +0.000 C 
BRANCH  20  21
ATOM     21  C   UNL     1      45.723   2.871   7.947  0.00  0.00    +0.000 A 
ATOM     22  C   UNL     1      46.645   3.461   7.075  0.00  0.00    +0.000 A 
ATOM     23  C   UNL     1      47.670   2.679   6.563  0.00  0.00    +0.000 A 
ATOM     24  N   UNL     1      47.845   1.376   6.861  0.00  0.00    +0.000 NA
ATOM     25  C   UNL     1      46.952   0.828   7.713  0.00  0.00    +0.000 A 
ATOM     26  C   UNL     1      45.897   1.526   8.279  0.00  0.00    +0.000 A 
ENDBRANCH  20  21
ENDBRANCH  19  20
ENDBRANCH  18  19
ENDBRANCH   4  18
TORSDOF 8
ENDMDL
MODEL 6
REMARK VINA RESULT:    -6.674      2.566      3.576
REMARK INTER + INTRA:         -10.897
REMARK INTER:                  -9.958
REMARK INTRA:                  -0.939
REMARK UNBOUND:                -1.102
REMARK  Name = 
REMARK  9 active torsions:
REMARK  status: ('A' for Active; 'I' for Inactive)
REMARK    1  A    between atoms: C_1  and  C_2
REMARK    2  A    between atoms: C_2  and  N_3
REMARK    3  A    between atoms: C_2  and  C_11
REMARK    4  A    between atoms: N_3  and  C_4
REMARK    5  A    between atoms: C_4  and  C_5
REMARK    6  A    between atoms: C_14  and  C_15
REMARK    7  A    between atoms: C_15  and  O_16
REMARK    8  A    between atoms: O_16  and  C_17
REMARK    9  A    between atoms: C_17  and  C_18
REMARK                            x       y       z     vdW  Elec       q    Type
REMARK                         _______ _______ _______ _____ _____    ______ ____
ROOT
ATOM      1  C   UNL     1      44.682   4.682  11.535  0.00  0.00    +0.000 A 
ATOM      2  C   UNL     1      45.347   4.297  12.711  0.00  0.00    +0.000 A 
ATOM      3  C   UNL     1      46.338   5.112  13.275  0.00  0.00    +0.000 A 
ATOM      4  C   UNL     1      46.686   6.331  12.680  0.00  0.00    +0.000 A 
ATOM      5  C   UNL     1      46.022   6.721  11.514  0.00  0.00    +0.000 A 
ATOM      6  C   UNL     1      45.024   5.915  10.959  0.00  0.00    +0.000 A 
ENDROOT
BRANCH   1   8
ATOM      7  C   UNL     1      43.317   2.571  11.833  0.00  0.00    +0.000 C 
ATOM      8  C   UNL     1      43.600   3.788  10.934  0.00  0.00    +0.000 C 
BRANCH   8   9
ATOM      9  N   UNL     1      43.987   3.414   9.563  0.00  0.00    +0.000 NA
ATOM     10  H   UNL     1      43.134   3.198   9.046  0.00  0.00    +0.000 HD
BRANCH   9  11
ATOM     11  C   UNL     1      44.871   2.249   9.504  0.00  0.00    +0.000 C 
BRANCH  11  12
ATOM     12  C   UNL     1      45.749   2.259   8.281  0.00  0.00    +0.000 A 
ATOM     13  C   UNL     1      45.923   3.411   7.506  0.00  0.00    +0.000 A 
ATOM     14  C   UNL     1      46.808   3.403   6.432  0.00  0.00    +0.000 A 
ATOM     15  C   UNL     1      47.499   2.234   6.162  0.00  0.00    +0.000 A 
ATOM     16  N   UNL     1      47.359   1.098   6.880  0.00  0.00    +0.000 NA
ATOM     17  C   UNL     1      46.495   1.139   7.920  0.00  0.00    +0.000 A 
ENDBRANCH  11  12
ENDBRANCH   9  11
ENDBRANCH   8   9
ENDBRANCH   1   8
BRANCH   4  18
ATOM     18  C   UNL     1      47.719   7.235  13.299  0.00  0.00    +0.000 C 
BRANCH  18  19
ATOM     19  O   UNL     1      48.846   6.469  13.710  0.00  0.00    +0.000 OA
BRANCH  19  20
ATOM     20  C   UNL     1      49.436   7.013  14.891  0.00  0.00    +0.000 C 
BRANCH  20  21
ATOM     21  C   UNL     1      50.140   8.306  14.576  0.00  0.00    +0.000 A 
ATOM     22  C   UNL     1      51.050   8.375  13.515  0.00  0.00    +0.000 A 
ATOM     23  C   UNL     1      51.652   9.591  13.232  0.00  0.00    +0.000 A 
ATOM     24  N   UNL     1      51.410  10.729  13.914  0.00  0.00    +0.000 NA
ATOM     25  C   UNL     1      50.521  10.646  14.928  0.00  0.00    +0.000 A 
ATOM     26  C   UNL     1      49.865   9.478  15.285  0.00  0.00    +0.000 A 
ENDBRANCH  20  21
ENDBRANCH  19  20
ENDBRANCH  18  19
ENDBRANCH   4  18
TORSDOF 8
ENDMDL
MODEL 7
REMARK VINA RESULT:    -6.479      1.728      2.287
REMARK INTER + INTRA:         -10.611
REMARK INTER:                  -9.381
REMARK INTRA:                  -1.231
REMARK UNBOUND:                -1.102
REMARK  Name = 
REMARK  9 active torsions:
REMARK  status: ('A' for Active; 'I' for Inactive)
REMARK    1  A    between atoms: C_1  and  C_2
REMARK    2  A    between atoms: C_2  and  N_3
REMARK    3  A    between atoms: C_2  and  C_11
REMARK    4  A    between atoms: N_3  and  C_4
REMARK    5  A    between atoms: C_4  and  C_5
REMARK    6  A    between atoms: C_14  and  C_15
REMARK    7  A    between atoms: C_15  and  O_16
REMARK    8  A    between atoms: O_16  and  C_17
REMARK    9  A    between atoms: C_17  and  C_18
REMARK                            x       y       z     vdW  Elec       q    Type
REMARK                         _______ _______ _______ _____ _____    ______ ____
ROOT
ATOM      1  C   UNL     1      45.231   5.973  12.333  0.00  0.00    +0.000 A 
ATOM      2  C   UNL     1      46.494   5.399  12.550  0.00  0.00    +0.000 A 
ATOM      3  C   UNL     1      47.574   6.182  12.979  0.00  0.00    +0.000 A 
ATOM      4  C   UNL     1      47.418   7.556  13.202  0.00  0.00    +0.000 A 
ATOM      5  C   UNL     1      46.161   8.130  12.994  0.00  0.00    +0.000 A 
ATOM      6  C   UNL     1      45.080   7.346  12.580  0.00  0.00    +0.000 A 
ENDROOT
BRANCH   1   8
ATOM      7  C   UNL     1      42.923   5.108  12.909  0.00  0.00    +0.000 C 
ATOM      8  C   UNL     1      44.060   5.108  11.873  0.00  0.00    +0.000 C 
BRANCH   8   9
ATOM      9  N   UNL     1      44.551   3.755  11.557  0.00  0.00    +0.000 NA
ATOM     10  H   UNL     1      45.568   3.800  11.489  0.00  0.00    +0.000 HD
BRANCH   9  11
ATOM     11  C   UNL     1      44.025   3.222  10.300  0.00  0.00    +0.000 C 
BRANCH  11  12
ATOM     12  C   UNL     1      45.068   3.180   9.215  0.00  0.00    +0.000 A 
ATOM     13  C   UNL     1      45.610   1.974   8.759  0.00  0.00    +0.000 A 
ATOM     14  C   UNL     1      46.510   1.970   7.697  0.00  0.00    +0.000 A 
ATOM     15  C   UNL     1      46.843   3.182   7.117  0.00  0.00    +0.000 A 
ATOM     16  N   UNL     1      46.348   4.371   7.528  0.00  0.00    +0.000 NA
ATOM     17  C   UNL     1      45.473   4.340   8.559  0.00  0.00    +0.000 A 
ENDBRANCH  11  12
ENDBRANCH   9  11
ENDBRANCH   8   9
ENDBRANCH   1   8
BRANCH   4  18
ATOM     18  C   UNL     1      48.560   8.400  13.702  0.00  0.00    +0.000 C 
BRANCH  18  19
ATOM     19  O   UNL     1      48.378   8.688  15.084  0.00  0.00    +0.000 OA
BRANCH  19  20
ATOM     20  C   UNL     1      49.375   8.047  15.879  0.00  0.00    +0.000 C 
BRANCH  20  21
ATOM     21  C   UNL     1      48.738   7.067  16.830  0.00  0.00    +0.000 A 
ATOM     22  C   UNL     1      48.574   5.729  16.458  0.00  0.00    +0.000 A 
ATOM     23  C   UNL     1      48.016   4.847  17.372  0.00  0.00    +0.000 A 
ATOM     24  N   UNL     1      47.625   5.198  18.615  0.00  0.00    +0.000 NA
ATOM     25  C   UNL     1      47.802   6.492  18.959  0.00  0.00    +0.000 A 
ATOM     26  C   UNL     1      48.353   7.446  18.118  0.00  0.00    +0.000 A 
ENDBRANCH  20  21
ENDBRANCH  19  20
ENDBRANCH  18  19
ENDBRANCH   4  18
TORSDOF 8
ENDMDL
MODEL 8
REMARK VINA RESULT:    -6.360      2.332      9.322
REMARK INTER + INTRA:         -10.437
REMARK INTER:                  -9.639
REMARK INTRA:                  -0.798
REMARK UNBOUND:                -1.102
REMARK  Name = 
REMARK  9 active torsions:
REMARK  status: ('A' for Active; 'I' for Inactive)
REMARK    1  A    between atoms: C_1  and  C_2
REMARK    2  A    between atoms: C_2  and  N_3
REMARK    3  A    between atoms: C_2  and  C_11
REMARK    4  A    between atoms: N_3  and  C_4
REMARK    5  A    between atoms: C_4  and  C_5
REMARK    6  A    between atoms: C_14  and  C_15
REMARK    7  A    between atoms: C_15  and  O_16
REMARK    8  A    between atoms: O_16  and  C_17
REMARK    9  A    between atoms: C_17  and  C_18
REMARK                            x       y       z     vdW  Elec       q    Type
REMARK                         _______ _______ _______ _____ _____    ______ ____
ROOT
ATOM      1  C   UNL     1      47.213   6.248  13.400  0.00  0.00    +0.000 A 
ATOM      2  C   UNL     1      46.691   6.939  12.294  0.00  0.00    +0.000 A 
ATOM      3  C   UNL     1      45.790   6.318  11.419  0.00  0.00    +0.000 A 
ATOM      4  C   UNL     1      45.387   4.992  11.629  0.00  0.00    +0.000 A 
ATOM      5  C   UNL     1      45.899   4.303  12.732  0.00  0.00    +0.000 A 
ATOM      6  C   UNL     1      46.786   4.927  13.612  0.00  0.00    +0.000 A 
ENDROOT
BRANCH   1   8
ATOM      7  C   UNL     1      49.485   7.341  13.624  0.00  0.00    +0.000 C 
ATOM      8  C   UNL     1      48.189   6.938  14.349  0.00  0.00    +0.000 C 
BRANCH   8   9
ATOM      9  N   UNL     1      48.428   6.069  15.515  0.00  0.00    +0.000 NA
ATOM     10  H   UNL     1      47.533   5.921  15.982  0.00  0.00    +0.000 HD
BRANCH   9  11
ATOM     11  C   UNL     1      49.368   6.637  16.482  0.00  0.00    +0.000 C 
BRANCH  11  12
ATOM     12  C   UNL     1      48.727   6.894  17.820  0.00  0.00    +0.000 A 
ATOM     13  C   UNL     1      47.854   5.973  18.409  0.00  0.00    +0.000 A 
ATOM     14  C   UNL     1      47.347   6.209  19.684  0.00  0.00    +0.000 A 
ATOM     15  C   UNL     1      47.732   7.366  20.338  0.00  0.00    +0.000 A 
ATOM     16  N   UNL     1      48.569   8.285  19.806  0.00  0.00    +0.000 NA
ATOM     17  C   UNL     1      49.047   8.025  18.568  0.00  0.00    +0.000 A 
ENDBRANCH  11  12
ENDBRANCH   9  11
ENDBRANCH   8   9
ENDBRANCH   1   8
BRANCH   4  18
ATOM     18  C   UNL     1      44.388   4.327  10.720  0.00  0.00    +0.000 C 
BRANCH  18  19
ATOM     19  O   UNL     1      44.702   2.945  10.587  0.00  0.00    +0.000 OA
BRANCH  19  20
ATOM     20  C   UNL     1      44.337   2.455   9.297  0.00  0.00    +0.000 C 
BRANCH  20  21
ATOM     21  C   UNL     1      45.528   2.471   8.375  0.00  0.00    +0.000 A 
ATOM     22  C   UNL     1      46.273   1.306   8.164  0.00  0.00    +0.000 A 
ATOM     23  C   UNL     1      47.341   1.349   7.280  0.00  0.00    +0.000 A 
ATOM     24  N   UNL     1      47.708   2.451   6.595  0.00  0.00    +0.000 NA
ATOM     25  C   UNL     1      46.970   3.563   6.803  0.00  0.00    +0.000 A 
ATOM     26  C   UNL     1      45.884   3.619   7.663  0.00  0.00    +0.000 A 
ENDBRANCH  20  21
ENDBRANCH  19  20
ENDBRANCH  18  19
ENDBRANCH   4  18
TORSDOF 8
ENDMDL
MODEL 9
REMARK VINA RESULT:    -5.985      1.994      3.597
REMARK INTER + INTRA:          -9.886
REMARK INTER:                  -8.893
REMARK INTRA:                  -0.993
REMARK UNBOUND:                -1.102
REMARK  Name = 
REMARK  9 active torsions:
REMARK  status: ('A' for Active; 'I' for Inactive)
REMARK    1  A    between atoms: C_1  and  C_2
REMARK    2  A    between atoms: C_2  and  N_3
REMARK    3  A    between atoms: C_2  and  C_11
REMARK    4  A    between atoms: N_3  and  C_4
REMARK    5  A    between atoms: C_4  and  C_5
REMARK    6  A    between atoms: C_14  and  C_15
REMARK    7  A    between atoms: C_15  and  O_16
REMARK    8  A    between atoms: O_16  and  C_17
REMARK    9  A    between atoms: C_17  and  C_18
REMARK                            x       y       z     vdW  Elec       q    Type
REMARK                         _______ _______ _______ _____ _____    ______ ____
ROOT
ATOM      1  C   UNL     1      46.579   7.754  12.462  0.00  0.00    +0.000 A 
ATOM      2  C   UNL     1      46.727   8.589  13.582  0.00  0.00    +0.000 A 
ATOM      3  C   UNL     1      47.898   8.558  14.351  0.00  0.00    +0.000 A 
ATOM      4  C   UNL     1      48.949   7.693  14.021  0.00  0.00    +0.000 A 
ATOM      5  C   UNL     1      48.809   6.866  12.903  0.00  0.00    +0.000 A 
ATOM      6  C   UNL     1      47.648   6.907  12.127  0.00  0.00    +0.000 A 
ENDROOT
BRANCH   1   8
ATOM      7  C   UNL     1      44.772   9.241  11.501  0.00  0.00    +0.000 C 
ATOM      8  C   UNL     1      45.302   7.803  11.628  0.00  0.00    +0.000 C 
BRANCH   8   9
ATOM      9  N   UNL     1      44.313   6.873  12.200  0.00  0.00    +0.000 NA
ATOM     10  H   UNL     1      44.037   7.234  13.114  0.00  0.00    +0.000 HD
BRANCH   9  11
ATOM     11  C   UNL     1      44.824   5.513  12.373  0.00  0.00    +0.000 C 
BRANCH  11  12
ATOM     12  C   UNL     1      44.695   4.689  11.119  0.00  0.00    +0.000 A 
ATOM     13  C   UNL     1      45.302   5.072   9.919  0.00  0.00    +0.000 A 
ATOM     14  C   UNL     1      45.231   4.242   8.804  0.00  0.00    +0.000 A 
ATOM     15  C   UNL     1      44.550   3.043   8.923  0.00  0.00    +0.000 A 
ATOM     16  N   UNL     1      43.945   2.634  10.061  0.00  0.00    +0.000 NA
ATOM     17  C   UNL     1      44.036   3.461  11.128  0.00  0.00    +0.000 A 
ENDBRANCH  11  12
ENDBRANCH   9  11
ENDBRANCH   8   9
ENDBRANCH   1   8
BRANCH   4  18
ATOM     18  C   UNL     1      50.228   7.679  14.815  0.00  0.00    +0.000 C 
BRANCH  18  19
ATOM     19  O   UNL     1      50.366   6.431  15.485  0.00  0.00    +0.000 OA
BRANCH  19  20
ATOM     20  C   UNL     1      49.752   6.467  16.773  0.00  0.00    +0.000 C 
BRANCH  20  21
ATOM     21  C   UNL     1      48.801   5.310  16.932  0.00  0.00    +0.000 A 
ATOM     22  C   UNL     1      48.862   4.498  18.070  0.00  0.00    +0.000 A 
ATOM     23  C   UNL     1      47.947   3.464  18.200  0.00  0.00    +0.000 A 
ATOM     24  N   UNL     1      46.984   3.191  17.295  0.00  0.00    +0.000 NA
ATOM     25  C   UNL     1      46.935   3.992  16.209  0.00  0.00    +0.000 A 
ATOM     26  C   UNL     1      47.802   5.052  15.991  0.00  0.00    +0.000 A 
ENDBRANCH  20  21
ENDBRANCH  19  20
ENDBRANCH  18  19
ENDBRANCH   4  18
TORSDOF 8
ENDMDL
