MODEL 1
REMARK VINA RESULT:    -8.036      0.000      0.000
REMARK INTER + INTRA:         -12.369
REMARK INTER:                 -11.325
REMARK INTRA:                  -1.045
REMARK UNBOUND:                -1.045
REMARK  Name = 
REMARK  7 active torsions:
REMARK  status: ('A' for Active; 'I' for Inactive)
REMARK    1  A    between atoms: C_2  and  C_21
REMARK    2  A    between atoms: N_3  and  C_4
REMARK    3  A    between atoms: C_4  and  C_5
REMARK    4  A    between atoms: C_8  and  C_9
REMARK    5  A    between atoms: C_9  and  O_10
REMARK    6  A    between atoms: O_10  and  C_11
REMARK    7  A    between atoms: C_11  and  C_12
REMARK                            x       y       z     vdW  Elec       q    Type
REMARK                         _______ _______ _______ _____ _____    ______ ____
ROOT
ATOM      1  C   UNL     1      46.601   7.007  12.821  0.00  0.00    +0.000 A 
ATOM      2  C   UNL     1      45.623   7.709  12.104  0.00  0.00    +0.000 A 
ATOM      3  C   UNL     1      44.612   7.024  11.421  0.00  0.00    +0.000 A 
ATOM      4  C   UNL     1      44.548   5.624  11.449  0.00  0.00    +0.000 A 
ATOM      5  C   UNL     1      45.515   4.925  12.183  0.00  0.00    +0.000 A 
ATOM      6  C   UNL     1      46.527   5.608  12.866  0.00  0.00    +0.000 A 
ENDROOT
BRANCH   1   7
ATOM      7  C   UNL     1      47.697   7.739  13.552  0.00  0.00    +0.000 C 
BRANCH   7  10
ATOM      8  O   UNL     1      50.185   7.790  14.813  0.00  0.00    +0.000 OA
ATOM      9  C   UNL     1      49.278   7.161  15.351  0.00  0.00    +0.000 C 
ATOM     10  N   UNL     1      48.024   7.086  14.795  0.00  0.00    +0.000 N 
ATOM     11  H   UNL     1      47.300   6.565  15.284  0.00  0.00    +0.000 HD
BRANCH   9  12
ATOM     12  C   UNL     1      49.449   6.458  16.595  0.00  0.00    +0.000 A 
ATOM     13  C   UNL     1      50.187   6.850  17.696  0.00  0.00    +0.000 A 
ATOM     14  N   UNL     1      50.114   5.932  18.713  0.00  0.00    +0.000 NA
ATOM     15  C   UNL     1      49.339   4.968  18.265  0.00  0.00    +0.000 A 
ATOM     16  N   UNL     1      48.950   3.830  18.906  0.00  0.00    +0.000 NA
ATOM     17  C   UNL     1      48.189   3.048  18.213  0.00  0.00    +0.000 A 
ATOM     18  C   UNL     1      47.769   3.364  16.805  0.00  0.00    +0.000 A 
ATOM     19  N   UNL     1      48.118   4.446  16.185  0.00  0.00    +0.000 NA
ATOM     20  N   UNL     1      48.920   5.247  16.964  0.00  0.00    +0.000 N 
ENDBRANCH   9  12
ENDBRANCH   7  10
ENDBRANCH   1   7
BRANCH   4  21
ATOM     21  C   UNL     1      43.446   4.888  10.728  0.00  0.00    +0.000 C 
BRANCH  21  22
ATOM     22  O   UNL     1      44.002   3.808   9.984  0.00  0.00    +0.000 OA
BRANCH  22  23
ATOM     23  C   UNL     1      44.556   4.245   8.744  0.00  0.00    +0.000 C 
BRANCH  23  24
ATOM     24  C   UNL     1      45.405   3.153   8.154  0.00  0.00    +0.000 A 
ATOM     25  C   UNL     1      45.493   1.905   8.768  0.00  0.00    +0.000 A 
ATOM     26  N   UNL     1      46.255   0.883   8.314  0.00  0.00    +0.000 NA
ATOM     27  C   UNL     1      46.976   1.119   7.190  0.00  0.00    +0.000 A 
ATOM     28  C   UNL     1      46.974   2.328   6.514  0.00  0.00    +0.000 A 
ATOM     29 CL   UNL     1      47.923   2.551   5.102  0.00  0.00    +0.000 Cl
ATOM     30  C   UNL     1      46.185   3.359   7.008  0.00  0.00    +0.000 A 
ENDBRANCH  23  24
ENDBRANCH  22  23
ENDBRANCH  21  22
ENDBRANCH   4  21
TORSDOF 7
ENDMDL
MODEL 2
REMARK VINA RESULT:    -7.789      1.749      2.343
REMARK INTER + INTRA:         -12.021
REMARK INTER:                 -11.065
REMARK INTRA:                  -0.955
REMARK UNBOUND:                -1.045
REMARK  Name = 
REMARK  7 active torsions:
REMARK  status: ('A' for Active; 'I' for Inactive)
REMARK    1  A    between atoms: C_2  and  C_21
REMARK    2  A    between atoms: N_3  and  C_4
REMARK    3  A    between atoms: C_4  and  C_5
REMARK    4  A    between atoms: C_8  and  C_9
REMARK    5  A    between atoms: C_9  and  O_10
REMARK    6  A    between atoms: O_10  and  C_11
REMARK    7  A    between atoms: C_11  and  C_12
REMARK                            x       y       z     vdW  Elec       q    Type
REMARK                         _______ _______ _______ _____ _____    ______ ____
ROOT
ATOM      1  C   UNL     1      47.050   6.187  13.107  0.00  0.00    +0.000 A 
ATOM      2  C   UNL     1      46.446   7.052  12.185  0.00  0.00    +0.000 A 
ATOM      3  C   UNL     1      45.345   6.632  11.430  0.00  0.00    +0.000 A 
ATOM      4  C   UNL     1      44.815   5.344  11.589  0.00  0.00    +0.000 A 
ATOM      5  C   UNL     1      45.409   4.487  12.526  0.00  0.00    +0.000 A 
ATOM      6  C   UNL     1      46.510   4.906  13.280  0.00  0.00    +0.000 A 
ENDROOT
BRANCH   1   7
ATOM      7  C   UNL     1      48.241   6.631  13.917  0.00  0.00    +0.000 C 
BRANCH   7  10
ATOM      8  O   UNL     1      50.132   6.108  15.900  0.00  0.00    +0.000 OA
ATOM      9  C   UNL     1      48.967   6.281  16.245  0.00  0.00    +0.000 C 
ATOM     10  N   UNL     1      47.976   6.542  15.331  0.00  0.00    +0.000 N 
ATOM     11  H   UNL     1      47.026   6.692  15.665  0.00  0.00    +0.000 HD
BRANCH   9  12
ATOM     12  C   UNL     1      48.546   6.225  17.620  0.00  0.00    +0.000 A 
ATOM     13  C   UNL     1      48.456   5.112  18.435  0.00  0.00    +0.000 A 
ATOM     14  N   UNL     1      48.027   5.437  19.697  0.00  0.00    +0.000 NA
ATOM     15  C   UNL     1      47.846   6.740  19.686  0.00  0.00    +0.000 A 
ATOM     16  N   UNL     1      47.433   7.544  20.705  0.00  0.00    +0.000 NA
ATOM     17  C   UNL     1      47.332   8.797  20.403  0.00  0.00    +0.000 A 
ATOM     18  C   UNL     1      47.638   9.328  19.031  0.00  0.00    +0.000 A 
ATOM     19  N   UNL     1      48.043   8.581  18.054  0.00  0.00    +0.000 NA
ATOM     20  N   UNL     1      48.142   7.259  18.425  0.00  0.00    +0.000 N 
ENDBRANCH   9  12
ENDBRANCH   7  10
ENDBRANCH   1   7
BRANCH   4  21
ATOM     21  C   UNL     1      43.616   4.899  10.789  0.00  0.00    +0.000 C 
BRANCH  21  22
ATOM     22  O   UNL     1      43.985   3.816   9.940  0.00  0.00    +0.000 OA
BRANCH  22  23
ATOM     23  C   UNL     1      44.633   4.267   8.751  0.00  0.00    +0.000 C 
BRANCH  23  24
ATOM     24  C   UNL     1      45.449   3.150   8.163  0.00  0.00    +0.000 A 
ATOM     25  C   UNL     1      45.490   1.897   8.771  0.00  0.00    +0.000 A 
ATOM     26  N   UNL     1      46.221   0.852   8.319  0.00  0.00    +0.000 NA
ATOM     27  C   UNL     1      46.958   1.068   7.201  0.00  0.00    +0.000 A 
ATOM     28  C   UNL     1      47.003   2.279   6.531  0.00  0.00    +0.000 A 
ATOM     29 CL   UNL     1      47.969   2.477   5.127  0.00  0.00    +0.000 Cl
ATOM     30  C   UNL     1      46.245   3.334   7.024  0.00  0.00    +0.000 A 
ENDBRANCH  23  24
ENDBRANCH  22  23
ENDBRANCH  21  22
ENDBRANCH   4  21
TORSDOF 7
ENDMDL
MODEL 3
REMARK VINA RESULT:    -7.688      1.584      2.012
REMARK INTER + INTRA:         -11.879
REMARK INTER:                 -10.601
REMARK INTRA:                  -1.278
REMARK UNBOUND:                -1.045
REMARK  Name = 
REMARK  7 active torsions:
REMARK  status: ('A' for Active; 'I' for Inactive)
REMARK    1  A    between atoms: C_2  and  C_21
REMARK    2  A    between atoms: N_3  and  C_4
REMARK    3  A    between atoms: C_4  and  C_5
REMARK    4  A    between atoms: C_8  and  C_9
REMARK    5  A    between atoms: C_9  and  O_10
REMARK    6  A    between atoms: O_10  and  C_11
REMARK    7  A    between atoms: C_11  and  C_12
REMARK                            x       y       z     vdW  Elec       q    Type
REMARK                         _______ _______ _______ _____ _____    ______ ____
ROOT
ATOM      1  C   UNL     1      46.788   6.801  13.120  0.00  0.00    +0.000 A 
ATOM      2  C   UNL     1      46.639   5.512  13.649  0.00  0.00    +0.000 A 
ATOM      3  C   UNL     1      45.470   4.777  13.418  0.00  0.00    +0.000 A 
ATOM      4  C   UNL     1      44.429   5.310  12.645  0.00  0.00    +0.000 A 
ATOM      5  C   UNL     1      44.588   6.591  12.101  0.00  0.00    +0.000 A 
ATOM      6  C   UNL     1      45.756   7.326  12.331  0.00  0.00    +0.000 A 
ENDROOT
BRANCH   1   7
ATOM      7  C   UNL     1      48.041   7.599  13.371  0.00  0.00    +0.000 C 
BRANCH   7  10
ATOM      8  O   UNL     1      49.028   8.526  15.810  0.00  0.00    +0.000 OA
ATOM      9  C   UNL     1      49.390   7.418  15.425  0.00  0.00    +0.000 C 
ATOM     10  N   UNL     1      48.950   6.890  14.235  0.00  0.00    +0.000 N 
ATOM     11  H   UNL     1      49.266   5.962  13.963  0.00  0.00    +0.000 HD
BRANCH   9  12
ATOM     12  C   UNL     1      50.294   6.589  16.177  0.00  0.00    +0.000 A 
ATOM     13  C   UNL     1      51.597   6.869  16.543  0.00  0.00    +0.000 A 
ATOM     14  N   UNL     1      52.154   5.848  17.269  0.00  0.00    +0.000 NA
ATOM     15  C   UNL     1      51.218   4.929  17.364  0.00  0.00    +0.000 A 
ATOM     16  N   UNL     1      51.278   3.725  18.002  0.00  0.00    +0.000 NA
ATOM     17  C   UNL     1      50.201   3.014  17.921  0.00  0.00    +0.000 A 
ATOM     18  C   UNL     1      48.979   3.472  17.178  0.00  0.00    +0.000 A 
ATOM     19  N   UNL     1      48.900   4.618  16.578  0.00  0.00    +0.000 NA
ATOM     20  N   UNL     1      50.064   5.340  16.697  0.00  0.00    +0.000 N 
ENDBRANCH   9  12
ENDBRANCH   7  10
ENDBRANCH   1   7
BRANCH   4  21
ATOM     21  C   UNL     1      43.178   4.510  12.381  0.00  0.00    +0.000 C 
BRANCH  21  22
ATOM     22  O   UNL     1      43.128   4.144  11.005  0.00  0.00    +0.000 OA
BRANCH  22  23
ATOM     23  C   UNL     1      43.805   2.913  10.755  0.00  0.00    +0.000 C 
BRANCH  23  24
ATOM     24  C   UNL     1      44.758   3.081   9.605  0.00  0.00    +0.000 A 
ATOM     25  C   UNL     1      44.982   4.336   9.041  0.00  0.00    +0.000 A 
ATOM     26  N   UNL     1      45.802   4.563   7.988  0.00  0.00    +0.000 NA
ATOM     27  C   UNL     1      46.429   3.481   7.464  0.00  0.00    +0.000 A 
ATOM     28  C   UNL     1      46.261   2.190   7.938  0.00  0.00    +0.000 A 
ATOM     29 CL   UNL     1      47.083   0.870   7.213  0.00  0.00    +0.000 Cl
ATOM     30  C   UNL     1      45.409   1.989   9.016  0.00  0.00    +0.000 A 
ENDBRANCH  23  24
ENDBRANCH  22  23
ENDBRANCH  21  22
ENDBRANCH   4  21
TORSDOF 7
ENDMDL
MODEL 4
REMARK VINA RESULT:    -7.270      2.883      8.850
REMARK INTER + INTRA:         -11.290
REMARK INTER:                 -10.106
REMARK INTRA:                  -1.185
REMARK UNBOUND:                -1.045
REMARK  Name = 
REMARK  7 active torsions:
REMARK  status: ('A' for Active; 'I' for Inactive)
REMARK    1  A    between atoms: C_2  and  C_21
REMARK    2  A    between atoms: N_3  and  C_4
REMARK    3  A    between atoms: C_4  and  C_5
REMARK    4  A    between atoms: C_8  and  C_9
REMARK    5  A    between atoms: C_9  and  O_10
REMARK    6  A    between atoms: O_10  and  C_11
REMARK    7  A    between atoms: C_11  and  C_12
REMARK                            x       y       z     vdW  Elec       q    Type
REMARK                         _______ _______ _______ _____ _____    ______ ____
ROOT
ATOM      1  C   UNL     1      46.101   7.051  12.115  0.00  0.00    +0.000 A 
ATOM      2  C   UNL     1      47.047   6.102  12.525  0.00  0.00    +0.000 A 
ATOM      3  C   UNL     1      47.980   6.411  13.521  0.00  0.00    +0.000 A 
ATOM      4  C   UNL     1      47.982   7.670  14.138  0.00  0.00    +0.000 A 
ATOM      5  C   UNL     1      47.022   8.611  13.740  0.00  0.00    +0.000 A 
ATOM      6  C   UNL     1      46.089   8.303  12.745  0.00  0.00    +0.000 A 
ENDROOT
BRANCH   1   7
ATOM      7  C   UNL     1      45.098   6.726  11.039  0.00  0.00    +0.000 C 
BRANCH   7  10
ATOM      8  O   UNL     1      43.267   4.788  10.220  0.00  0.00    +0.000 OA
ATOM      9  C   UNL     1      44.458   4.585  10.003  0.00  0.00    +0.000 C 
ATOM     10  N   UNL     1      45.422   5.489  10.375  0.00  0.00    +0.000 N 
ATOM     11  H   UNL     1      46.396   5.284  10.162  0.00  0.00    +0.000 HD
BRANCH   9  12
ATOM     12  C   UNL     1      44.938   3.397   9.349  0.00  0.00    +0.000 A 
ATOM     13  C   UNL     1      44.602   2.083   9.620  0.00  0.00    +0.000 A 
ATOM     14  N   UNL     1      45.248   1.208   8.784  0.00  0.00    +0.000 NA
ATOM     15  C   UNL     1      45.986   1.954   7.991  0.00  0.00    +0.000 A 
ATOM     16  N   UNL     1      46.807   1.555   6.979  0.00  0.00    +0.000 NA
ATOM     17  C   UNL     1      47.424   2.514   6.370  0.00  0.00    +0.000 A 
ATOM     18  C   UNL     1      47.257   3.958   6.750  0.00  0.00    +0.000 A 
ATOM     19  N   UNL     1      46.472   4.356   7.700  0.00  0.00    +0.000 NA
ATOM     20  N   UNL     1      45.833   3.303   8.313  0.00  0.00    +0.000 N 
ENDBRANCH   9  12
ENDBRANCH   7  10
ENDBRANCH   1   7
BRANCH   4  21
ATOM     21  C   UNL     1      48.976   7.995  15.225  0.00  0.00    +0.000 C 
BRANCH  21  22
ATOM     22  O   UNL     1      48.482   7.530  16.477  0.00  0.00    +0.000 OA
BRANCH  22  23
ATOM     23  C   UNL     1      49.442   6.730  17.166  0.00  0.00    +0.000 C 
BRANCH  23  24
ATOM     24  C   UNL     1      49.066   5.279  17.059  0.00  0.00    +0.000 A 
ATOM     25  C   UNL     1      47.745   4.898  16.829  0.00  0.00    +0.000 A 
ATOM     26  N   UNL     1      47.324   3.615  16.748  0.00  0.00    +0.000 NA
ATOM     27  C   UNL     1      48.269   2.656  16.911  0.00  0.00    +0.000 A 
ATOM     28  C   UNL     1      49.604   2.926  17.162  0.00  0.00    +0.000 A 
ATOM     29 CL   UNL     1      50.739   1.656  17.367  0.00  0.00    +0.000 Cl
ATOM     30  C   UNL     1      50.004   4.254  17.244  0.00  0.00    +0.000 A 
ENDBRANCH  23  24
ENDBRANCH  22  23
ENDBRANCH  21  22
ENDBRANCH   4  21
TORSDOF 7
ENDMDL
MODEL 5
REMARK VINA RESULT:    -7.033      3.272      8.429
REMARK INTER + INTRA:         -10.956
REMARK INTER:                  -9.431
REMARK INTRA:                  -1.525
REMARK UNBOUND:                -1.045
REMARK  Name = 
REMARK  7 active torsions:
REMARK  status: ('A' for Active; 'I' for Inactive)
REMARK    1  A    between atoms: C_2  and  C_21
REMARK    2  A    between atoms: N_3  and  C_4
REMARK    3  A    between atoms: C_4  and  C_5
REMARK    4  A    between atoms: C_8  and  C_9
REMARK    5  A    between atoms: C_9  and  O_10
REMARK    6  A    between atoms: O_10  and  C_11
REMARK    7  A    between atoms: C_11  and  C_12
REMARK                            x       y       z     vdW  Elec       q    Type
REMARK                         _______ _______ _______ _____ _____    ______ ____
ROOT
ATOM      1  C   UNL     1      48.267   7.856  13.715  0.00  0.00    +0.000 A 
ATOM      2  C   UNL     1      49.182   6.905  14.184  0.00  0.00    +0.000 A 
ATOM      3  C   UNL     1      49.654   6.959  15.501  0.00  0.00    +0.000 A 
ATOM      4  C   UNL     1      49.213   7.956  16.381  0.00  0.00    +0.000 A 
ATOM      5  C   UNL     1      48.282   8.895  15.916  0.00  0.00    +0.000 A 
ATOM      6  C   UNL     1      47.810   8.843  14.600  0.00  0.00    +0.000 A 
ENDROOT
BRANCH   1   7
ATOM      7  C   UNL     1      47.761   7.808  12.297  0.00  0.00    +0.000 C 
BRANCH   7  10
ATOM      8  O   UNL     1      45.047   7.458  12.840  0.00  0.00    +0.000 OA
ATOM      9  C   UNL     1      45.663   6.517  12.348  0.00  0.00    +0.000 C 
ATOM     10  N   UNL     1      47.001   6.608  12.051  0.00  0.00    +0.000 N 
ATOM     11  H   UNL     1      47.467   5.807  11.632  0.00  0.00    +0.000 HD
BRANCH   9  12
ATOM     12  C   UNL     1      45.043   5.255  12.044  0.00  0.00    +0.000 A 
ATOM     13  C   UNL     1      44.370   4.410  12.906  0.00  0.00    +0.000 A 
ATOM     14  N   UNL     1      43.899   3.293  12.264  0.00  0.00    +0.000 NA
ATOM     15  C   UNL     1      44.268   3.425  11.008  0.00  0.00    +0.000 A 
ATOM     16  N   UNL     1      44.029   2.581   9.964  0.00  0.00    +0.000 NA
ATOM     17  C   UNL     1      44.525   2.962   8.833  0.00  0.00    +0.000 A 
ATOM     18  C   UNL     1      45.309   4.234   8.677  0.00  0.00    +0.000 A 
ATOM     19  N   UNL     1      45.534   5.054   9.654  0.00  0.00    +0.000 NA
ATOM     20  N   UNL     1      44.983   4.610  10.834  0.00  0.00    +0.000 N 
ENDBRANCH   9  12
ENDBRANCH   7  10
ENDBRANCH   1   7
BRANCH   4  21
ATOM     21  C   UNL     1      49.707   8.002  17.806  0.00  0.00    +0.000 C 
BRANCH  21  22
ATOM     22  O   UNL     1      48.653   7.629  18.688  0.00  0.00    +0.000 OA
BRANCH  22  23
ATOM     23  C   UNL     1      48.949   6.425  19.395  0.00  0.00    +0.000 C 
BRANCH  23  24
ATOM     24  C   UNL     1      48.591   5.236  18.547  0.00  0.00    +0.000 A 
ATOM     25  C   UNL     1      47.277   5.022  18.136  0.00  0.00    +0.000 A 
ATOM     26  N   UNL     1      46.872   3.963  17.396  0.00  0.00    +0.000 NA
ATOM     27  C   UNL     1      47.827   3.064  17.052  0.00  0.00    +0.000 A 
ATOM     28  C   UNL     1      49.157   3.174  17.424  0.00  0.00    +0.000 A 
ATOM     29 CL   UNL     1      50.305   1.988  16.956  0.00  0.00    +0.000 Cl
ATOM     30  C   UNL     1      49.540   4.270  18.187  0.00  0.00    +0.000 A 
ENDBRANCH  23  24
ENDBRANCH  22  23
ENDBRANCH  21  22
ENDBRANCH   4  21
TORSDOF 7
ENDMDL
MODEL 6
REMARK VINA RESULT:    -6.790      3.052      8.673
REMARK INTER + INTRA:         -10.614
REMARK INTER:                  -9.317
REMARK INTRA:                  -1.296
REMARK UNBOUND:                -1.045
REMARK  Name = 
REMARK  7 active torsions:
REMARK  status: ('A' for Active; 'I' for Inactive)
REMARK    1  A    between atoms: C_2  and  C_21
REMARK    2  A    between atoms: N_3  and  C_4
REMARK    3  A    between atoms: C_4  and  C_5
REMARK    4  A    between atoms: C_8  and  C_9
REMARK    5  A    between atoms: C_9  and  O_10
REMARK    6  A    between atoms: O_10  and  C_11
REMARK    7  A    between atoms: C_11  and  C_12
REMARK                            x       y       z     vdW  Elec       q    Type
REMARK                         _______ _______ _______ _____ _____    ______ ____
ROOT
ATOM      1  C   UNL     1      46.955   8.010  12.682  0.00  0.00    +0.000 A 
ATOM      2  C   UNL     1      47.288   9.188  13.364  0.00  0.00    +0.000 A 
ATOM      3  C   UNL     1      48.546   9.336  13.959  0.00  0.00    +0.000 A 
ATOM      4  C   UNL     1      49.503   8.316  13.876  0.00  0.00    +0.000 A 
ATOM      5  C   UNL     1      49.176   7.146  13.176  0.00  0.00    +0.000 A 
ATOM      6  C   UNL     1      47.919   6.997  12.581  0.00  0.00    +0.000 A 
ENDROOT
BRANCH   1   7
ATOM      7  C   UNL     1      45.600   7.842  12.045  0.00  0.00    +0.000 C 
BRANCH   7  10
ATOM      8  O   UNL     1      43.146   6.697  11.377  0.00  0.00    +0.000 OA
ATOM      9  C   UNL     1      44.153   6.001  11.279  0.00  0.00    +0.000 C 
ATOM     10  N   UNL     1      45.399   6.490  11.589  0.00  0.00    +0.000 N 
ATOM     11  H   UNL     1      46.206   5.881  11.480  0.00  0.00    +0.000 HD
BRANCH   9  12
ATOM     12  C   UNL     1      44.114   4.633  10.837  0.00  0.00    +0.000 A 
ATOM     13  C   UNL     1      43.413   3.580  11.395  0.00  0.00    +0.000 A 
ATOM     14  N   UNL     1      43.603   2.414  10.699  0.00  0.00    +0.000 NA
ATOM     15  C   UNL     1      44.415   2.719   9.710  0.00  0.00    +0.000 A 
ATOM     16  N   UNL     1      44.897   1.904   8.730  0.00  0.00    +0.000 NA
ATOM     17  C   UNL     1      45.693   2.478   7.888  0.00  0.00    +0.000 A 
ATOM     18  C   UNL     1      46.066   3.930   7.984  0.00  0.00    +0.000 A 
ATOM     19  N   UNL     1      45.608   4.722   8.900  0.00  0.00    +0.000 NA
ATOM     20  N   UNL     1      44.761   4.070   9.766  0.00  0.00    +0.000 N 
ENDBRANCH   9  12
ENDBRANCH   7  10
ENDBRANCH   1   7
BRANCH   4  21
ATOM     21  C   UNL     1      50.866   8.484  14.501  0.00  0.00    +0.000 C 
BRANCH  21  22
ATOM     22  O   UNL     1      51.237   7.279  15.165  0.00  0.00    +0.000 OA
BRANCH  22  23
ATOM     23  C   UNL     1      50.837   7.281  16.535  0.00  0.00    +0.000 C 
BRANCH  23  24
ATOM     24  C   UNL     1      50.382   5.904  16.934  0.00  0.00    +0.000 A 
ATOM     25  C   UNL     1      51.298   4.945  17.363  0.00  0.00    +0.000 A 
ATOM     26  N   UNL     1      50.971   3.679  17.711  0.00  0.00    +0.000 NA
ATOM     27  C   UNL     1      49.659   3.347  17.621  0.00  0.00    +0.000 A 
ATOM     28  C   UNL     1      48.672   4.218  17.190  0.00  0.00    +0.000 A 
ATOM     29 CL   UNL     1      47.033   3.719  17.094  0.00  0.00    +0.000 Cl
ATOM     30  C   UNL     1      49.041   5.509  16.834  0.00  0.00    +0.000 A 
ENDBRANCH  23  24
ENDBRANCH  22  23
ENDBRANCH  21  22
ENDBRANCH   4  21
TORSDOF 7
ENDMDL
MODEL 7
REMARK VINA RESULT:    -6.723      3.544      8.154
REMARK INTER + INTRA:         -10.520
REMARK INTER:                  -9.150
REMARK INTRA:                  -1.370
REMARK UNBOUND:                -1.045
REMARK  Name = 
REMARK  7 active torsions:
REMARK  status: ('A' for Active; 'I' for Inactive)
REMARK    1  A    between atoms: C_2  and  C_21
REMARK    2  A    between atoms: N_3  and  C_4
REMARK    3  A    between atoms: C_4  and  C_5
REMARK    4  A    between atoms: C_8  and  C_9
REMARK    5  A    between atoms: C_9  and  O_10
REMARK    6  A    between atoms: O_10  and  C_11
REMARK    7  A    between atoms: C_11  and  C_12
REMARK                            x       y       z     vdW  Elec       q    Type
REMARK                         _______ _______ _______ _____ _____    ______ ____
ROOT
ATOM      1  C   UNL     1      48.526   8.164  13.762  0.00  0.00    +0.000 A 
ATOM      2  C   UNL     1      49.188   7.019  14.224  0.00  0.00    +0.000 A 
ATOM      3  C   UNL     1      49.429   6.838  15.590  0.00  0.00    +0.000 A 
ATOM      4  C   UNL     1      49.003   7.790  16.526  0.00  0.00    +0.000 A 
ATOM      5  C   UNL     1      48.324   8.925  16.064  0.00  0.00    +0.000 A 
ATOM      6  C   UNL     1      48.083   9.108  14.698  0.00  0.00    +0.000 A 
ENDROOT
BRANCH   1   7
ATOM      7  C   UNL     1      48.271   8.369  12.291  0.00  0.00    +0.000 C 
BRANCH   7  10
ATOM      8  O   UNL     1      45.506   8.170  11.983  0.00  0.00    +0.000 OA
ATOM      9  C   UNL     1      46.197   7.229  11.603  0.00  0.00    +0.000 C 
ATOM     10  N   UNL     1      47.566   7.249  11.720  0.00  0.00    +0.000 N 
ATOM     11  H   UNL     1      48.100   6.452  11.379  0.00  0.00    +0.000 HD
BRANCH   9  12
ATOM     12  C   UNL     1      45.640   6.042  11.012  0.00  0.00    +0.000 A 
ATOM     13  C   UNL     1      45.824   5.568   9.726  0.00  0.00    +0.000 A 
ATOM     14  N   UNL     1      45.145   4.395   9.512  0.00  0.00    +0.000 NA
ATOM     15  C   UNL     1      44.537   4.126  10.647  0.00  0.00    +0.000 A 
ATOM     16  N   UNL     1      43.745   3.058  10.948  0.00  0.00    +0.000 NA
ATOM     17  C   UNL     1      43.267   3.058  12.149  0.00  0.00    +0.000 A 
ATOM     18  C   UNL     1      43.556   4.151  13.139  0.00  0.00    +0.000 A 
ATOM     19  N   UNL     1      44.317   5.165  12.875  0.00  0.00    +0.000 NA
ATOM     20  N   UNL     1      44.806   5.118  11.590  0.00  0.00    +0.000 N 
ENDBRANCH   9  12
ENDBRANCH   7  10
ENDBRANCH   1   7
BRANCH   4  21
ATOM     21  C   UNL     1      49.245   7.585  18.001  0.00  0.00    +0.000 C 
BRANCH  21  22
ATOM     22  O   UNL     1      48.030   7.193  18.634  0.00  0.00    +0.000 OA
BRANCH  22  23
ATOM     23  C   UNL     1      48.174   5.970  19.354  0.00  0.00    +0.000 C 
BRANCH  23  24
ATOM     24  C   UNL     1      48.179   4.812  18.394  0.00  0.00    +0.000 A 
ATOM     25  C   UNL     1      47.031   4.470  17.682  0.00  0.00    +0.000 A 
ATOM     26  N   UNL     1      46.949   3.428  16.823  0.00  0.00    +0.000 NA
ATOM     27  C   UNL     1      48.070   2.680  16.669  0.00  0.00    +0.000 A 
ATOM     28  C   UNL     1      49.255   2.923  17.343  0.00  0.00    +0.000 A 
ATOM     29 CL   UNL     1      50.629   1.924  17.102  0.00  0.00    +0.000 Cl
ATOM     30  C   UNL     1      49.306   3.998  18.222  0.00  0.00    +0.000 A 
ENDBRANCH  23  24
ENDBRANCH  22  23
ENDBRANCH  21  22
ENDBRANCH   4  21
TORSDOF 7
ENDMDL
MODEL 8
REMARK VINA RESULT:    -6.694      2.276      3.112
REMARK INTER + INTRA:         -10.478
REMARK INTER:                  -9.284
REMARK INTRA:                  -1.194
REMARK UNBOUND:                -1.045
REMARK  Name = 
REMARK  7 active torsions:
REMARK  status: ('A' for Active; 'I' for Inactive)
REMARK    1  A    between atoms: C_2  and  C_21
REMARK    2  A    between atoms: N_3  and  C_4
REMARK    3  A    between atoms: C_4  and  C_5
REMARK    4  A    between atoms: C_8  and  C_9
REMARK    5  A    between atoms: C_9  and  O_10
REMARK    6  A    between atoms: O_10  and  C_11
REMARK    7  A    between atoms: C_11  and  C_12
REMARK                            x       y       z     vdW  Elec       q    Type
REMARK                         _______ _______ _______ _____ _____    ______ ____
ROOT
ATOM      1  C   UNL     1      45.501   8.039  12.172  0.00  0.00    +0.000 A 
ATOM      2  C   UNL     1      44.336   7.936  11.400  0.00  0.00    +0.000 A 
ATOM      3  C   UNL     1      43.601   6.745  11.375  0.00  0.00    +0.000 A 
ATOM      4  C   UNL     1      44.007   5.635  12.129  0.00  0.00    +0.000 A 
ATOM      5  C   UNL     1      45.163   5.746  12.915  0.00  0.00    +0.000 A 
ATOM      6  C   UNL     1      45.898   6.936  12.940  0.00  0.00    +0.000 A 
ENDROOT
BRANCH   1   7
ATOM      7  C   UNL     1      46.301   9.316  12.197  0.00  0.00    +0.000 C 
BRANCH   7  10
ATOM      8  O   UNL     1      48.899  10.323  12.070  0.00  0.00    +0.000 OA
ATOM      9  C   UNL     1      48.522   9.832  13.130  0.00  0.00    +0.000 C 
ATOM     10  N   UNL     1      47.258   9.314  13.275  0.00  0.00    +0.000 N 
ATOM     11  H   UNL     1      46.984   8.930  14.176  0.00  0.00    +0.000 HD
BRANCH   9  12
ATOM     12  C   UNL     1      49.361   9.759  14.296  0.00  0.00    +0.000 A 
ATOM     13  C   UNL     1      50.227  10.722  14.780  0.00  0.00    +0.000 A 
ATOM     14  N   UNL     1      50.858  10.311  15.927  0.00  0.00    +0.000 NA
ATOM     15  C   UNL     1      50.400   9.102  16.170  0.00  0.00    +0.000 A 
ATOM     16  N   UNL     1      50.713   8.272  17.205  0.00  0.00    +0.000 NA
ATOM     17  C   UNL     1      50.114   7.127  17.184  0.00  0.00    +0.000 A 
ATOM     18  C   UNL     1      49.151   6.735  16.100  0.00  0.00    +0.000 A 
ATOM     19  N   UNL     1      48.831   7.515  15.117  0.00  0.00    +0.000 NA
ATOM     20  N   UNL     1      49.488   8.722  15.186  0.00  0.00    +0.000 N 
ENDBRANCH   9  12
ENDBRANCH   7  10
ENDBRANCH   1   7
BRANCH   4  21
ATOM     21  C   UNL     1      43.204   4.358  12.116  0.00  0.00    +0.000 C 
BRANCH  21  22
ATOM     22  O   UNL     1      43.144   3.846  10.788  0.00  0.00    +0.000 OA
BRANCH  22  23
ATOM     23  C   UNL     1      44.034   2.747  10.600  0.00  0.00    +0.000 C 
BRANCH  23  24
ATOM     24  C   UNL     1      44.955   3.030   9.445  0.00  0.00    +0.000 A 
ATOM     25  C   UNL     1      45.156   4.333   8.995  0.00  0.00    +0.000 A 
ATOM     26  N   UNL     1      45.946   4.665   7.947  0.00  0.00    +0.000 NA
ATOM     27  C   UNL     1      46.564   3.642   7.308  0.00  0.00    +0.000 A 
ATOM     28  C   UNL     1      46.417   2.311   7.663  0.00  0.00    +0.000 A 
ATOM     29 CL   UNL     1      47.227   1.071   6.796  0.00  0.00    +0.000 Cl
ATOM     30  C   UNL     1      45.596   2.002   8.740  0.00  0.00    +0.000 A 
ENDBRANCH  23  24
ENDBRANCH  22  23
ENDBRANCH  21  22
ENDBRANCH   4  21
TORSDOF 7
ENDMDL
MODEL 9
REMARK VINA RESULT:    -6.624      4.074      8.419
REMARK INTER + INTRA:         -10.380
REMARK INTER:                  -8.964
REMARK INTRA:                  -1.416
REMARK UNBOUND:                -1.045
REMARK  Name = 
REMARK  7 active torsions:
REMARK  status: ('A' for Active; 'I' for Inactive)
REMARK    1  A    between atoms: C_2  and  C_21
REMARK    2  A    between atoms: N_3  and  C_4
REMARK    3  A    between atoms: C_4  and  C_5
REMARK    4  A    between atoms: C_8  and  C_9
REMARK    5  A    between atoms: C_9  and  O_10
REMARK    6  A    between atoms: O_10  and  C_11
REMARK    7  A    between atoms: C_11  and  C_12
REMARK                            x       y       z     vdW  Elec       q    Type
REMARK                         _______ _______ _______ _____ _____    ______ ____
ROOT
ATOM      1  C   UNL     1      49.222   7.801  15.698  0.00  0.00    +0.000 A 
ATOM      2  C   UNL     1      50.420   7.161  15.355  0.00  0.00    +0.000 A 
ATOM      3  C   UNL     1      51.333   6.778  16.345  0.00  0.00    +0.000 A 
ATOM      4  C   UNL     1      51.063   7.015  17.700  0.00  0.00    +0.000 A 
ATOM      5  C   UNL     1      49.855   7.638  18.042  0.00  0.00    +0.000 A 
ATOM      6  C   UNL     1      48.943   8.022  17.054  0.00  0.00    +0.000 A 
ENDROOT
BRANCH   1   7
ATOM      7  C   UNL     1      48.240   8.222  14.636  0.00  0.00    +0.000 C 
BRANCH   7  10
ATOM      8  O   UNL     1      48.399   6.552  12.408  0.00  0.00    +0.000 OA
ATOM      9  C   UNL     1      47.474   6.377  13.195  0.00  0.00    +0.000 C 
ATOM     10  N   UNL     1      47.324   7.156  14.316  0.00  0.00    +0.000 N 
ATOM     11  H   UNL     1      46.550   6.965  14.948  0.00  0.00    +0.000 HD
BRANCH   9  12
ATOM     12  C   UNL     1      46.481   5.352  13.014  0.00  0.00    +0.000 A 
ATOM     13  C   UNL     1      46.552   4.024  13.393  0.00  0.00    +0.000 A 
ATOM     14  N   UNL     1      45.409   3.339  13.068  0.00  0.00    +0.000 NA
ATOM     15  C   UNL     1      44.620   4.218  12.489  0.00  0.00    +0.000 A 
ATOM     16  N   UNL     1      43.363   4.030  11.996  0.00  0.00    +0.000 NA
ATOM     17  C   UNL     1      42.825   5.079  11.466  0.00  0.00    +0.000 A 
ATOM     18  C   UNL     1      43.530   6.404  11.392  0.00  0.00    +0.000 A 
ATOM     19  N   UNL     1      44.717   6.604  11.867  0.00  0.00    +0.000 NA
ATOM     20  N   UNL     1      45.246   5.463  12.426  0.00  0.00    +0.000 N 
ENDBRANCH   9  12
ENDBRANCH   7  10
ENDBRANCH   1   7
BRANCH   4  21
ATOM     21  C   UNL     1      52.038   6.585  18.768  0.00  0.00    +0.000 C 
BRANCH  21  22
ATOM     22  O   UNL     1      51.540   5.424  19.427  0.00  0.00    +0.000 OA
BRANCH  22  23
ATOM     23  C   UNL     1      52.067   4.224  18.864  0.00  0.00    +0.000 C 
BRANCH  23  24
ATOM     24  C   UNL     1      50.986   3.497  18.113  0.00  0.00    +0.000 A 
ATOM     25  C   UNL     1      51.287   2.390  17.322  0.00  0.00    +0.000 A 
ATOM     26  N   UNL     1      50.375   1.702  16.595  0.00  0.00    +0.000 NA
ATOM     27  C   UNL     1      49.095   2.144  16.655  0.00  0.00    +0.000 A 
ATOM     28  C   UNL     1      48.694   3.244  17.395  0.00  0.00    +0.000 A 
ATOM     29 CL   UNL     1      47.054   3.748  17.410  0.00  0.00    +0.000 Cl
ATOM     30  C   UNL     1      49.654   3.933  18.125  0.00  0.00    +0.000 A 
ENDBRANCH  23  24
ENDBRANCH  22  23
ENDBRANCH  21  22
ENDBRANCH   4  21
TORSDOF 7
ENDMDL
