MODEL 1
REMARK VINA RESULT:    -8.207      0.000      0.000
REMARK INTER + INTRA:         -12.320
REMARK INTER:                 -11.565
REMARK INTRA:                  -0.755
REMARK UNBOUND:                -0.755
REMARK  Name = 
REMARK  7 active torsions:
REMARK  status: ('A' for Active; 'I' for Inactive)
REMARK    1  A    between atoms: C_2  and  C_20
REMARK    2  A    between atoms: N_3  and  C_4
REMARK    3  A    between atoms: C_4  and  C_5
REMARK    4  A    between atoms: C_8  and  C_9
REMARK    5  A    between atoms: C_9  and  N_10
REMARK    6  A    between atoms: N_10  and  C_11
REMARK    7  A    between atoms: C_11  and  C_12
REMARK                            x       y       z     vdW  Elec       q    Type
REMARK                         _______ _______ _______ _____ _____    ______ ____
ROOT
ATOM      1  C   UNL     1      47.062   7.822  13.125  0.00  0.00    +0.000 C 
ENDROOT
BRANCH   1   2
ATOM      2  C   UNL     1      46.129   6.863  12.442  0.00  0.00    +0.000 A 
ATOM      3  C   UNL     1      45.010   7.340  11.768  0.00  0.00    +0.000 A 
ATOM      4  N   UNL     1      44.136   6.526  11.138  0.00  0.00    +0.000 NA
ATOM      5  C   UNL     1      44.420   5.196  11.190  0.00  0.00    +0.000 A 
ATOM      6  C   UNL     1      45.513   4.717  11.902  0.00  0.00    +0.000 A 
ATOM      7  N   UNL     1      46.385   5.532  12.540  0.00  0.00    +0.000 NA
BRANCH   5   8
ATOM      8  C   UNL     1      43.521   4.241  10.436  0.00  0.00    +0.000 C 
BRANCH   8   9
ATOM      9  N   UNL     1      44.239   3.278   9.578  0.00  0.00    +0.000 NA
ATOM     10  H   UNL     1      43.524   2.652   9.196  0.00  0.00    +0.000 HD
BRANCH   9  11
ATOM     11  C   UNL     1      44.908   3.935   8.447  0.00  0.00    +0.000 C 
BRANCH  11  12
ATOM     12  C   UNL     1      45.637   2.899   7.574  0.00  0.00    +0.000 C 
ATOM     13  C   UNL     1      46.049   1.656   8.375  0.00  0.00    +0.000 C 
ATOM     14  C   UNL     1      46.886   0.714   7.519  0.00  0.00    +0.000 C 
ATOM     15  O   UNL     1      48.026   1.388   6.986  0.00  0.00    +0.000 OA
ATOM     16  C   UNL     1      47.657   2.472   6.136  0.00  0.00    +0.000 C 
ATOM     17  C   UNL     1      46.876   3.522   6.914  0.00  0.00    +0.000 C 
ENDBRANCH  11  12
ENDBRANCH   9  11
ENDBRANCH   8   9
ENDBRANCH   5   8
ENDBRANCH   1   2
BRANCH   1  20
ATOM     18  O   UNL     1      49.610   6.885  13.875  0.00  0.00    +0.000 OA
ATOM     19  C   UNL     1      48.702   6.864  14.699  0.00  0.00    +0.000 C 
ATOM     20  N   UNL     1      47.452   7.343  14.426  0.00  0.00    +0.000 N 
ATOM     21  H   UNL     1      46.718   7.298  15.121  0.00  0.00    +0.000 HD
BRANCH  19  22
ATOM     22  C   UNL     1      48.904   6.371  16.062  0.00  0.00    +0.000 A 
ATOM     23  C   UNL     1      49.634   7.103  16.984  0.00  0.00    +0.000 A 
ATOM     24  S   UNL     1      49.726   6.357  18.517  0.00  0.00    +0.000 S 
ATOM     25  C   UNL     1      48.814   5.020  17.987  0.00  0.00    +0.000 A 
ATOM     26  N   UNL     1      48.519   3.991  18.829  0.00  0.00    +0.000 NA
ATOM     27  C   UNL     1      47.830   3.042  18.281  0.00  0.00    +0.000 A 
ATOM     28  N   UNL     1      47.413   3.027  16.975  0.00  0.00    +0.000 N 
ATOM     29  C   UNL     1      47.688   4.041  16.095  0.00  0.00    +0.000 A 
ATOM     30  O   UNL     1      47.278   3.997  14.942  0.00  0.00    +0.000 OA
ATOM     31  C   UNL     1      48.445   5.141  16.661  0.00  0.00    +0.000 A 
ATOM     32  H   UNL     1      46.867   2.259  16.612  0.00  0.00    +0.000 HD
ENDBRANCH  19  22
ENDBRANCH   1  20
TORSDOF 7
ENDMDL
MODEL 2
REMARK VINA RESULT:    -7.985      1.732      3.033
REMARK INTER + INTRA:         -12.008
REMARK INTER:                 -11.019
REMARK INTRA:                  -0.988
REMARK UNBOUND:                -0.755
REMARK  Name = 
REMARK  7 active torsions:
REMARK  status: ('A' for Active; 'I' for Inactive)
REMARK    1  A    between atoms: C_2  and  C_20
REMARK    2  A    between atoms: N_3  and  C_4
REMARK    3  A    between atoms: C_4  and  C_5
REMARK    4  A    between atoms: C_8  and  C_9
REMARK    5  A    between atoms: C_9  and  N_10
REMARK    6  A    between atoms: N_10  and  C_11
REMARK    7  A    between atoms: C_11  and  C_12
REMARK                            x       y       z     vdW  Elec       q    Type
REMARK                         _______ _______ _______ _____ _____    ______ ____
ROOT
ATOM      1  C   UNL     1      47.264   3.572  14.426  0.00  0.00    +0.000 C 
ENDROOT
BRANCH   1   2
ATOM      2  C   UNL     1      46.323   3.926  13.310  0.00  0.00    +0.000 A 
ATOM      3  C   UNL     1      46.280   5.226  12.821  0.00  0.00    +0.000 A 
ATOM      4  N   UNL     1      45.455   5.603  11.821  0.00  0.00    +0.000 NA
ATOM      5  C   UNL     1      44.664   4.623  11.303  0.00  0.00    +0.000 A 
ATOM      6  C   UNL     1      44.675   3.334  11.823  0.00  0.00    +0.000 A 
ATOM      7  N   UNL     1      45.497   2.959  12.830  0.00  0.00    +0.000 NA
BRANCH   5   8
ATOM      8  C   UNL     1      43.775   4.966  10.128  0.00  0.00    +0.000 C 
BRANCH   8   9
ATOM      9  N   UNL     1      44.068   4.201   8.900  0.00  0.00    +0.000 NA
ATOM     10  H   UNL     1      43.445   4.575   8.178  0.00  0.00    +0.000 HD
BRANCH   9  11
ATOM     11  C   UNL     1      45.451   4.397   8.442  0.00  0.00    +0.000 C 
BRANCH  11  12
ATOM     12  C   UNL     1      45.921   3.192   7.609  0.00  0.00    +0.000 C 
ATOM     13  C   UNL     1      46.087   1.928   8.465  0.00  0.00    +0.000 C 
ATOM     14  C   UNL     1      46.683   0.792   7.642  0.00  0.00    +0.000 C 
ATOM     15  O   UNL     1      47.922   1.186   7.054  0.00  0.00    +0.000 OA
ATOM     16  C   UNL     1      47.764   2.283   6.157  0.00  0.00    +0.000 C 
ATOM     17  C   UNL     1      47.243   3.510   6.895  0.00  0.00    +0.000 C 
ENDBRANCH  11  12
ENDBRANCH   9  11
ENDBRANCH   8   9
ENDBRANCH   5   8
ENDBRANCH   1   2
BRANCH   1  20
ATOM     18  O   UNL     1      48.760   3.554  16.812  0.00  0.00    +0.000 OA
ATOM     19  C   UNL     1      48.151   4.572  16.499  0.00  0.00    +0.000 C 
ATOM     20  N   UNL     1      47.442   4.673  15.336  0.00  0.00    +0.000 N 
ATOM     21  H   UNL     1      46.937   5.521  15.112  0.00  0.00    +0.000 HD
BRANCH  19  22
ATOM     22  C   UNL     1      48.183   5.778  17.325  0.00  0.00    +0.000 A 
ATOM     23  C   UNL     1      47.569   5.808  18.567  0.00  0.00    +0.000 A 
ATOM     24  S   UNL     1      47.747   7.303  19.373  0.00  0.00    +0.000 S 
ATOM     25  C   UNL     1      48.628   7.964  18.075  0.00  0.00    +0.000 A 
ATOM     26  N   UNL     1      49.096   9.243  18.120  0.00  0.00    +0.000 NA
ATOM     27  C   UNL     1      49.736   9.608  17.057  0.00  0.00    +0.000 A 
ATOM     28  N   UNL     1      49.949   8.819  15.957  0.00  0.00    +0.000 N 
ATOM     29  C   UNL     1      49.496   7.528  15.869  0.00  0.00    +0.000 A 
ATOM     30  O   UNL     1      49.727   6.850  14.876  0.00  0.00    +0.000 OA
ATOM     31  C   UNL     1      48.784   7.059  17.043  0.00  0.00    +0.000 A 
ATOM     32  H   UNL     1      50.468   9.163  15.163  0.00  0.00    +0.000 HD
ENDBRANCH  19  22
ENDBRANCH   1  20
TORSDOF 7
ENDMDL
MODEL 3
REMARK VINA RESULT:    -7.911      2.156      3.816
REMARK INTER + INTRA:         -11.902
REMARK INTER:                 -10.897
REMARK INTRA:                  -1.006
REMARK UNBOUND:                -0.755
REMARK  Name = 
REMARK  7 active torsions:
REMARK  status: ('A' for Active; 'I' for Inactive)
REMARK    1  A    between atoms: C_2  and  C_20
REMARK    2  A    between atoms: N_3  and  C_4
REMARK    3  A    between atoms: C_4  and  C_5
REMARK    4  A    between atoms: C_8  and  C_9
REMARK    5  A    between atoms: C_9  and  N_10
REMARK    6  A    between atoms: N_10  and  C_11
REMARK    7  A    between atoms: C_11  and  C_12
REMARK                            x       y       z     vdW  Elec       q    Type
REMARK                         _______ _______ _______ _____ _____    ______ ____
ROOT
ATOM      1  C   UNL     1      47.178   4.848  14.744  0.00  0.00    +0.000 C 
ENDROOT
BRANCH   1   2
ATOM      2  C   UNL     1      46.209   4.691  13.607  0.00  0.00    +0.000 A 
ATOM      3  C   UNL     1      45.672   5.815  12.988  0.00  0.00    +0.000 A 
ATOM      4  N   UNL     1      44.796   5.736  11.964  0.00  0.00    +0.000 NA
ATOM      5  C   UNL     1      44.471   4.477  11.557  0.00  0.00    +0.000 A 
ATOM      6  C   UNL     1      44.972   3.355  12.206  0.00  0.00    +0.000 A 
ATOM      7  N   UNL     1      45.844   3.435  13.237  0.00  0.00    +0.000 NA
BRANCH   5   8
ATOM      8  C   UNL     1      43.555   4.325  10.362  0.00  0.00    +0.000 C 
BRANCH   8   9
ATOM      9  N   UNL     1      44.027   3.357   9.354  0.00  0.00    +0.000 NA
ATOM     10  H   UNL     1      43.192   3.034   8.858  0.00  0.00    +0.000 HD
BRANCH   9  11
ATOM     11  C   UNL     1      44.921   3.977   8.366  0.00  0.00    +0.000 C 
BRANCH  11  12
ATOM     12  C   UNL     1      45.650   2.900   7.544  0.00  0.00    +0.000 C 
ATOM     13  C   UNL     1      46.021   1.677   8.394  0.00  0.00    +0.000 C 
ATOM     14  C   UNL     1      46.860   0.693   7.590  0.00  0.00    +0.000 C 
ATOM     15  O   UNL     1      48.023   1.329   7.061  0.00  0.00    +0.000 OA
ATOM     16  C   UNL     1      47.694   2.390   6.168  0.00  0.00    +0.000 C 
ATOM     17  C   UNL     1      46.915   3.480   6.892  0.00  0.00    +0.000 C 
ENDBRANCH  11  12
ENDBRANCH   9  11
ENDBRANCH   8   9
ENDBRANCH   5   8
ENDBRANCH   1   2
BRANCH   1  20
ATOM     18  O   UNL     1      49.472   5.658  16.162  0.00  0.00    +0.000 OA
ATOM     19  C   UNL     1      48.839   6.495  15.526  0.00  0.00    +0.000 C 
ATOM     20  N   UNL     1      47.744   6.171  14.777  0.00  0.00    +0.000 N 
ATOM     21  H   UNL     1      47.233   6.885  14.274  0.00  0.00    +0.000 HD
BRANCH  19  22
ATOM     22  C   UNL     1      49.243   7.900  15.478  0.00  0.00    +0.000 A 
ATOM     23  C   UNL     1      49.247   8.679  16.623  0.00  0.00    +0.000 A 
ATOM     24  S   UNL     1      49.775  10.280  16.348  0.00  0.00    +0.000 S 
ATOM     25  C   UNL     1      49.989   9.986  14.685  0.00  0.00    +0.000 A 
ATOM     26  N   UNL     1      50.436  10.965  13.849  0.00  0.00    +0.000 NA
ATOM     27  C   UNL     1      50.537  10.596  12.613  0.00  0.00    +0.000 A 
ATOM     28  N   UNL     1      50.232   9.347  12.137  0.00  0.00    +0.000 N 
ATOM     29  C   UNL     1      49.780   8.335  12.942  0.00  0.00    +0.000 A 
ATOM     30  O   UNL     1      49.540   7.227  12.480  0.00  0.00    +0.000 OA
ATOM     31  C   UNL     1      49.663   8.687  14.344  0.00  0.00    +0.000 A 
ATOM     32  H   UNL     1      50.345   9.121  11.159  0.00  0.00    +0.000 HD
ENDBRANCH  19  22
ENDBRANCH   1  20
TORSDOF 7
ENDMDL
MODEL 4
REMARK VINA RESULT:    -7.887      1.438      1.845
REMARK INTER + INTRA:         -11.869
REMARK INTER:                 -11.015
REMARK INTRA:                  -0.854
REMARK UNBOUND:                -0.755
REMARK  Name = 
REMARK  7 active torsions:
REMARK  status: ('A' for Active; 'I' for Inactive)
REMARK    1  A    between atoms: C_2  and  C_20
REMARK    2  A    between atoms: N_3  and  C_4
REMARK    3  A    between atoms: C_4  and  C_5
REMARK    4  A    between atoms: C_8  and  C_9
REMARK    5  A    between atoms: C_9  and  N_10
REMARK    6  A    between atoms: N_10  and  C_11
REMARK    7  A    between atoms: C_11  and  C_12
REMARK                            x       y       z     vdW  Elec       q    Type
REMARK                         _______ _______ _______ _____ _____    ______ ____
ROOT
ATOM      1  C   UNL     1      48.067   6.609  13.341  0.00  0.00    +0.000 C 
ENDROOT
BRANCH   1   2
ATOM      2  C   UNL     1      46.898   5.834  12.802  0.00  0.00    +0.000 A 
ATOM      3  C   UNL     1      46.155   6.341  11.742  0.00  0.00    +0.000 A 
ATOM      4  N   UNL     1      45.094   5.690  11.217  0.00  0.00    +0.000 NA
ATOM      5  C   UNL     1      44.795   4.488  11.783  0.00  0.00    +0.000 A 
ATOM      6  C   UNL     1      45.512   4.004  12.872  0.00  0.00    +0.000 A 
ATOM      7  N   UNL     1      46.570   4.659  13.402  0.00  0.00    +0.000 NA
BRANCH   5   8
ATOM      8  C   UNL     1      43.667   3.676  11.187  0.00  0.00    +0.000 C 
BRANCH   8   9
ATOM      9  N   UNL     1      43.795   3.429   9.738  0.00  0.00    +0.000 NA
ATOM     10  H   UNL     1      44.369   4.192   9.370  0.00  0.00    +0.000 HD
BRANCH   9  11
ATOM     11  C   UNL     1      44.491   2.167   9.450  0.00  0.00    +0.000 C 
BRANCH  11  12
ATOM     12  C   UNL     1      45.754   2.425   8.610  0.00  0.00    +0.000 C 
ATOM     13  C   UNL     1      45.502   3.440   7.486  0.00  0.00    +0.000 C 
ATOM     14  C   UNL     1      46.727   3.570   6.590  0.00  0.00    +0.000 C 
ATOM     15  O   UNL     1      47.110   2.299   6.064  0.00  0.00    +0.000 OA
ATOM     16  C   UNL     1      47.469   1.381   7.094  0.00  0.00    +0.000 C 
ATOM     17  C   UNL     1      46.284   1.113   8.012  0.00  0.00    +0.000 C 
ENDBRANCH  11  12
ENDBRANCH   9  11
ENDBRANCH   8   9
ENDBRANCH   5   8
ENDBRANCH   1   2
BRANCH   1  20
ATOM     18  O   UNL     1      50.222   6.795  15.143  0.00  0.00    +0.000 OA
ATOM     19  C   UNL     1      49.076   6.809  15.582  0.00  0.00    +0.000 C 
ATOM     20  N   UNL     1      47.980   6.769  14.769  0.00  0.00    +0.000 N 
ATOM     21  H   UNL     1      47.047   6.767  15.161  0.00  0.00    +0.000 HD
BRANCH  19  22
ATOM     22  C   UNL     1      48.797   6.924  17.013  0.00  0.00    +0.000 A 
ATOM     23  C   UNL     1      48.459   8.144  17.578  0.00  0.00    +0.000 A 
ATOM     24  S   UNL     1      48.150   8.049  19.255  0.00  0.00    +0.000 S 
ATOM     25  C   UNL     1      48.485   6.380  19.282  0.00  0.00    +0.000 A 
ATOM     26  N   UNL     1      48.401   5.663  20.437  0.00  0.00    +0.000 NA
ATOM     27  C   UNL     1      48.695   4.410  20.303  0.00  0.00    +0.000 A 
ATOM     28  N   UNL     1      49.065   3.810  19.128  0.00  0.00    +0.000 N 
ATOM     29  C   UNL     1      49.161   4.493  17.943  0.00  0.00    +0.000 A 
ATOM     30  O   UNL     1      49.474   3.914  16.911  0.00  0.00    +0.000 OA
ATOM     31  C   UNL     1      48.826   5.902  18.031  0.00  0.00    +0.000 A 
ATOM     32  H   UNL     1      49.270   2.823  19.090  0.00  0.00    +0.000 HD
ENDBRANCH  19  22
ENDBRANCH   1  20
TORSDOF 7
ENDMDL
MODEL 5
REMARK VINA RESULT:    -7.860      1.771      2.301
REMARK INTER + INTRA:         -11.831
REMARK INTER:                 -11.109
REMARK INTRA:                  -0.722
REMARK UNBOUND:                -0.755
REMARK  Name = 
REMARK  7 active torsions:
REMARK  status: ('A' for Active; 'I' for Inactive)
REMARK    1  A    between atoms: C_2  and  C_20
REMARK    2  A    between atoms: N_3  and  C_4
REMARK    3  A    between atoms: C_4  and  C_5
REMARK    4  A    between atoms: C_8  and  C_9
REMARK    5  A    between atoms: C_9  and  N_10
REMARK    6  A    between atoms: N_10  and  C_11
REMARK    7  A    between atoms: C_11  and  C_12
REMARK                            x       y       z     vdW  Elec       q    Type
REMARK                         _______ _______ _______ _____ _____    ______ ____
ROOT
ATOM      1  C   UNL     1      47.799   6.470  13.561  0.00  0.00    +0.000 C 
ENDROOT
BRANCH   1   2
ATOM      2  C   UNL     1      46.672   5.859  12.779  0.00  0.00    +0.000 A 
ATOM      3  C   UNL     1      45.993   6.613  11.829  0.00  0.00    +0.000 A 
ATOM      4  N   UNL     1      44.971   6.118  11.097  0.00  0.00    +0.000 NA
ATOM      5  C   UNL     1      44.646   4.818  11.336  0.00  0.00    +0.000 A 
ATOM      6  C   UNL     1      45.296   4.079  12.317  0.00  0.00    +0.000 A 
ATOM      7  N   UNL     1      46.315   4.577  13.055  0.00  0.00    +0.000 NA
BRANCH   5   8
ATOM      8  C   UNL     1      43.563   4.183  10.491  0.00  0.00    +0.000 C 
BRANCH   8   9
ATOM      9  N   UNL     1      44.061   3.247   9.465  0.00  0.00    +0.000 NA
ATOM     10  H   UNL     1      43.235   2.910   8.964  0.00  0.00    +0.000 HD
BRANCH   9  11
ATOM     11  C   UNL     1      44.937   3.910   8.489  0.00  0.00    +0.000 C 
BRANCH  11  12
ATOM     12  C   UNL     1      45.635   2.870   7.595  0.00  0.00    +0.000 C 
ATOM     13  C   UNL     1      46.068   1.627   8.386  0.00  0.00    +0.000 C 
ATOM     14  C   UNL     1      46.875   0.680   7.507  0.00  0.00    +0.000 C 
ATOM     15  O   UNL     1      48.000   1.350   6.938  0.00  0.00    +0.000 OA
ATOM     16  C   UNL     1      47.610   2.433   6.098  0.00  0.00    +0.000 C 
ATOM     17  C   UNL     1      46.856   3.488   6.897  0.00  0.00    +0.000 C 
ENDBRANCH  11  12
ENDBRANCH   9  11
ENDBRANCH   8   9
ENDBRANCH   5   8
ENDBRANCH   1   2
BRANCH   1  20
ATOM     18  O   UNL     1      49.918   6.627  15.409  0.00  0.00    +0.000 OA
ATOM     19  C   UNL     1      48.853   6.131  15.765  0.00  0.00    +0.000 C 
ATOM     20  N   UNL     1      47.766   6.061  14.941  0.00  0.00    +0.000 N 
ATOM     21  H   UNL     1      46.906   5.632  15.257  0.00  0.00    +0.000 HD
BRANCH  19  22
ATOM     22  C   UNL     1      48.651   5.623  17.121  0.00  0.00    +0.000 A 
ATOM     23  C   UNL     1      48.794   4.274  17.406  0.00  0.00    +0.000 A 
ATOM     24  S   UNL     1      48.537   3.901  19.052  0.00  0.00    +0.000 S 
ATOM     25  C   UNL     1      48.201   5.527  19.429  0.00  0.00    +0.000 A 
ATOM     26  N   UNL     1      47.897   5.907  20.702  0.00  0.00    +0.000 NA
ATOM     27  C   UNL     1      47.655   7.171  20.832  0.00  0.00    +0.000 A 
ATOM     28  N   UNL     1      47.686   8.086  19.812  0.00  0.00    +0.000 N 
ATOM     29  C   UNL     1      47.987   7.748  18.518  0.00  0.00    +0.000 A 
ATOM     30  O   UNL     1      48.024   8.601  17.641  0.00  0.00    +0.000 OA
ATOM     31  C   UNL     1      48.283   6.342  18.317  0.00  0.00    +0.000 A 
ATOM     32  H   UNL     1      47.497   9.063  19.983  0.00  0.00    +0.000 HD
ENDBRANCH  19  22
ENDBRANCH   1  20
TORSDOF 7
ENDMDL
MODEL 6
REMARK VINA RESULT:    -7.516      2.486      3.488
REMARK INTER + INTRA:         -11.346
REMARK INTER:                 -10.522
REMARK INTRA:                  -0.824
REMARK UNBOUND:                -0.755
REMARK  Name = 
REMARK  7 active torsions:
REMARK  status: ('A' for Active; 'I' for Inactive)
REMARK    1  A    between atoms: C_2  and  C_20
REMARK    2  A    between atoms: N_3  and  C_4
REMARK    3  A    between atoms: C_4  and  C_5
REMARK    4  A    between atoms: C_8  and  C_9
REMARK    5  A    between atoms: C_9  and  N_10
REMARK    6  A    between atoms: N_10  and  C_11
REMARK    7  A    between atoms: C_11  and  C_12
REMARK                            x       y       z     vdW  Elec       q    Type
REMARK                         _______ _______ _______ _____ _____    ______ ____
ROOT
ATOM      1  C   UNL     1      47.346   4.798  14.620  0.00  0.00    +0.000 C 
ENDROOT
BRANCH   1   2
ATOM      2  C   UNL     1      46.355   4.639  13.502  0.00  0.00    +0.000 A 
ATOM      3  C   UNL     1      45.865   5.759  12.840  0.00  0.00    +0.000 A 
ATOM      4  N   UNL     1      44.972   5.678  11.830  0.00  0.00    +0.000 NA
ATOM      5  C   UNL     1      44.581   4.421  11.483  0.00  0.00    +0.000 A 
ATOM      6  C   UNL     1      45.038   3.305  12.175  0.00  0.00    +0.000 A 
ATOM      7  N   UNL     1      45.926   3.387  13.192  0.00  0.00    +0.000 NA
BRANCH   5   8
ATOM      8  C   UNL     1      43.644   4.261  10.307  0.00  0.00    +0.000 C 
BRANCH   8   9
ATOM      9  N   UNL     1      44.179   3.432   9.210  0.00  0.00    +0.000 NA
ATOM     10  H   UNL     1      43.387   3.229   8.595  0.00  0.00    +0.000 HD
BRANCH   9  11
ATOM     11  C   UNL     1      45.188   4.147   8.416  0.00  0.00    +0.000 C 
BRANCH  11  12
ATOM     12  C   UNL     1      46.300   3.186   7.961  0.00  0.00    +0.000 C 
ATOM     13  C   UNL     1      46.615   3.333   6.466  0.00  0.00    +0.000 C 
ATOM     14  C   UNL     1      47.618   2.277   6.018  0.00  0.00    +0.000 C 
ATOM     15  O   UNL     1      47.144   0.965   6.321  0.00  0.00    +0.000 OA
ATOM     16  C   UNL     1      46.965   0.771   7.721  0.00  0.00    +0.000 C 
ATOM     17  C   UNL     1      45.916   1.730   8.267  0.00  0.00    +0.000 C 
ENDBRANCH  11  12
ENDBRANCH   9  11
ENDBRANCH   8   9
ENDBRANCH   5   8
ENDBRANCH   1   2
BRANCH   1  20
ATOM     18  O   UNL     1      49.607   5.822  15.949  0.00  0.00    +0.000 OA
ATOM     19  C   UNL     1      48.739   6.600  15.565  0.00  0.00    +0.000 C 
ATOM     20  N   UNL     1      47.637   6.185  14.874  0.00  0.00    +0.000 N 
ATOM     21  H   UNL     1      46.930   6.848  14.584  0.00  0.00    +0.000 HD
BRANCH  19  22
ATOM     22  C   UNL     1      48.846   8.043  15.774  0.00  0.00    +0.000 A 
ATOM     23  C   UNL     1      49.354   8.871  14.786  0.00  0.00    +0.000 A 
ATOM     24  S   UNL     1      49.367  10.521  15.228  0.00  0.00    +0.000 S 
ATOM     25  C   UNL     1      48.720  10.175  16.764  0.00  0.00    +0.000 A 
ATOM     26  N   UNL     1      48.474  11.168  17.664  0.00  0.00    +0.000 NA
ATOM     27  C   UNL     1      47.993  10.751  18.790  0.00  0.00    +0.000 A 
ATOM     28  N   UNL     1      47.739   9.440  19.101  0.00  0.00    +0.000 N 
ATOM     29  C   UNL     1      47.972   8.411  18.225  0.00  0.00    +0.000 A 
ATOM     30  O   UNL     1      47.710   7.255  18.535  0.00  0.00    +0.000 OA
ATOM     31  C   UNL     1      48.496   8.822  16.937  0.00  0.00    +0.000 A 
ATOM     32  H   UNL     1      47.352   9.183  19.996  0.00  0.00    +0.000 HD
ENDBRANCH  19  22
ENDBRANCH   1  20
TORSDOF 7
ENDMDL
MODEL 7
REMARK VINA RESULT:    -7.488      3.119      5.340
REMARK INTER + INTRA:         -11.306
REMARK INTER:                 -10.612
REMARK INTRA:                  -0.694
REMARK UNBOUND:                -0.755
REMARK  Name = 
REMARK  7 active torsions:
REMARK  status: ('A' for Active; 'I' for Inactive)
REMARK    1  A    between atoms: C_2  and  C_20
REMARK    2  A    between atoms: N_3  and  C_4
REMARK    3  A    between atoms: C_4  and  C_5
REMARK    4  A    between atoms: C_8  and  C_9
REMARK    5  A    between atoms: C_9  and  N_10
REMARK    6  A    between atoms: N_10  and  C_11
REMARK    7  A    between atoms: C_11  and  C_12
REMARK                            x       y       z     vdW  Elec       q    Type
REMARK                         _______ _______ _______ _____ _____    ______ ____
ROOT
ATOM      1  C   UNL     1      47.699   6.204  14.166  0.00  0.00    +0.000 C 
ENDROOT
BRANCH   1   2
ATOM      2  C   UNL     1      46.599   5.333  13.631  0.00  0.00    +0.000 A 
ATOM      3  C   UNL     1      46.816   3.973  13.440  0.00  0.00    +0.000 A 
ATOM      4  N   UNL     1      45.866   3.141  12.961  0.00  0.00    +0.000 NA
ATOM      5  C   UNL     1      44.662   3.714  12.682  0.00  0.00    +0.000 A 
ATOM      6  C   UNL     1      44.460   5.081  12.831  0.00  0.00    +0.000 A 
ATOM      7  N   UNL     1      45.415   5.915  13.304  0.00  0.00    +0.000 NA
BRANCH   5   8
ATOM      8  C   UNL     1      43.534   2.820  12.217  0.00  0.00    +0.000 C 
BRANCH   8   9
ATOM      9  N   UNL     1      43.630   2.403  10.805  0.00  0.00    +0.000 NA
ATOM     10  H   UNL     1      42.685   2.125  10.527  0.00  0.00    +0.000 HD
BRANCH   9  11
ATOM     11  C   UNL     1      44.047   3.506   9.929  0.00  0.00    +0.000 C 
BRANCH  11  12
ATOM     12  C   UNL     1      45.337   3.140   9.174  0.00  0.00    +0.000 C 
ATOM     13  C   UNL     1      45.549   4.016   7.932  0.00  0.00    +0.000 C 
ATOM     14  C   UNL     1      46.755   3.540   7.133  0.00  0.00    +0.000 C 
ATOM     15  O   UNL     1      46.620   2.164   6.779  0.00  0.00    +0.000 OA
ATOM     16  C   UNL     1      46.548   1.321   7.926  0.00  0.00    +0.000 C 
ATOM     17  C   UNL     1      45.323   1.659   8.765  0.00  0.00    +0.000 C 
ENDBRANCH  11  12
ENDBRANCH   9  11
ENDBRANCH   8   9
ENDBRANCH   5   8
ENDBRANCH   1   2
BRANCH   1  20
ATOM     18  O   UNL     1      48.831   7.120  11.756  0.00  0.00    +0.000 OA
ATOM     19  C   UNL     1      48.235   7.916  12.474  0.00  0.00    +0.000 C 
ATOM     20  N   UNL     1      47.620   7.539  13.634  0.00  0.00    +0.000 N 
ATOM     21  H   UNL     1      47.149   8.222  14.214  0.00  0.00    +0.000 HD
BRANCH  19  22
ATOM     22  C   UNL     1      48.091   9.327  12.114  0.00  0.00    +0.000 A 
ATOM     23  C   UNL     1      49.202  10.116  11.868  0.00  0.00    +0.000 A 
ATOM     24  S   UNL     1      48.809  11.722  11.440  0.00  0.00    +0.000 S 
ATOM     25  C   UNL     1      47.141  11.417  11.597  0.00  0.00    +0.000 A 
ATOM     26  N   UNL     1      46.221  12.394  11.363  0.00  0.00    +0.000 NA
ATOM     27  C   UNL     1      44.995  12.016  11.533  0.00  0.00    +0.000 A 
ATOM     28  N   UNL     1      44.605  10.759  11.916  0.00  0.00    +0.000 N 
ATOM     29  C   UNL     1      45.497   9.747  12.161  0.00  0.00    +0.000 A 
ATOM     30  O   UNL     1      45.105   8.632  12.480  0.00  0.00    +0.000 OA
ATOM     31  C   UNL     1      46.888  10.110  11.969  0.00  0.00    +0.000 A 
ATOM     32  H   UNL     1      43.629  10.526  12.020  0.00  0.00    +0.000 HD
ENDBRANCH  19  22
ENDBRANCH   1  20
TORSDOF 7
ENDMDL
MODEL 8
REMARK VINA RESULT:    -7.054      3.578      7.771
REMARK INTER + INTRA:         -10.695
REMARK INTER:                  -9.403
REMARK INTRA:                  -1.292
REMARK UNBOUND:                -0.755
REMARK  Name = 
REMARK  7 active torsions:
REMARK  status: ('A' for Active; 'I' for Inactive)
REMARK    1  A    between atoms: C_2  and  C_20
REMARK    2  A    between atoms: N_3  and  C_4
REMARK    3  A    between atoms: C_4  and  C_5
REMARK    4  A    between atoms: C_8  and  C_9
REMARK    5  A    between atoms: C_9  and  N_10
REMARK    6  A    between atoms: N_10  and  C_11
REMARK    7  A    between atoms: C_11  and  C_12
REMARK                            x       y       z     vdW  Elec       q    Type
REMARK                         _______ _______ _______ _____ _____    ______ ____
ROOT
ATOM      1  C   UNL     1      48.610   7.935  12.188  0.00  0.00    +0.000 C 
ENDROOT
BRANCH   1   2
ATOM      2  C   UNL     1      48.643   7.811  13.684  0.00  0.00    +0.000 A 
ATOM      3  C   UNL     1      48.148   8.838  14.480  0.00  0.00    +0.000 A 
ATOM      4  N   UNL     1      48.153   8.784  15.830  0.00  0.00    +0.000 NA
ATOM      5  C   UNL     1      48.666   7.646  16.376  0.00  0.00    +0.000 A 
ATOM      6  C   UNL     1      49.201   6.640  15.580  0.00  0.00    +0.000 A 
ATOM      7  N   UNL     1      49.203   6.698  14.228  0.00  0.00    +0.000 NA
BRANCH   5   8
ATOM      8  C   UNL     1      48.625   7.492  17.880  0.00  0.00    +0.000 C 
BRANCH   8   9
ATOM      9  N   UNL     1      47.620   6.528  18.366  0.00  0.00    +0.000 NA
ATOM     10  H   UNL     1      47.313   6.000  17.545  0.00  0.00    +0.000 HD
BRANCH   9  11
ATOM     11  C   UNL     1      48.190   5.570  19.325  0.00  0.00    +0.000 C 
BRANCH  11  12
ATOM     12  C   UNL     1      48.438   4.211  18.648  0.00  0.00    +0.000 C 
ATOM     13  C   UNL     1      49.898   4.046  18.202  0.00  0.00    +0.000 C 
ATOM     14  C   UNL     1      50.081   2.754  17.415  0.00  0.00    +0.000 C 
ATOM     15  O   UNL     1      49.191   2.707  16.301  0.00  0.00    +0.000 OA
ATOM     16  C   UNL     1      47.825   2.733  16.706  0.00  0.00    +0.000 C 
ATOM     17  C   UNL     1      47.506   4.029  17.440  0.00  0.00    +0.000 C 
ENDBRANCH  11  12
ENDBRANCH   9  11
ENDBRANCH   8   9
ENDBRANCH   5   8
ENDBRANCH   1   2
BRANCH   1  20
ATOM     18  O   UNL     1      45.829   8.057  11.760  0.00  0.00    +0.000 OA
ATOM     19  C   UNL     1      46.434   7.033  11.457  0.00  0.00    +0.000 C 
ATOM     20  N   UNL     1      47.788   6.915  11.592  0.00  0.00    +0.000 N 
ATOM     21  H   UNL     1      48.257   6.052  11.348  0.00  0.00    +0.000 HD
BRANCH  19  22
ATOM     22  C   UNL     1      45.754   5.876  10.876  0.00  0.00    +0.000 A 
ATOM     23  C   UNL     1      45.838   5.607   9.519  0.00  0.00    +0.000 A 
ATOM     24  S   UNL     1      44.992   4.197   9.057  0.00  0.00    +0.000 S 
ATOM     25  C   UNL     1      44.466   3.919  10.653  0.00  0.00    +0.000 A 
ATOM     26  N   UNL     1      43.686   2.845  10.960  0.00  0.00    +0.000 NA
ATOM     27  C   UNL     1      43.357   2.772  12.209  0.00  0.00    +0.000 A 
ATOM     28  N   UNL     1      43.732   3.670  13.175  0.00  0.00    +0.000 N 
ATOM     29  C   UNL     1      44.517   4.763  12.910  0.00  0.00    +0.000 A 
ATOM     30  O   UNL     1      44.847   5.528  13.806  0.00  0.00    +0.000 OA
ATOM     31  C   UNL     1      44.929   4.886  11.525  0.00  0.00    +0.000 A 
ATOM     32  H   UNL     1      43.450   3.548  14.136  0.00  0.00    +0.000 HD
ENDBRANCH  19  22
ENDBRANCH   1  20
TORSDOF 7
ENDMDL
MODEL 9
REMARK VINA RESULT:    -7.000      2.888      8.288
REMARK INTER + INTRA:         -10.620
REMARK INTER:                  -9.604
REMARK INTRA:                  -1.016
REMARK UNBOUND:                -0.755
REMARK  Name = 
REMARK  7 active torsions:
REMARK  status: ('A' for Active; 'I' for Inactive)
REMARK    1  A    between atoms: C_2  and  C_20
REMARK    2  A    between atoms: N_3  and  C_4
REMARK    3  A    between atoms: C_4  and  C_5
REMARK    4  A    between atoms: C_8  and  C_9
REMARK    5  A    between atoms: C_9  and  N_10
REMARK    6  A    between atoms: N_10  and  C_11
REMARK    7  A    between atoms: C_11  and  C_12
REMARK                            x       y       z     vdW  Elec       q    Type
REMARK                         _______ _______ _______ _____ _____    ______ ____
ROOT
ATOM      1  C   UNL     1      47.451   7.837  12.544  0.00  0.00    +0.000 C 
ENDROOT
BRANCH   1   2
ATOM      2  C   UNL     1      48.077   7.803  13.908  0.00  0.00    +0.000 A 
ATOM      3  C   UNL     1      48.601   6.615  14.406  0.00  0.00    +0.000 A 
ATOM      4  N   UNL     1      49.174   6.524  15.626  0.00  0.00    +0.000 NA
ATOM      5  C   UNL     1      49.222   7.678  16.346  0.00  0.00    +0.000 A 
ATOM      6  C   UNL     1      48.658   8.854  15.866  0.00  0.00    +0.000 A 
ATOM      7  N   UNL     1      48.077   8.944  14.647  0.00  0.00    +0.000 NA
BRANCH   5   8
ATOM      8  C   UNL     1      49.923   7.658  17.687  0.00  0.00    +0.000 C 
BRANCH   8   9
ATOM      9  N   UNL     1      50.491   6.347  18.057  0.00  0.00    +0.000 NA
ATOM     10  H   UNL     1      51.398   6.543  18.488  0.00  0.00    +0.000 HD
BRANCH   9  11
ATOM     11  C   UNL     1      49.666   5.646  19.050  0.00  0.00    +0.000 C 
BRANCH  11  12
ATOM     12  C   UNL     1      49.341   4.219  18.575  0.00  0.00    +0.000 C 
ATOM     13  C   UNL     1      50.432   3.656  17.653  0.00  0.00    +0.000 C 
ATOM     14  C   UNL     1      50.019   2.302  17.090  0.00  0.00    +0.000 C 
ATOM     15  O   UNL     1      48.765   2.394  16.413  0.00  0.00    +0.000 OA
ATOM     16  C   UNL     1      47.714   2.796  17.287  0.00  0.00    +0.000 C 
ATOM     17  C   UNL     1      47.986   4.184  17.852  0.00  0.00    +0.000 C 
ENDBRANCH  11  12
ENDBRANCH   9  11
ENDBRANCH   8   9
ENDBRANCH   5   8
ENDBRANCH   1   2
BRANCH   1  20
ATOM     18  O   UNL     1      44.874   7.617  11.429  0.00  0.00    +0.000 OA
ATOM     19  C   UNL     1      45.471   6.596  11.755  0.00  0.00    +0.000 C 
ATOM     20  N   UNL     1      46.740   6.617  12.259  0.00  0.00    +0.000 N 
ATOM     21  H   UNL     1      47.201   5.760  12.534  0.00  0.00    +0.000 HD
BRANCH  19  22
ATOM     22  C   UNL     1      44.885   5.267  11.578  0.00  0.00    +0.000 A 
ATOM     23  C   UNL     1      44.195   4.649  12.609  0.00  0.00    +0.000 A 
ATOM     24  S   UNL     1      43.574   3.117  12.182  0.00  0.00    +0.000 S 
ATOM     25  C   UNL     1      44.231   3.222  10.615  0.00  0.00    +0.000 A 
ATOM     26  N   UNL     1      44.061   2.217   9.711  0.00  0.00    +0.000 NA
ATOM     27  C   UNL     1      44.627   2.434   8.567  0.00  0.00    +0.000 A 
ATOM     28  N   UNL     1      45.346   3.556   8.246  0.00  0.00    +0.000 N 
ATOM     29  C   UNL     1      45.541   4.590   9.125  0.00  0.00    +0.000 A 
ATOM     30  O   UNL     1      46.172   5.584   8.790  0.00  0.00    +0.000 OA
ATOM     31  C   UNL     1      44.914   4.407  10.420  0.00  0.00    +0.000 A 
ATOM     32  H   UNL     1      45.753   3.668   7.330  0.00  0.00    +0.000 HD
ENDBRANCH  19  22
ENDBRANCH   1  20
TORSDOF 7
ENDMDL
