MODEL 1
REMARK VINA RESULT:    -8.219      0.000      0.000
REMARK INTER + INTRA:         -12.105
REMARK INTER:                 -11.102
REMARK INTRA:                  -1.003
REMARK UNBOUND:                -1.003
REMARK  Name = 
REMARK  8 active torsions:
REMARK  status: ('A' for Active; 'I' for Inactive)
REMARK    1  A    between atoms: C_1  and  C_2
REMARK    2  A    between atoms: C_2  and  C_3
REMARK    3  A    between atoms: C_2  and  N_17
REMARK    4  A    between atoms: C_3  and  C_4
REMARK    5  A    between atoms: C_8  and  C_9
REMARK    6  A    between atoms: N_17  and  C_18
REMARK    7  A    between atoms: N_17  and  C_19
REMARK    8  A    between atoms: C_22  and  C_23
REMARK                            x       y       z     vdW  Elec       q    Type
REMARK                         _______ _______ _______ _____ _____    ______ ____
ROOT
ATOM      1  C   UNL     1      48.533   7.909  11.348  0.00  0.00    +0.000 C 
ATOM      2  C   UNL     1      47.498   7.181  12.220  0.00  0.00    +0.000 C 
ENDROOT
BRANCH   2   3
ATOM      3  N   UNL     1      47.621   7.398  13.692  0.00  0.00    +0.000 N 
ATOM      4  C   UNL     1      47.829   8.723  14.282  0.00  0.00    +0.000 C 
BRANCH   3   5
ATOM      5  C   UNL     1      47.716   6.318  14.579  0.00  0.00    +0.000 A 
ATOM      6  C   UNL     1      48.453   6.413  15.771  0.00  0.00    +0.000 A 
ATOM      7  C   UNL     1      48.590   5.328  16.639  0.00  0.00    +0.000 A 
ATOM      8  C   UNL     1      47.967   4.141  16.300  0.00  0.00    +0.000 A 
ATOM      9  N   UNL     1      47.218   3.980  15.177  0.00  0.00    +0.000 NA
ATOM     10  C   UNL     1      47.117   5.069  14.366  0.00  0.00    +0.000 A 
BRANCH   8  11
ATOM     11  C   UNL     1      48.116   2.954  17.200  0.00  0.00    +0.000 C 
ATOM     12  N   UNL     1      46.970   2.531  17.817  0.00  0.00    +0.000 N 
ATOM     13  O   UNL     1      49.187   2.386  17.377  0.00  0.00    +0.000 OA
ATOM     14  H   UNL     1      46.099   3.018  17.636  0.00  0.00    +0.000 HD
ATOM     15  H   UNL     1      47.001   1.730  18.427  0.00  0.00    +0.000 HD
ENDBRANCH   8  11
ENDBRANCH   3   5
ENDBRANCH   2   3
BRANCH   2  16
ATOM     16  C   UNL     1      46.058   7.467  11.694  0.00  0.00    +0.000 C 
BRANCH  16  17
ATOM     17  C   UNL     1      45.238   6.353  11.067  0.00  0.00    +0.000 A 
ATOM     18  C   UNL     1      43.899   6.123  11.372  0.00  0.00    +0.000 A 
ATOM     19  C   UNL     1      43.227   5.008  10.893  0.00  0.00    +0.000 A 
ATOM     20  C   UNL     1      43.879   4.129  10.042  0.00  0.00    +0.000 A 
ATOM     21  C   UNL     1      45.191   4.378   9.597  0.00  0.00    +0.000 A 
ATOM     22  C   UNL     1      45.864   5.479  10.157  0.00  0.00    +0.000 A 
BRANCH  21  23
ATOM     23  C   UNL     1      45.790   3.525   8.548  0.00  0.00    +0.000 A 
ATOM     24  C   UNL     1      46.300   4.046   7.344  0.00  0.00    +0.000 A 
ATOM     25  C   UNL     1      46.834   3.201   6.361  0.00  0.00    +0.000 A 
ATOM     26  C   UNL     1      46.879   1.827   6.564  0.00  0.00    +0.000 A 
ATOM     27  C   UNL     1      46.383   1.298   7.743  0.00  0.00    +0.000 A 
ATOM     28  F   UNL     1      46.421  -0.017   7.947  0.00  0.00    +0.000 F 
ATOM     29  C   UNL     1      45.838   2.126   8.720  0.00  0.00    +0.000 A 
ENDBRANCH  21  23
ENDBRANCH  16  17
ENDBRANCH   2  16
TORSDOF 6
ENDMDL
MODEL 2
REMARK VINA RESULT:    -8.074      4.418      8.653
REMARK INTER + INTRA:         -11.910
REMARK INTER:                 -10.948
REMARK INTRA:                  -0.961
REMARK UNBOUND:                -1.003
REMARK  Name = 
REMARK  8 active torsions:
REMARK  status: ('A' for Active; 'I' for Inactive)
REMARK    1  A    between atoms: C_1  and  C_2
REMARK    2  A    between atoms: C_2  and  C_3
REMARK    3  A    between atoms: C_2  and  N_17
REMARK    4  A    between atoms: C_3  and  C_4
REMARK    5  A    between atoms: C_8  and  C_9
REMARK    6  A    between atoms: N_17  and  C_18
REMARK    7  A    between atoms: N_17  and  C_19
REMARK    8  A    between atoms: C_22  and  C_23
REMARK                            x       y       z     vdW  Elec       q    Type
REMARK                         _______ _______ _______ _____ _____    ______ ____
ROOT
ATOM      1  C   UNL     1      43.356   4.186  13.248  0.00  0.00    +0.000 C 
ATOM      2  C   UNL     1      44.178   3.544  12.120  0.00  0.00    +0.000 C 
ENDROOT
BRANCH   2   3
ATOM      3  N   UNL     1      44.149   4.256  10.808  0.00  0.00    +0.000 N 
ATOM      4  C   UNL     1      43.231   5.364  10.529  0.00  0.00    +0.000 C 
BRANCH   3   5
ATOM      5  C   UNL     1      44.883   3.787   9.712  0.00  0.00    +0.000 A 
ATOM      6  C   UNL     1      45.036   2.411   9.468  0.00  0.00    +0.000 A 
ATOM      7  C   UNL     1      45.804   1.934   8.405  0.00  0.00    +0.000 A 
ATOM      8  C   UNL     1      46.412   2.858   7.576  0.00  0.00    +0.000 A 
ATOM      9  N   UNL     1      46.291   4.203   7.733  0.00  0.00    +0.000 NA
ATOM     10  C   UNL     1      45.532   4.614   8.786  0.00  0.00    +0.000 A 
BRANCH   8  11
ATOM     11  C   UNL     1      47.261   2.375   6.441  0.00  0.00    +0.000 C 
ATOM     12  N   UNL     1      47.156   3.088   5.278  0.00  0.00    +0.000 N 
ATOM     13  O   UNL     1      48.008   1.409   6.536  0.00  0.00    +0.000 OA
ATOM     14  H   UNL     1      46.536   3.891   5.241  0.00  0.00    +0.000 HD
ATOM     15  H   UNL     1      47.710   2.821   4.479  0.00  0.00    +0.000 HD
ENDBRANCH   8  11
ENDBRANCH   3   5
ENDBRANCH   2   3
BRANCH   2  16
ATOM     16  C   UNL     1      45.630   3.258  12.611  0.00  0.00    +0.000 C 
BRANCH  16  17
ATOM     17  C   UNL     1      46.417   4.333  13.339  0.00  0.00    +0.000 A 
ATOM     18  C   UNL     1      46.722   5.571  12.780  0.00  0.00    +0.000 A 
ATOM     19  C   UNL     1      47.568   6.466  13.416  0.00  0.00    +0.000 A 
ATOM     20  C   UNL     1      48.079   6.155  14.667  0.00  0.00    +0.000 A 
ATOM     21  C   UNL     1      47.705   4.976  15.338  0.00  0.00    +0.000 A 
ATOM     22  C   UNL     1      46.902   4.060  14.633  0.00  0.00    +0.000 A 
BRANCH  21  23
ATOM     23  C   UNL     1      48.117   4.761  16.742  0.00  0.00    +0.000 A 
ATOM     24  C   UNL     1      48.403   3.487  17.264  0.00  0.00    +0.000 A 
ATOM     25  C   UNL     1      48.763   3.321  18.609  0.00  0.00    +0.000 A 
ATOM     26  C   UNL     1      48.853   4.422  19.453  0.00  0.00    +0.000 A 
ATOM     27  C   UNL     1      48.576   5.683  18.955  0.00  0.00    +0.000 A 
ATOM     28  F   UNL     1      48.659   6.744  19.755  0.00  0.00    +0.000 F 
ATOM     29  C   UNL     1      48.205   5.858  17.624  0.00  0.00    +0.000 A 
ENDBRANCH  21  23
ENDBRANCH  16  17
ENDBRANCH   2  16
TORSDOF 6
ENDMDL
MODEL 3
REMARK VINA RESULT:    -7.963      4.200      7.723
REMARK INTER + INTRA:         -11.760
REMARK INTER:                 -10.686
REMARK INTRA:                  -1.074
REMARK UNBOUND:                -1.003
REMARK  Name = 
REMARK  8 active torsions:
REMARK  status: ('A' for Active; 'I' for Inactive)
REMARK    1  A    between atoms: C_1  and  C_2
REMARK    2  A    between atoms: C_2  and  C_3
REMARK    3  A    between atoms: C_2  and  N_17
REMARK    4  A    between atoms: C_3  and  C_4
REMARK    5  A    between atoms: C_8  and  C_9
REMARK    6  A    between atoms: N_17  and  C_18
REMARK    7  A    between atoms: N_17  and  C_19
REMARK    8  A    between atoms: C_22  and  C_23
REMARK                            x       y       z     vdW  Elec       q    Type
REMARK                         _______ _______ _______ _____ _____    ______ ____
ROOT
ATOM      1  C   UNL     1      43.481   4.264  13.287  0.00  0.00    +0.000 C 
ATOM      2  C   UNL     1      44.221   3.568  12.135  0.00  0.00    +0.000 C 
ENDROOT
BRANCH   2   3
ATOM      3  N   UNL     1      44.175   4.267  10.816  0.00  0.00    +0.000 N 
ATOM      4  C   UNL     1      43.248   5.367  10.535  0.00  0.00    +0.000 C 
BRANCH   3   5
ATOM      5  C   UNL     1      44.903   3.792   9.718  0.00  0.00    +0.000 A 
ATOM      6  C   UNL     1      45.048   2.416   9.476  0.00  0.00    +0.000 A 
ATOM      7  C   UNL     1      45.809   1.933   8.411  0.00  0.00    +0.000 A 
ATOM      8  C   UNL     1      46.418   2.852   7.577  0.00  0.00    +0.000 A 
ATOM      9  N   UNL     1      46.305   4.197   7.732  0.00  0.00    +0.000 NA
ATOM     10  C   UNL     1      45.553   4.615   8.788  0.00  0.00    +0.000 A 
BRANCH   8  11
ATOM     11  C   UNL     1      47.260   2.362   6.440  0.00  0.00    +0.000 C 
ATOM     12  N   UNL     1      47.249   3.144   5.316  0.00  0.00    +0.000 N 
ATOM     13  O   UNL     1      47.923   1.334   6.500  0.00  0.00    +0.000 OA
ATOM     14  H   UNL     1      46.698   3.995   5.308  0.00  0.00    +0.000 HD
ATOM     15  H   UNL     1      47.804   2.875   4.519  0.00  0.00    +0.000 HD
ENDBRANCH   8  11
ENDBRANCH   3   5
ENDBRANCH   2   3
BRANCH   2  16
ATOM     16  C   UNL     1      45.675   3.210  12.570  0.00  0.00    +0.000 C 
BRANCH  16  17
ATOM     17  C   UNL     1      46.522   4.225  13.318  0.00  0.00    +0.000 A 
ATOM     18  C   UNL     1      46.979   4.031  14.619  0.00  0.00    +0.000 A 
ATOM     19  C   UNL     1      47.620   5.041  15.320  0.00  0.00    +0.000 A 
ATOM     20  C   UNL     1      47.871   6.255  14.698  0.00  0.00    +0.000 A 
ATOM     21  C   UNL     1      47.547   6.464  13.345  0.00  0.00    +0.000 A 
ATOM     22  C   UNL     1      46.835   5.444  12.686  0.00  0.00    +0.000 A 
BRANCH  21  23
ATOM     23  C   UNL     1      47.993   7.696  12.660  0.00  0.00    +0.000 A 
ATOM     24  C   UNL     1      49.247   7.805  12.031  0.00  0.00    +0.000 A 
ATOM     25  C   UNL     1      49.646   9.001  11.418  0.00  0.00    +0.000 A 
ATOM     26  C   UNL     1      48.799  10.103  11.410  0.00  0.00    +0.000 A 
ATOM     27  C   UNL     1      47.561  10.013  12.022  0.00  0.00    +0.000 A 
ATOM     28  F   UNL     1      46.743  11.063  12.021  0.00  0.00    +0.000 F 
ATOM     29  C   UNL     1      47.161   8.834  12.646  0.00  0.00    +0.000 A 
ENDBRANCH  21  23
ENDBRANCH  16  17
ENDBRANCH   2  16
TORSDOF 6
ENDMDL
MODEL 4
REMARK VINA RESULT:    -7.925      4.042      8.123
REMARK INTER + INTRA:         -11.708
REMARK INTER:                 -11.403
REMARK INTRA:                  -0.305
REMARK UNBOUND:                -1.003
REMARK  Name = 
REMARK  8 active torsions:
REMARK  status: ('A' for Active; 'I' for Inactive)
REMARK    1  A    between atoms: C_1  and  C_2
REMARK    2  A    between atoms: C_2  and  C_3
REMARK    3  A    between atoms: C_2  and  N_17
REMARK    4  A    between atoms: C_3  and  C_4
REMARK    5  A    between atoms: C_8  and  C_9
REMARK    6  A    between atoms: N_17  and  C_18
REMARK    7  A    between atoms: N_17  and  C_19
REMARK    8  A    between atoms: C_22  and  C_23
REMARK                            x       y       z     vdW  Elec       q    Type
REMARK                         _______ _______ _______ _____ _____    ______ ____
ROOT
ATOM      1  C   UNL     1      43.398   6.099  11.726  0.00  0.00    +0.000 C 
ATOM      2  C   UNL     1      44.543   5.080  11.635  0.00  0.00    +0.000 C 
ENDROOT
BRANCH   2   3
ATOM      3  N   UNL     1      44.245   3.833  10.869  0.00  0.00    +0.000 N 
ATOM      4  C   UNL     1      43.350   2.789  11.374  0.00  0.00    +0.000 C 
BRANCH   3   5
ATOM      5  C   UNL     1      44.944   3.518   9.697  0.00  0.00    +0.000 A 
ATOM      6  C   UNL     1      45.331   2.199   9.409  0.00  0.00    +0.000 A 
ATOM      7  C   UNL     1      46.067   1.882   8.266  0.00  0.00    +0.000 A 
ATOM      8  C   UNL     1      46.404   2.909   7.403  0.00  0.00    +0.000 A 
ATOM      9  N   UNL     1      46.046   4.205   7.602  0.00  0.00    +0.000 NA
ATOM     10  C   UNL     1      45.329   4.459   8.733  0.00  0.00    +0.000 A 
BRANCH   8  11
ATOM     11  C   UNL     1      47.214   2.603   6.181  0.00  0.00    +0.000 C 
ATOM     12  N   UNL     1      48.443   2.049   6.410  0.00  0.00    +0.000 N 
ATOM     13  O   UNL     1      46.811   2.824   5.046  0.00  0.00    +0.000 OA
ATOM     14  H   UNL     1      48.738   1.867   7.364  0.00  0.00    +0.000 HD
ATOM     15  H   UNL     1      49.033   1.808   5.629  0.00  0.00    +0.000 HD
ENDBRANCH   8  11
ENDBRANCH   3   5
ENDBRANCH   2   3
BRANCH   2  16
ATOM     16  C   UNL     1      45.848   5.782  11.148  0.00  0.00    +0.000 C 
BRANCH  16  17
ATOM     17  C   UNL     1      46.850   6.319  12.155  0.00  0.00    +0.000 A 
ATOM     18  C   UNL     1      47.671   7.416  11.909  0.00  0.00    +0.000 A 
ATOM     19  C   UNL     1      48.675   7.783  12.792  0.00  0.00    +0.000 A 
ATOM     20  C   UNL     1      48.833   7.083  13.979  0.00  0.00    +0.000 A 
ATOM     21  C   UNL     1      47.952   6.048  14.341  0.00  0.00    +0.000 A 
ATOM     22  C   UNL     1      46.991   5.657  13.391  0.00  0.00    +0.000 A 
BRANCH  21  23
ATOM     23  C   UNL     1      48.031   5.448  15.690  0.00  0.00    +0.000 A 
ATOM     24  C   UNL     1      48.845   5.974  16.710  0.00  0.00    +0.000 A 
ATOM     25  C   UNL     1      48.915   5.360  17.968  0.00  0.00    +0.000 A 
ATOM     26  C   UNL     1      48.167   4.219  18.235  0.00  0.00    +0.000 A 
ATOM     27  C   UNL     1      47.359   3.689  17.244  0.00  0.00    +0.000 A 
ATOM     28  F   UNL     1      46.639   2.596  17.490  0.00  0.00    +0.000 F 
ATOM     29  C   UNL     1      47.293   4.284  15.987  0.00  0.00    +0.000 A 
ENDBRANCH  21  23
ENDBRANCH  16  17
ENDBRANCH   2  16
TORSDOF 6
ENDMDL
MODEL 5
REMARK VINA RESULT:    -7.785      4.478      7.701
REMARK INTER + INTRA:         -11.519
REMARK INTER:                 -10.433
REMARK INTRA:                  -1.086
REMARK UNBOUND:                -1.003
REMARK  Name = 
REMARK  8 active torsions:
REMARK  status: ('A' for Active; 'I' for Inactive)
REMARK    1  A    between atoms: C_1  and  C_2
REMARK    2  A    between atoms: C_2  and  C_3
REMARK    3  A    between atoms: C_2  and  N_17
REMARK    4  A    between atoms: C_3  and  C_4
REMARK    5  A    between atoms: C_8  and  C_9
REMARK    6  A    between atoms: N_17  and  C_18
REMARK    7  A    between atoms: N_17  and  C_19
REMARK    8  A    between atoms: C_22  and  C_23
REMARK                            x       y       z     vdW  Elec       q    Type
REMARK                         _______ _______ _______ _____ _____    ______ ____
ROOT
ATOM      1  C   UNL     1      43.555   4.210  13.362  0.00  0.00    +0.000 C 
ATOM      2  C   UNL     1      44.651   4.060  12.297  0.00  0.00    +0.000 C 
ENDROOT
BRANCH   2   3
ATOM      3  N   UNL     1      44.290   4.519  10.922  0.00  0.00    +0.000 N 
ATOM      4  C   UNL     1      43.111   5.345  10.649  0.00  0.00    +0.000 C 
BRANCH   3   5
ATOM      5  C   UNL     1      44.968   4.037   9.795  0.00  0.00    +0.000 A 
ATOM      6  C   UNL     1      45.042   2.662   9.518  0.00  0.00    +0.000 A 
ATOM      7  C   UNL     1      45.753   2.171   8.423  0.00  0.00    +0.000 A 
ATOM      8  C   UNL     1      46.386   3.081   7.596  0.00  0.00    +0.000 A 
ATOM      9  N   UNL     1      46.341   4.425   7.786  0.00  0.00    +0.000 NA
ATOM     10  C   UNL     1      45.634   4.852   8.869  0.00  0.00    +0.000 A 
BRANCH   8  11
ATOM     11  C   UNL     1      47.177   2.580   6.427  0.00  0.00    +0.000 C 
ATOM     12  N   UNL     1      48.241   1.777   6.733  0.00  0.00    +0.000 N 
ATOM     13  O   UNL     1      46.897   2.861   5.268  0.00  0.00    +0.000 OA
ATOM     14  H   UNL     1      48.435   1.555   7.703  0.00  0.00    +0.000 HD
ATOM     15  H   UNL     1      48.807   1.398   5.990  0.00  0.00    +0.000 HD
ENDBRANCH   8  11
ENDBRANCH   3   5
ENDBRANCH   2   3
BRANCH   2  16
ATOM     16  C   UNL     1      45.983   4.693  12.805  0.00  0.00    +0.000 C 
BRANCH  16  17
ATOM     17  C   UNL     1      46.225   6.185  12.660  0.00  0.00    +0.000 A 
ATOM     18  C   UNL     1      45.257   7.148  12.928  0.00  0.00    +0.000 A 
ATOM     19  C   UNL     1      45.468   8.488  12.642  0.00  0.00    +0.000 A 
ATOM     20  C   UNL     1      46.691   8.895  12.132  0.00  0.00    +0.000 A 
ATOM     21  C   UNL     1      47.752   7.986  11.960  0.00  0.00    +0.000 A 
ATOM     22  C   UNL     1      47.480   6.626  12.195  0.00  0.00    +0.000 A 
BRANCH  21  23
ATOM     23  C   UNL     1      49.097   8.480  11.593  0.00  0.00    +0.000 A 
ATOM     24  C   UNL     1      50.199   7.624  11.420  0.00  0.00    +0.000 A 
ATOM     25  C   UNL     1      51.466   8.133  11.101  0.00  0.00    +0.000 A 
ATOM     26  C   UNL     1      51.653   9.501  10.937  0.00  0.00    +0.000 A 
ATOM     27  C   UNL     1      50.578  10.358  11.103  0.00  0.00    +0.000 A 
ATOM     28  F   UNL     1      50.746  11.669  10.948  0.00  0.00    +0.000 F 
ATOM     29  C   UNL     1      49.319   9.863  11.433  0.00  0.00    +0.000 A 
ENDBRANCH  21  23
ENDBRANCH  16  17
ENDBRANCH   2  16
TORSDOF 6
ENDMDL
MODEL 6
REMARK VINA RESULT:    -7.705      4.475      7.839
REMARK INTER + INTRA:         -11.411
REMARK INTER:                 -10.766
REMARK INTRA:                  -0.646
REMARK UNBOUND:                -1.003
REMARK  Name = 
REMARK  8 active torsions:
REMARK  status: ('A' for Active; 'I' for Inactive)
REMARK    1  A    between atoms: C_1  and  C_2
REMARK    2  A    between atoms: C_2  and  C_3
REMARK    3  A    between atoms: C_2  and  N_17
REMARK    4  A    between atoms: C_3  and  C_4
REMARK    5  A    between atoms: C_8  and  C_9
REMARK    6  A    between atoms: N_17  and  C_18
REMARK    7  A    between atoms: N_17  and  C_19
REMARK    8  A    between atoms: C_22  and  C_23
REMARK                            x       y       z     vdW  Elec       q    Type
REMARK                         _______ _______ _______ _____ _____    ______ ____
ROOT
ATOM      1  C   UNL     1      43.332   4.153  13.252  0.00  0.00    +0.000 C 
ATOM      2  C   UNL     1      44.342   3.681  12.196  0.00  0.00    +0.000 C 
ENDROOT
BRANCH   2   3
ATOM      3  N   UNL     1      44.184   4.273  10.834  0.00  0.00    +0.000 N 
ATOM      4  C   UNL     1      43.163   5.277  10.523  0.00  0.00    +0.000 C 
BRANCH   3   5
ATOM      5  C   UNL     1      44.896   3.772   9.738  0.00  0.00    +0.000 A 
ATOM      6  C   UNL     1      45.053   2.391   9.537  0.00  0.00    +0.000 A 
ATOM      7  C   UNL     1      45.799   1.883   8.472  0.00  0.00    +0.000 A 
ATOM      8  C   UNL     1      46.383   2.782   7.600  0.00  0.00    +0.000 A 
ATOM      9  N   UNL     1      46.257   4.130   7.715  0.00  0.00    +0.000 NA
ATOM     10  C   UNL     1      45.519   4.573   8.771  0.00  0.00    +0.000 A 
BRANCH   8  11
ATOM     11  C   UNL     1      47.209   2.266   6.462  0.00  0.00    +0.000 C 
ATOM     12  N   UNL     1      47.224   3.049   5.340  0.00  0.00    +0.000 N 
ATOM     13  O   UNL     1      47.838   1.218   6.522  0.00  0.00    +0.000 OA
ATOM     14  H   UNL     1      46.701   3.918   5.332  0.00  0.00    +0.000 HD
ATOM     15  H   UNL     1      47.770   2.763   4.542  0.00  0.00    +0.000 HD
ENDBRANCH   8  11
ENDBRANCH   3   5
ENDBRANCH   2   3
BRANCH   2  16
ATOM     16  C   UNL     1      45.796   3.823  12.743  0.00  0.00    +0.000 C 
BRANCH  16  17
ATOM     17  C   UNL     1      46.396   5.198  12.973  0.00  0.00    +0.000 A 
ATOM     18  C   UNL     1      47.556   5.414  13.712  0.00  0.00    +0.000 A 
ATOM     19  C   UNL     1      47.988   6.694  14.025  0.00  0.00    +0.000 A 
ATOM     20  C   UNL     1      47.289   7.791  13.544  0.00  0.00    +0.000 A 
ATOM     21  C   UNL     1      46.184   7.635  12.687  0.00  0.00    +0.000 A 
ATOM     22  C   UNL     1      45.732   6.324  12.448  0.00  0.00    +0.000 A 
BRANCH  21  23
ATOM     23  C   UNL     1      45.576   8.819  12.043  0.00  0.00    +0.000 A 
ATOM     24  C   UNL     1      44.394   8.748  11.283  0.00  0.00    +0.000 A 
ATOM     25  C   UNL     1      43.865   9.889  10.662  0.00  0.00    +0.000 A 
ATOM     26  C   UNL     1      44.496  11.120  10.799  0.00  0.00    +0.000 A 
ATOM     27  C   UNL     1      45.659  11.208  11.545  0.00  0.00    +0.000 A 
ATOM     28  F   UNL     1      46.271  12.382  11.681  0.00  0.00    +0.000 F 
ATOM     29  C   UNL     1      46.200  10.079  12.153  0.00  0.00    +0.000 A 
ENDBRANCH  21  23
ENDBRANCH  16  17
ENDBRANCH   2  16
TORSDOF 6
ENDMDL
MODEL 7
REMARK VINA RESULT:    -7.577      3.001      3.869
REMARK INTER + INTRA:         -11.238
REMARK INTER:                 -10.450
REMARK INTRA:                  -0.788
REMARK UNBOUND:                -1.003
REMARK  Name = 
REMARK  8 active torsions:
REMARK  status: ('A' for Active; 'I' for Inactive)
REMARK    1  A    between atoms: C_1  and  C_2
REMARK    2  A    between atoms: C_2  and  C_3
REMARK    3  A    between atoms: C_2  and  N_17
REMARK    4  A    between atoms: C_3  and  C_4
REMARK    5  A    between atoms: C_8  and  C_9
REMARK    6  A    between atoms: N_17  and  C_18
REMARK    7  A    between atoms: N_17  and  C_19
REMARK    8  A    between atoms: C_22  and  C_23
REMARK                            x       y       z     vdW  Elec       q    Type
REMARK                         _______ _______ _______ _____ _____    ______ ____
ROOT
ATOM      1  C   UNL     1      46.369   5.864  13.106  0.00  0.00    +0.000 C 
ATOM      2  C   UNL     1      45.498   7.095  12.814  0.00  0.00    +0.000 C 
ENDROOT
BRANCH   2   3
ATOM      3  N   UNL     1      46.231   8.386  12.650  0.00  0.00    +0.000 N 
ATOM      4  C   UNL     1      45.584   9.606  12.160  0.00  0.00    +0.000 C 
BRANCH   3   5
ATOM      5  C   UNL     1      47.622   8.454  12.796  0.00  0.00    +0.000 A 
ATOM      6  C   UNL     1      48.485   8.124  11.738  0.00  0.00    +0.000 A 
ATOM      7  C   UNL     1      49.873   8.145  11.887  0.00  0.00    +0.000 A 
ATOM      8  C   UNL     1      50.389   8.514  13.116  0.00  0.00    +0.000 A 
ATOM      9  N   UNL     1      49.620   8.869  14.178  0.00  0.00    +0.000 NA
ATOM     10  C   UNL     1      48.273   8.830  13.979  0.00  0.00    +0.000 A 
BRANCH   8  11
ATOM     11  C   UNL     1      51.874   8.523  13.312  0.00  0.00    +0.000 C 
ATOM     12  N   UNL     1      52.613   8.062  12.257  0.00  0.00    +0.000 N 
ATOM     13  O   UNL     1      52.404   8.918  14.343  0.00  0.00    +0.000 OA
ATOM     14  H   UNL     1      52.139   7.755  11.414  0.00  0.00    +0.000 HD
ATOM     15  H   UNL     1      53.618   8.052  12.322  0.00  0.00    +0.000 HD
ENDBRANCH   8  11
ENDBRANCH   3   5
ENDBRANCH   2   3
BRANCH   2  16
ATOM     16  C   UNL     1      44.537   6.800  11.621  0.00  0.00    +0.000 C 
BRANCH  16  17
ATOM     17  C   UNL     1      44.290   5.371  11.173  0.00  0.00    +0.000 A 
ATOM     18  C   UNL     1      43.337   4.539  11.755  0.00  0.00    +0.000 A 
ATOM     19  C   UNL     1      43.243   3.197  11.419  0.00  0.00    +0.000 A 
ATOM     20  C   UNL     1      44.075   2.677  10.439  0.00  0.00    +0.000 A 
ATOM     21  C   UNL     1      44.969   3.497   9.726  0.00  0.00    +0.000 A 
ATOM     22  C   UNL     1      45.086   4.836  10.141  0.00  0.00    +0.000 A 
BRANCH  21  23
ATOM     23  C   UNL     1      45.705   2.954   8.564  0.00  0.00    +0.000 A 
ATOM     24  C   UNL     1      46.115   3.754   7.483  0.00  0.00    +0.000 A 
ATOM     25  C   UNL     1      46.786   3.196   6.385  0.00  0.00    +0.000 A 
ATOM     26  C   UNL     1      47.068   1.836   6.351  0.00  0.00    +0.000 A 
ATOM     27  C   UNL     1      46.672   1.033   7.408  0.00  0.00    +0.000 A 
ATOM     28  F   UNL     1      46.938  -0.271   7.385  0.00  0.00    +0.000 F 
ATOM     29  C   UNL     1      45.994   1.575   8.497  0.00  0.00    +0.000 A 
ENDBRANCH  21  23
ENDBRANCH  16  17
ENDBRANCH   2  16
TORSDOF 6
ENDMDL
MODEL 8
REMARK VINA RESULT:    -7.470      1.920      3.137
REMARK INTER + INTRA:         -11.094
REMARK INTER:                  -9.600
REMARK INTRA:                  -1.494
REMARK UNBOUND:                -1.003
REMARK  Name = 
REMARK  8 active torsions:
REMARK  status: ('A' for Active; 'I' for Inactive)
REMARK    1  A    between atoms: C_1  and  C_2
REMARK    2  A    between atoms: C_2  and  C_3
REMARK    3  A    between atoms: C_2  and  N_17
REMARK    4  A    between atoms: C_3  and  C_4
REMARK    5  A    between atoms: C_8  and  C_9
REMARK    6  A    between atoms: N_17  and  C_18
REMARK    7  A    between atoms: N_17  and  C_19
REMARK    8  A    between atoms: C_22  and  C_23
REMARK                            x       y       z     vdW  Elec       q    Type
REMARK                         _______ _______ _______ _____ _____    ______ ____
ROOT
ATOM      1  C   UNL     1      51.449   8.381  13.431  0.00  0.00    +0.000 C 
ATOM      2  C   UNL     1      50.022   7.815  13.459  0.00  0.00    +0.000 C 
ENDROOT
BRANCH   2   3
ATOM      3  N   UNL     1      49.298   7.941  14.759  0.00  0.00    +0.000 N 
ATOM      4  C   UNL     1      49.116   9.225  15.442  0.00  0.00    +0.000 C 
BRANCH   3   5
ATOM      5  C   UNL     1      48.901   6.808  15.480  0.00  0.00    +0.000 A 
ATOM      6  C   UNL     1      47.950   5.910  14.967  0.00  0.00    +0.000 A 
ATOM      7  C   UNL     1      47.516   4.803  15.698  0.00  0.00    +0.000 A 
ATOM      8  C   UNL     1      48.056   4.600  16.954  0.00  0.00    +0.000 A 
ATOM      9  N   UNL     1      48.996   5.410  17.507  0.00  0.00    +0.000 NA
ATOM     10  C   UNL     1      49.384   6.476  16.753  0.00  0.00    +0.000 A 
BRANCH   8  11
ATOM     11  C   UNL     1      47.591   3.434  17.770  0.00  0.00    +0.000 C 
ATOM     12  N   UNL     1      48.345   3.147  18.875  0.00  0.00    +0.000 N 
ATOM     13  O   UNL     1      46.600   2.775  17.481  0.00  0.00    +0.000 OA
ATOM     14  H   UNL     1      49.152   3.723  19.090  0.00  0.00    +0.000 HD
ATOM     15  H   UNL     1      48.079   2.381  19.473  0.00  0.00    +0.000 HD
ENDBRANCH   8  11
ENDBRANCH   3   5
ENDBRANCH   2   3
BRANCH   2  16
ATOM     16  C   UNL     1      49.198   8.380  12.261  0.00  0.00    +0.000 C 
BRANCH  16  17
ATOM     17  C   UNL     1      47.707   8.107  12.160  0.00  0.00    +0.000 A 
ATOM     18  C   UNL     1      46.735   8.971  12.657  0.00  0.00    +0.000 A 
ATOM     19  C   UNL     1      45.394   8.617  12.680  0.00  0.00    +0.000 A 
ATOM     20  C   UNL     1      44.997   7.402  12.144  0.00  0.00    +0.000 A 
ATOM     21  C   UNL     1      45.917   6.544  11.514  0.00  0.00    +0.000 A 
ATOM     22  C   UNL     1      47.277   6.902  11.571  0.00  0.00    +0.000 A 
BRANCH  21  23
ATOM     23  C   UNL     1      45.437   5.348  10.789  0.00  0.00    +0.000 A 
ATOM     24  C   UNL     1      44.734   4.307  11.423  0.00  0.00    +0.000 A 
ATOM     25  C   UNL     1      44.321   3.174  10.707  0.00  0.00    +0.000 A 
ATOM     26  C   UNL     1      44.589   3.065   9.348  0.00  0.00    +0.000 A 
ATOM     27  C   UNL     1      45.278   4.081   8.708  0.00  0.00    +0.000 A 
ATOM     28  F   UNL     1      45.541   3.986   7.407  0.00  0.00    +0.000 F 
ATOM     29  C   UNL     1      45.705   5.204   9.412  0.00  0.00    +0.000 A 
ENDBRANCH  21  23
ENDBRANCH  16  17
ENDBRANCH   2  16
TORSDOF 6
ENDMDL
MODEL 9
REMARK VINA RESULT:    -7.012      2.019      2.323
REMARK INTER + INTRA:         -10.474
REMARK INTER:                  -9.644
REMARK INTRA:                  -0.830
REMARK UNBOUND:                -1.003
REMARK  Name = 
REMARK  8 active torsions:
REMARK  status: ('A' for Active; 'I' for Inactive)
REMARK    1  A    between atoms: C_1  and  C_2
REMARK    2  A    between atoms: C_2  and  C_3
REMARK    3  A    between atoms: C_2  and  N_17
REMARK    4  A    between atoms: C_3  and  C_4
REMARK    5  A    between atoms: C_8  and  C_9
REMARK    6  A    between atoms: N_17  and  C_18
REMARK    7  A    between atoms: N_17  and  C_19
REMARK    8  A    between atoms: C_22  and  C_23
REMARK                            x       y       z     vdW  Elec       q    Type
REMARK                         _______ _______ _______ _____ _____    ______ ____
ROOT
ATOM      1  C   UNL     1      45.139   9.560  12.369  0.00  0.00    +0.000 C 
ATOM      2  C   UNL     1      46.132   8.402  12.183  0.00  0.00    +0.000 C 
ENDROOT
BRANCH   2   3
ATOM      3  N   UNL     1      47.544   8.687  12.577  0.00  0.00    +0.000 N 
ATOM      4  C   UNL     1      48.498   9.344  11.679  0.00  0.00    +0.000 C 
BRANCH   3   5
ATOM      5  C   UNL     1      48.080   8.184  13.769  0.00  0.00    +0.000 A 
ATOM      6  C   UNL     1      48.059   8.936  14.955  0.00  0.00    +0.000 A 
ATOM      7  C   UNL     1      48.630   8.461  16.137  0.00  0.00    +0.000 A 
ATOM      8  C   UNL     1      49.219   7.210  16.118  0.00  0.00    +0.000 A 
ATOM      9  N   UNL     1      49.257   6.415  15.017  0.00  0.00    +0.000 NA
ATOM     10  C   UNL     1      48.686   6.926  13.891  0.00  0.00    +0.000 A 
BRANCH   8  11
ATOM     11  C   UNL     1      49.861   6.685  17.364  0.00  0.00    +0.000 C 
ATOM     12  N   UNL     1      49.326   5.529  17.863  0.00  0.00    +0.000 N 
ATOM     13  O   UNL     1      50.806   7.242  17.909  0.00  0.00    +0.000 OA
ATOM     14  H   UNL     1      48.552   5.089  17.378  0.00  0.00    +0.000 HD
ATOM     15  H   UNL     1      49.720   5.117  18.694  0.00  0.00    +0.000 HD
ENDBRANCH   8  11
ENDBRANCH   3   5
ENDBRANCH   2   3
BRANCH   2  16
ATOM     16  C   UNL     1      45.576   7.107  12.851  0.00  0.00    +0.000 C 
BRANCH  16  17
ATOM     17  C   UNL     1      44.790   6.100  12.030  0.00  0.00    +0.000 A 
ATOM     18  C   UNL     1      43.436   5.842  12.227  0.00  0.00    +0.000 A 
ATOM     19  C   UNL     1      42.789   4.812  11.561  0.00  0.00    +0.000 A 
ATOM     20  C   UNL     1      43.485   4.054  10.631  0.00  0.00    +0.000 A 
ATOM     21  C   UNL     1      44.820   4.351  10.297  0.00  0.00    +0.000 A 
ATOM     22  C   UNL     1      45.463   5.356  11.042  0.00  0.00    +0.000 A 
BRANCH  21  23
ATOM     23  C   UNL     1      45.474   3.648   9.172  0.00  0.00    +0.000 A 
ATOM     24  C   UNL     1      46.066   4.328   8.092  0.00  0.00    +0.000 A 
ATOM     25  C   UNL     1      46.651   3.625   7.029  0.00  0.00    +0.000 A 
ATOM     26  C   UNL     1      46.666   2.235   7.030  0.00  0.00    +0.000 A 
ATOM     27  C   UNL     1      46.088   1.550   8.085  0.00  0.00    +0.000 A 
ATOM     28  F   UNL     1      46.097   0.219   8.095  0.00  0.00    +0.000 F 
ATOM     29  C   UNL     1      45.493   2.238   9.139  0.00  0.00    +0.000 A 
ENDBRANCH  21  23
ENDBRANCH  16  17
ENDBRANCH   2  16
TORSDOF 6
ENDMDL
