MODEL 1
REMARK VINA RESULT:    -7.293      0.000      0.000
REMARK INTER + INTRA:         -10.507
REMARK INTER:                  -9.638
REMARK INTRA:                  -0.869
REMARK UNBOUND:                -0.869
REMARK  Name = 
REMARK  7 active torsions:
REMARK  status: ('A' for Active; 'I' for Inactive)
REMARK    1  A    between atoms: C_1  and  C_2
REMARK    2  A    between atoms: C_7  and  C_8
REMARK    3  A    between atoms: C_8  and  C_9
REMARK    4  A    between atoms: C_9  and  N_10
REMARK    5  A    between atoms: N_10  and  C_11
REMARK    6  A    between atoms: C_15  and  C_16
REMARK    7  A    between atoms: C_16  and  N_17
REMARK                            x       y       z     vdW  Elec       q    Type
REMARK                         _______ _______ _______ _____ _____    ______ ____
ROOT
ATOM      1  N   UNL     1      44.394   2.486  10.693  0.00  0.00    +0.000 N 
ATOM      2  H   UNL     1      44.106   1.509  10.645  0.00  0.00    +0.000 HD
ENDROOT
BRANCH   1   3
ATOM      3  C   UNL     1      45.074   2.858   9.510  0.00  0.00    +0.000 A 
ATOM      4  C   UNL     1      45.229   4.196   9.125  0.00  0.00    +0.000 A 
ATOM      5  C   UNL     1      45.967   4.549   7.995  0.00  0.00    +0.000 A 
ATOM      6  C   UNL     1      46.595   3.570   7.237  0.00  0.00    +0.000 A 
ATOM      7  C   UNL     1      46.495   2.220   7.597  0.00  0.00    +0.000 A 
ATOM      8  C   UNL     1      45.755   1.883   8.753  0.00  0.00    +0.000 A 
BRANCH   7   9
ATOM      9  C   UNL     1      47.246   1.153   6.832  0.00  0.00    +0.000 C 
BRANCH   9  10
ATOM     10  N   UNL     1      48.361   1.677   6.042  0.00  0.00    +0.000 NA
ATOM     11  H   UNL     1      48.944   0.897   5.741  0.00  0.00    +0.000 HD
ATOM     12  H   UNL     1      48.945   2.266   6.631  0.00  0.00    +0.000 HD
ENDBRANCH   9  10
ENDBRANCH   7   9
ENDBRANCH   1   3
BRANCH   1  13
ATOM     13  C   UNL     1      43.283   3.365  11.105  0.00  0.00    +0.000 C 
BRANCH  13  14
ATOM     14  C   UNL     1      43.425   3.847  12.551  0.00  0.00    +0.000 C 
BRANCH  14  21
ATOM     15  C   UNL     1      44.148   6.689  11.679  0.00  0.00    +0.000 C 
ATOM     16  C   UNL     1      45.113   5.776  12.378  0.00  0.00    +0.000 A 
ATOM     17  C   UNL     1      46.401   6.248  12.675  0.00  0.00    +0.000 A 
ATOM     18  C   UNL     1      47.311   5.431  13.333  0.00  0.00    +0.000 A 
ATOM     19  C   UNL     1      46.905   4.161  13.685  0.00  0.00    +0.000 A 
ATOM     20  N   UNL     1      45.676   3.668  13.419  0.00  0.00    +0.000 NA
ATOM     21  C   UNL     1      44.790   4.466  12.765  0.00  0.00    +0.000 A 
ENDBRANCH  14  21
ENDBRANCH  13  14
ENDBRANCH   1  13
TORSDOF 6
ENDMDL
MODEL 2
REMARK VINA RESULT:    -7.202      0.889      1.717
REMARK INTER + INTRA:         -10.387
REMARK INTER:                  -9.684
REMARK INTRA:                  -0.702
REMARK UNBOUND:                -0.869
REMARK  Name = 
REMARK  7 active torsions:
REMARK  status: ('A' for Active; 'I' for Inactive)
REMARK    1  A    between atoms: C_1  and  C_2
REMARK    2  A    between atoms: C_7  and  C_8
REMARK    3  A    between atoms: C_8  and  C_9
REMARK    4  A    between atoms: C_9  and  N_10
REMARK    5  A    between atoms: N_10  and  C_11
REMARK    6  A    between atoms: C_15  and  C_16
REMARK    7  A    between atoms: C_16  and  N_17
REMARK                            x       y       z     vdW  Elec       q    Type
REMARK                         _______ _______ _______ _____ _____    ______ ____
ROOT
ATOM      1  N   UNL     1      44.157   2.379  10.604  0.00  0.00    +0.000 N 
ATOM      2  H   UNL     1      43.578   1.576  10.359  0.00  0.00    +0.000 HD
ENDROOT
BRANCH   1   3
ATOM      3  C   UNL     1      44.910   2.804   9.485  0.00  0.00    +0.000 A 
ATOM      4  C   UNL     1      45.074   4.157   9.164  0.00  0.00    +0.000 A 
ATOM      5  C   UNL     1      45.881   4.562   8.101  0.00  0.00    +0.000 A 
ATOM      6  C   UNL     1      46.570   3.620   7.349  0.00  0.00    +0.000 A 
ATOM      7  C   UNL     1      46.464   2.256   7.649  0.00  0.00    +0.000 A 
ATOM      8  C   UNL     1      45.652   1.867   8.738  0.00  0.00    +0.000 A 
BRANCH   7   9
ATOM      9  C   UNL     1      47.277   1.228   6.895  0.00  0.00    +0.000 C 
BRANCH   9  10
ATOM     10  N   UNL     1      48.408   1.800   6.163  0.00  0.00    +0.000 NA
ATOM     11  H   UNL     1      49.069   2.188   6.834  0.00  0.00    +0.000 HD
ATOM     12  H   UNL     1      48.082   2.576   5.592  0.00  0.00    +0.000 HD
ENDBRANCH   9  10
ENDBRANCH   7   9
ENDBRANCH   1   3
BRANCH   1  13
ATOM     13  C   UNL     1      43.379   3.424  11.297  0.00  0.00    +0.000 C 
BRANCH  13  14
ATOM     14  C   UNL     1      43.914   3.715  12.701  0.00  0.00    +0.000 C 
BRANCH  14  21
ATOM     15  C   UNL     1      46.827   3.649  13.631  0.00  0.00    +0.000 C 
ATOM     16  C   UNL     1      46.168   4.884  13.087  0.00  0.00    +0.000 A 
ATOM     17  C   UNL     1      46.923   6.060  12.970  0.00  0.00    +0.000 A 
ATOM     18  C   UNL     1      46.345   7.215  12.457  0.00  0.00    +0.000 A 
ATOM     19  C   UNL     1      45.024   7.158  12.066  0.00  0.00    +0.000 A 
ATOM     20  N   UNL     1      44.262   6.047  12.162  0.00  0.00    +0.000 NA
ATOM     21  C   UNL     1      44.827   4.921  12.675  0.00  0.00    +0.000 A 
ENDBRANCH  14  21
ENDBRANCH  13  14
ENDBRANCH   1  13
TORSDOF 6
ENDMDL
MODEL 3
REMARK VINA RESULT:    -6.752      1.194      1.751
REMARK INTER + INTRA:          -9.791
REMARK INTER:                  -9.033
REMARK INTRA:                  -0.758
REMARK UNBOUND:                -0.869
REMARK  Name = 
REMARK  7 active torsions:
REMARK  status: ('A' for Active; 'I' for Inactive)
REMARK    1  A    between atoms: C_1  and  C_2
REMARK    2  A    between atoms: C_7  and  C_8
REMARK    3  A    between atoms: C_8  and  C_9
REMARK    4  A    between atoms: C_9  and  N_10
REMARK    5  A    between atoms: N_10  and  C_11
REMARK    6  A    between atoms: C_15  and  C_16
REMARK    7  A    between atoms: C_16  and  N_17
REMARK                            x       y       z     vdW  Elec       q    Type
REMARK                         _______ _______ _______ _____ _____    ______ ____
ROOT
ATOM      1  N   UNL     1      44.748   5.026   9.377  0.00  0.00    +0.000 N 
ATOM      2  H   UNL     1      45.458   5.626   9.796  0.00  0.00    +0.000 HD
ENDROOT
BRANCH   1   3
ATOM      3  C   UNL     1      45.339   3.852   8.855  0.00  0.00    +0.000 A 
ATOM      4  C   UNL     1      45.011   2.575   9.328  0.00  0.00    +0.000 A 
ATOM      5  C   UNL     1      45.547   1.424   8.752  0.00  0.00    +0.000 A 
ATOM      6  C   UNL     1      46.405   1.522   7.665  0.00  0.00    +0.000 A 
ATOM      7  C   UNL     1      46.741   2.774   7.135  0.00  0.00    +0.000 A 
ATOM      8  C   UNL     1      46.176   3.928   7.724  0.00  0.00    +0.000 A 
BRANCH   7   9
ATOM      9  C   UNL     1      47.603   2.890   5.898  0.00  0.00    +0.000 C 
BRANCH   9  10
ATOM     10  N   UNL     1      48.534   1.773   5.728  0.00  0.00    +0.000 NA
ATOM     11  H   UNL     1      49.457   2.066   6.042  0.00  0.00    +0.000 HD
ATOM     12  H   UNL     1      48.618   1.553   4.738  0.00  0.00    +0.000 HD
ENDBRANCH   9  10
ENDBRANCH   7   9
ENDBRANCH   1   3
BRANCH   1  13
ATOM     13  C   UNL     1      43.598   4.826  10.280  0.00  0.00    +0.000 C 
BRANCH  13  14
ATOM     14  C   UNL     1      43.629   5.773  11.483  0.00  0.00    +0.000 C 
BRANCH  14  21
ATOM     15  C   UNL     1      45.383   8.113  12.380  0.00  0.00    +0.000 C 
ATOM     16  C   UNL     1      45.716   6.679  12.675  0.00  0.00    +0.000 A 
ATOM     17  C   UNL     1      46.869   6.389  13.420  0.00  0.00    +0.000 A 
ATOM     18  C   UNL     1      47.196   5.073  13.720  0.00  0.00    +0.000 A 
ATOM     19  C   UNL     1      46.352   4.078  13.272  0.00  0.00    +0.000 A 
ATOM     20  N   UNL     1      45.233   4.314  12.553  0.00  0.00    +0.000 NA
ATOM     21  C   UNL     1      44.922   5.602  12.250  0.00  0.00    +0.000 A 
ENDBRANCH  14  21
ENDBRANCH  13  14
ENDBRANCH   1  13
TORSDOF 6
ENDMDL
MODEL 4
REMARK VINA RESULT:    -6.562      1.456      2.324
REMARK INTER + INTRA:          -9.541
REMARK INTER:                  -8.854
REMARK INTRA:                  -0.687
REMARK UNBOUND:                -0.869
REMARK  Name = 
REMARK  7 active torsions:
REMARK  status: ('A' for Active; 'I' for Inactive)
REMARK    1  A    between atoms: C_1  and  C_2
REMARK    2  A    between atoms: C_7  and  C_8
REMARK    3  A    between atoms: C_8  and  C_9
REMARK    4  A    between atoms: C_9  and  N_10
REMARK    5  A    between atoms: N_10  and  C_11
REMARK    6  A    between atoms: C_15  and  C_16
REMARK    7  A    between atoms: C_16  and  N_17
REMARK                            x       y       z     vdW  Elec       q    Type
REMARK                         _______ _______ _______ _____ _____    ______ ____
ROOT
ATOM      1  N   UNL     1      44.807   5.005   9.550  0.00  0.00    +0.000 N 
ATOM      2  H   UNL     1      45.546   5.505  10.044  0.00  0.00    +0.000 HD
ENDROOT
BRANCH   1   3
ATOM      3  C   UNL     1      45.318   3.823   8.963  0.00  0.00    +0.000 A 
ATOM      4  C   UNL     1      44.968   2.548   9.423  0.00  0.00    +0.000 A 
ATOM      5  C   UNL     1      45.422   1.393   8.786  0.00  0.00    +0.000 A 
ATOM      6  C   UNL     1      46.216   1.488   7.651  0.00  0.00    +0.000 A 
ATOM      7  C   UNL     1      46.570   2.741   7.135  0.00  0.00    +0.000 A 
ATOM      8  C   UNL     1      46.089   3.899   7.786  0.00  0.00    +0.000 A 
BRANCH   7   9
ATOM      9  C   UNL     1      47.361   2.858   5.851  0.00  0.00    +0.000 C 
BRANCH   9  10
ATOM     10  N   UNL     1      48.441   1.876   5.739  0.00  0.00    +0.000 NA
ATOM     11  H   UNL     1      48.465   1.524   4.783  0.00  0.00    +0.000 HD
ATOM     12  H   UNL     1      48.236   1.080   6.338  0.00  0.00    +0.000 HD
ENDBRANCH   9  10
ENDBRANCH   7   9
ENDBRANCH   1   3
BRANCH   1  13
ATOM     13  C   UNL     1      43.602   4.844  10.386  0.00  0.00    +0.000 C 
BRANCH  13  14
ATOM     14  C   UNL     1      43.939   4.653  11.866  0.00  0.00    +0.000 C 
BRANCH  14  21
ATOM     15  C   UNL     1      46.498   3.782  13.298  0.00  0.00    +0.000 C 
ATOM     16  C   UNL     1      46.213   5.208  12.925  0.00  0.00    +0.000 A 
ATOM     17  C   UNL     1      47.171   6.191  13.216  0.00  0.00    +0.000 A 
ATOM     18  C   UNL     1      46.941   7.516  12.871  0.00  0.00    +0.000 A 
ATOM     19  C   UNL     1      45.758   7.823  12.232  0.00  0.00    +0.000 A 
ATOM     20  N   UNL     1      44.810   6.909  11.933  0.00  0.00    +0.000 NA
ATOM     21  C   UNL     1      45.032   5.613  12.283  0.00  0.00    +0.000 A 
ENDBRANCH  14  21
ENDBRANCH  13  14
ENDBRANCH   1  13
TORSDOF 6
ENDMDL
MODEL 5
REMARK VINA RESULT:    -6.468      1.539      6.042
REMARK INTER + INTRA:          -9.416
REMARK INTER:                  -8.893
REMARK INTRA:                  -0.524
REMARK UNBOUND:                -0.869
REMARK  Name = 
REMARK  7 active torsions:
REMARK  status: ('A' for Active; 'I' for Inactive)
REMARK    1  A    between atoms: C_1  and  C_2
REMARK    2  A    between atoms: C_7  and  C_8
REMARK    3  A    between atoms: C_8  and  C_9
REMARK    4  A    between atoms: C_9  and  N_10
REMARK    5  A    between atoms: N_10  and  C_11
REMARK    6  A    between atoms: C_15  and  C_16
REMARK    7  A    between atoms: C_16  and  N_17
REMARK                            x       y       z     vdW  Elec       q    Type
REMARK                         _______ _______ _______ _____ _____    ______ ____
ROOT
ATOM      1  N   UNL     1      44.688   2.703  11.390  0.00  0.00    +0.000 N 
ATOM      2  H   UNL     1      45.219   1.841  11.515  0.00  0.00    +0.000 HD
ENDROOT
BRANCH   1   3
ATOM      3  C   UNL     1      45.385   3.797  11.954  0.00  0.00    +0.000 A 
ATOM      4  C   UNL     1      45.358   5.075  11.382  0.00  0.00    +0.000 A 
ATOM      5  C   UNL     1      45.989   6.160  11.991  0.00  0.00    +0.000 A 
ATOM      6  C   UNL     1      46.638   5.997  13.208  0.00  0.00    +0.000 A 
ATOM      7  C   UNL     1      46.667   4.745  13.836  0.00  0.00    +0.000 A 
ATOM      8  C   UNL     1      46.010   3.662  13.210  0.00  0.00    +0.000 A 
BRANCH   7   9
ATOM      9  C   UNL     1      47.293   4.574  15.201  0.00  0.00    +0.000 C 
BRANCH   9  10
ATOM     10  N   UNL     1      47.727   3.203  15.478  0.00  0.00    +0.000 NA
ATOM     11  H   UNL     1      47.115   2.804  16.187  0.00  0.00    +0.000 HD
ATOM     12  H   UNL     1      48.663   3.220  15.876  0.00  0.00    +0.000 HD
ENDBRANCH   9  10
ENDBRANCH   7   9
ENDBRANCH   1   3
BRANCH   1  13
ATOM     13  C   UNL     1      44.236   2.871   9.996  0.00  0.00    +0.000 C 
BRANCH  13  14
ATOM     14  C   UNL     1      44.681   1.716   9.095  0.00  0.00    +0.000 C 
BRANCH  14  21
ATOM     15  C   UNL     1      46.654  -0.235   7.806  0.00  0.00    +0.000 C 
ATOM     16  C   UNL     1      46.728   1.252   7.613  0.00  0.00    +0.000 A 
ATOM     17  C   UNL     1      47.727   1.781   6.783  0.00  0.00    +0.000 A 
ATOM     18  C   UNL     1      47.813   3.151   6.573  0.00  0.00    +0.000 A 
ATOM     19  C   UNL     1      46.885   3.959   7.197  0.00  0.00    +0.000 A 
ATOM     20  N   UNL     1      45.908   3.492   8.004  0.00  0.00    +0.000 NA
ATOM     21  C   UNL     1      45.834   2.151   8.216  0.00  0.00    +0.000 A 
ENDBRANCH  14  21
ENDBRANCH  13  14
ENDBRANCH   1  13
TORSDOF 6
ENDMDL
MODEL 6
REMARK VINA RESULT:    -6.080      1.716      6.198
REMARK INTER + INTRA:          -8.904
REMARK INTER:                  -8.447
REMARK INTRA:                  -0.457
REMARK UNBOUND:                -0.869
REMARK  Name = 
REMARK  7 active torsions:
REMARK  status: ('A' for Active; 'I' for Inactive)
REMARK    1  A    between atoms: C_1  and  C_2
REMARK    2  A    between atoms: C_7  and  C_8
REMARK    3  A    between atoms: C_8  and  C_9
REMARK    4  A    between atoms: C_9  and  N_10
REMARK    5  A    between atoms: N_10  and  C_11
REMARK    6  A    between atoms: C_15  and  C_16
REMARK    7  A    between atoms: C_16  and  N_17
REMARK                            x       y       z     vdW  Elec       q    Type
REMARK                         _______ _______ _______ _____ _____    ______ ____
ROOT
ATOM      1  N   UNL     1      44.168   2.937  11.215  0.00  0.00    +0.000 N 
ATOM      2  H   UNL     1      44.282   1.972  11.525  0.00  0.00    +0.000 HD
ENDROOT
BRANCH   1   3
ATOM      3  C   UNL     1      44.944   3.807  12.016  0.00  0.00    +0.000 A 
ATOM      4  C   UNL     1      45.958   3.340  12.861  0.00  0.00    +0.000 A 
ATOM      5  C   UNL     1      46.764   4.217  13.587  0.00  0.00    +0.000 A 
ATOM      6  C   UNL     1      46.592   5.589  13.461  0.00  0.00    +0.000 A 
ATOM      7  C   UNL     1      45.611   6.107  12.606  0.00  0.00    +0.000 A 
ATOM      8  C   UNL     1      44.815   5.203  11.868  0.00  0.00    +0.000 A 
BRANCH   7   9
ATOM      9  C   UNL     1      45.473   7.598  12.393  0.00  0.00    +0.000 C 
BRANCH   9  10
ATOM     10  N   UNL     1      44.232   7.979  11.716  0.00  0.00    +0.000 NA
ATOM     11  H   UNL     1      43.596   7.183  11.726  0.00  0.00    +0.000 HD
ATOM     12  H   UNL     1      44.430   8.181  10.739  0.00  0.00    +0.000 HD
ENDBRANCH   9  10
ENDBRANCH   7   9
ENDBRANCH   1   3
BRANCH   1  13
ATOM     13  C   UNL     1      44.345   3.067   9.756  0.00  0.00    +0.000 C 
BRANCH  13  14
ATOM     14  C   UNL     1      44.915   1.796   9.121  0.00  0.00    +0.000 C 
BRANCH  14  21
ATOM     15  C   UNL     1      46.698  -0.271   7.741  0.00  0.00    +0.000 C 
ATOM     16  C   UNL     1      46.763   1.199   7.440  0.00  0.00    +0.000 A 
ATOM     17  C   UNL     1      47.661   1.652   6.462  0.00  0.00    +0.000 A 
ATOM     18  C   UNL     1      47.735   3.004   6.152  0.00  0.00    +0.000 A 
ATOM     19  C   UNL     1      46.898   3.869   6.826  0.00  0.00    +0.000 A 
ATOM     20  N   UNL     1      46.019   3.474   7.774  0.00  0.00    +0.000 NA
ATOM     21  C   UNL     1      45.958   2.151   8.083  0.00  0.00    +0.000 A 
ENDBRANCH  14  21
ENDBRANCH  13  14
ENDBRANCH   1  13
TORSDOF 6
ENDMDL
MODEL 7
REMARK VINA RESULT:    -5.785      2.217      3.300
REMARK INTER + INTRA:          -8.514
REMARK INTER:                  -7.701
REMARK INTRA:                  -0.813
REMARK UNBOUND:                -0.869
REMARK  Name = 
REMARK  7 active torsions:
REMARK  status: ('A' for Active; 'I' for Inactive)
REMARK    1  A    between atoms: C_1  and  C_2
REMARK    2  A    between atoms: C_7  and  C_8
REMARK    3  A    between atoms: C_8  and  C_9
REMARK    4  A    between atoms: C_9  and  N_10
REMARK    5  A    between atoms: N_10  and  C_11
REMARK    6  A    between atoms: C_15  and  C_16
REMARK    7  A    between atoms: C_16  and  N_17
REMARK                            x       y       z     vdW  Elec       q    Type
REMARK                         _______ _______ _______ _____ _____    ______ ____
ROOT
ATOM      1  N   UNL     1      45.385   6.357  10.528  0.00  0.00    +0.000 N 
ATOM      2  H   UNL     1      46.340   6.493  10.859  0.00  0.00    +0.000 HD
ENDROOT
BRANCH   1   3
ATOM      3  C   UNL     1      45.212   5.037  10.048  0.00  0.00    +0.000 A 
ATOM      4  C   UNL     1      44.462   4.081  10.743  0.00  0.00    +0.000 A 
ATOM      5  C   UNL     1      44.240   2.807  10.220  0.00  0.00    +0.000 A 
ATOM      6  C   UNL     1      44.740   2.469   8.969  0.00  0.00    +0.000 A 
ATOM      7  C   UNL     1      45.471   3.401   8.221  0.00  0.00    +0.000 A 
ATOM      8  C   UNL     1      45.673   4.690   8.763  0.00  0.00    +0.000 A 
BRANCH   7   9
ATOM      9  C   UNL     1      45.945   3.075   6.823  0.00  0.00    +0.000 C 
BRANCH   9  10
ATOM     10  N   UNL     1      46.914   4.036   6.296  0.00  0.00    +0.000 NA
ATOM     11  H   UNL     1      46.548   4.429   5.430  0.00  0.00    +0.000 HD
ATOM     12  H   UNL     1      47.775   3.550   6.055  0.00  0.00    +0.000 HD
ENDBRANCH   9  10
ENDBRANCH   7   9
ENDBRANCH   1   3
BRANCH   1  13
ATOM     13  C   UNL     1      44.392   6.823  11.515  0.00  0.00    +0.000 C 
BRANCH  13  14
ATOM     14  C   UNL     1      45.043   7.323  12.807  0.00  0.00    +0.000 C 
BRANCH  14  21
ATOM     15  C   UNL     1      46.951   5.082  13.641  0.00  0.00    +0.000 C 
ATOM     16  C   UNL     1      47.416   6.362  13.010  0.00  0.00    +0.000 A 
ATOM     17  C   UNL     1      48.786   6.537  12.760  0.00  0.00    +0.000 A 
ATOM     18  C   UNL     1      49.246   7.705  12.165  0.00  0.00    +0.000 A 
ATOM     19  C   UNL     1      48.317   8.666  11.825  0.00  0.00    +0.000 A 
ATOM     20  N   UNL     1      46.991   8.538  12.047  0.00  0.00    +0.000 NA
ATOM     21  C   UNL     1      46.545   7.399  12.641  0.00  0.00    +0.000 A 
ENDBRANCH  14  21
ENDBRANCH  13  14
ENDBRANCH   1  13
TORSDOF 6
ENDMDL
MODEL 8
REMARK VINA RESULT:    -5.703      3.654      5.952
REMARK INTER + INTRA:          -8.406
REMARK INTER:                  -7.927
REMARK INTRA:                  -0.478
REMARK UNBOUND:                -0.869
REMARK  Name = 
REMARK  7 active torsions:
REMARK  status: ('A' for Active; 'I' for Inactive)
REMARK    1  A    between atoms: C_1  and  C_2
REMARK    2  A    between atoms: C_7  and  C_8
REMARK    3  A    between atoms: C_8  and  C_9
REMARK    4  A    between atoms: C_9  and  N_10
REMARK    5  A    between atoms: N_10  and  C_11
REMARK    6  A    between atoms: C_15  and  C_16
REMARK    7  A    between atoms: C_16  and  N_17
REMARK                            x       y       z     vdW  Elec       q    Type
REMARK                         _______ _______ _______ _____ _____    ______ ____
ROOT
ATOM      1  N   UNL     1      46.995   3.665  14.606  0.00  0.00    +0.000 N 
ATOM      2  H   UNL     1      46.456   2.853  14.907  0.00  0.00    +0.000 HD
ENDROOT
BRANCH   1   3
ATOM      3  C   UNL     1      46.393   4.264  13.475  0.00  0.00    +0.000 A 
ATOM      4  C   UNL     1      46.826   5.493  12.960  0.00  0.00    +0.000 A 
ATOM      5  C   UNL     1      46.272   6.034  11.800  0.00  0.00    +0.000 A 
ATOM      6  C   UNL     1      45.288   5.340  11.108  0.00  0.00    +0.000 A 
ATOM      7  C   UNL     1      44.842   4.093  11.565  0.00  0.00    +0.000 A 
ATOM      8  C   UNL     1      45.426   3.556  12.734  0.00  0.00    +0.000 A 
BRANCH   7   9
ATOM      9  C   UNL     1      43.836   3.289  10.773  0.00  0.00    +0.000 C 
BRANCH   9  10
ATOM     10  N   UNL     1      43.056   2.360  11.592  0.00  0.00    +0.000 NA
ATOM     11  H   UNL     1      42.375   1.891  10.997  0.00  0.00    +0.000 HD
ATOM     12  H   UNL     1      42.526   2.884  12.285  0.00  0.00    +0.000 HD
ENDBRANCH   9  10
ENDBRANCH   7   9
ENDBRANCH   1   3
BRANCH   1  13
ATOM     13  C   UNL     1      47.301   4.568  15.732  0.00  0.00    +0.000 C 
BRANCH  13  14
ATOM     14  C   UNL     1      47.468   3.816  17.055  0.00  0.00    +0.000 C 
BRANCH  14  21
ATOM     15  C   UNL     1      49.351   5.545  18.735  0.00  0.00    +0.000 C 
ATOM     16  C   UNL     1      49.783   4.269  18.072  0.00  0.00    +0.000 A 
ATOM     17  C   UNL     1      51.102   3.825  18.247  0.00  0.00    +0.000 A 
ATOM     18  C   UNL     1      51.527   2.642  17.658  0.00  0.00    +0.000 A 
ATOM     19  C   UNL     1      50.614   1.927  16.912  0.00  0.00    +0.000 A 
ATOM     20  N   UNL     1      49.336   2.317  16.718  0.00  0.00    +0.000 NA
ATOM     21  C   UNL     1      48.926   3.482  17.287  0.00  0.00    +0.000 A 
ENDBRANCH  14  21
ENDBRANCH  13  14
ENDBRANCH   1  13
TORSDOF 6
ENDMDL
MODEL 9
REMARK VINA RESULT:    -5.644      2.204      6.631
REMARK INTER + INTRA:          -8.328
REMARK INTER:                  -7.921
REMARK INTRA:                  -0.406
REMARK UNBOUND:                -0.869
REMARK  Name = 
REMARK  7 active torsions:
REMARK  status: ('A' for Active; 'I' for Inactive)
REMARK    1  A    between atoms: C_1  and  C_2
REMARK    2  A    between atoms: C_7  and  C_8
REMARK    3  A    between atoms: C_8  and  C_9
REMARK    4  A    between atoms: C_9  and  N_10
REMARK    5  A    between atoms: N_10  and  C_11
REMARK    6  A    between atoms: C_15  and  C_16
REMARK    7  A    between atoms: C_16  and  N_17
REMARK                            x       y       z     vdW  Elec       q    Type
REMARK                         _______ _______ _______ _____ _____    ______ ____
ROOT
ATOM      1  N   UNL     1      46.567   5.118  12.839  0.00  0.00    +0.000 N 
ATOM      2  H   UNL     1      46.843   5.757  12.094  0.00  0.00    +0.000 HD
ENDROOT
BRANCH   1   3
ATOM      3  C   UNL     1      47.332   5.358  14.004  0.00  0.00    +0.000 A 
ATOM      4  C   UNL     1      48.065   6.537  14.188  0.00  0.00    +0.000 A 
ATOM      5  C   UNL     1      48.754   6.791  15.373  0.00  0.00    +0.000 A 
ATOM      6  C   UNL     1      48.701   5.879  16.420  0.00  0.00    +0.000 A 
ATOM      7  C   UNL     1      47.957   4.699  16.297  0.00  0.00    +0.000 A 
ATOM      8  C   UNL     1      47.255   4.467  15.093  0.00  0.00    +0.000 A 
BRANCH   7   9
ATOM      9  C   UNL     1      47.820   3.741  17.459  0.00  0.00    +0.000 C 
BRANCH   9  10
ATOM     10  N   UNL     1      46.512   3.087  17.527  0.00  0.00    +0.000 NA
ATOM     11  H   UNL     1      46.496   2.318  16.859  0.00  0.00    +0.000 HD
ATOM     12  H   UNL     1      45.792   3.743  17.233  0.00  0.00    +0.000 HD
ENDBRANCH   9  10
ENDBRANCH   7   9
ENDBRANCH   1   3
BRANCH   1  13
ATOM     13  C   UNL     1      45.103   5.088  13.020  0.00  0.00    +0.000 C 
BRANCH  13  14
ATOM     14  C   UNL     1      44.350   5.544  11.767  0.00  0.00    +0.000 C 
BRANCH  14  21
ATOM     15  C   UNL     1      43.285   2.687  11.514  0.00  0.00    +0.000 C 
ATOM     16  C   UNL     1      44.167   3.328  10.481  0.00  0.00    +0.000 A 
ATOM     17  C   UNL     1      44.502   2.600   9.329  0.00  0.00    +0.000 A 
ATOM     18  C   UNL     1      45.305   3.170   8.350  0.00  0.00    +0.000 A 
ATOM     19  C   UNL     1      45.746   4.462   8.546  0.00  0.00    +0.000 A 
ATOM     20  N   UNL     1      45.447   5.197   9.640  0.00  0.00    +0.000 NA
ATOM     21  C   UNL     1      44.671   4.632  10.603  0.00  0.00    +0.000 A 
ENDBRANCH  14  21
ENDBRANCH  13  14
ENDBRANCH   1  13
TORSDOF 6
ENDMDL
