MODEL 1
REMARK VINA RESULT:    -8.445      0.000      0.000
REMARK INTER + INTRA:         -13.657
REMARK INTER:                 -12.642
REMARK INTRA:                  -1.016
REMARK UNBOUND:                -1.016
REMARK  Name = 
REMARK  10 active torsions:
REMARK  status: ('A' for Active; 'I' for Inactive)
REMARK    1  A    between atoms: C_1  and  C_2
REMARK    2  A    between atoms: C_2  and  O_3
REMARK    3  A    between atoms: O_3  and  C_4
REMARK    4  A    between atoms: C_6  and  C_7
REMARK    5  A    between atoms: C_9  and  O_10
REMARK    6  A    between atoms: C_12  and  C_13
REMARK    7  A    between atoms: C_17  and  C_18
REMARK    8  A    between atoms: C_18  and  C_19
REMARK    9  A    between atoms: C_19  and  C_20
REMARK   10  A    between atoms: C_25  and  C_26
REMARK                            x       y       z     vdW  Elec       q    Type
REMARK                         _______ _______ _______ _____ _____    ______ ____
ROOT
ATOM      1  C   UNL     1      46.603   4.020  13.768  0.00  0.00    +0.000 A 
ATOM      2  C   UNL     1      47.063   5.297  13.566  0.00  0.00    +0.000 A 
ATOM      3  C   UNL     1      46.288   6.099  12.755  0.00  0.00    +0.000 A 
ATOM      4  N   UNL     1      45.170   5.631  12.158  0.00  0.00    +0.000 NA
ATOM      5  C   UNL     1      44.841   4.346  12.366  0.00  0.00    +0.000 A 
ATOM      6  N   UNL     1      45.509   3.518  13.181  0.00  0.00    +0.000 NA
ENDROOT
BRANCH   3   7
ATOM      7  C   UNL     1      46.572   7.531  12.529  0.00  0.00    +0.000 A 
ATOM      8  C   UNL     1      45.560   8.507  12.562  0.00  0.00    +0.000 A 
ATOM      9  C   UNL     1      45.850   9.838  12.265  0.00  0.00    +0.000 A 
ATOM     10  C   UNL     1      47.143  10.240  11.946  0.00  0.00    +0.000 A 
ATOM     11  C   UNL     1      48.170   9.297  11.938  0.00  0.00    +0.000 A 
ATOM     12  C   UNL     1      47.885   7.959  12.236  0.00  0.00    +0.000 A 
BRANCH   9  13
ATOM     13  O   UNL     1      44.875  10.791  12.262  0.00  0.00    +0.000 OA
ATOM     14  H   UNL     1      44.020  10.381  12.474  0.00  0.00    +0.000 HD
ENDBRANCH   9  13
BRANCH  11  15
ATOM     15  C   UNL     1      49.504   9.689  11.598  0.00  0.00    +0.000 C 
ATOM     16  N   UNL     1      50.585  10.005  11.308  0.00  0.00    +0.000 NA
ENDBRANCH  11  15
ENDBRANCH   3   7
BRANCH   1  17
ATOM     17  O   UNL     1      47.350   3.215  14.607  0.00  0.00    +0.000 OA
BRANCH  17  19
ATOM     18  C   UNL     1      48.426   2.892  16.720  0.00  0.00    +0.000 C 
ATOM     19  C   UNL     1      47.551   3.814  15.891  0.00  0.00    +0.000 C 
ENDBRANCH  17  19
ENDBRANCH   1  17
BRANCH   5  20
ATOM     20  C   UNL     1      43.609   3.804  11.702  0.00  0.00    +0.000 C 
BRANCH  20  21
ATOM     21  C   UNL     1      43.871   2.526  10.896  0.00  0.00    +0.000 C 
BRANCH  21  22
ATOM     22  C   UNL     1      44.707   2.846   9.680  0.00  0.00    +0.000 A 
ATOM     23  C   UNL     1      44.504   4.038   8.983  0.00  0.00    +0.000 A 
ATOM     24  C   UNL     1      45.164   4.258   7.777  0.00  0.00    +0.000 A 
ATOM     25  C   UNL     1      46.005   3.280   7.228  0.00  0.00    +0.000 A 
ATOM     26 CL   UNL     1      46.660   3.662   5.672  0.00  0.00    +0.000 Cl
ATOM     27  C   UNL     1      46.237   2.081   7.921  0.00  0.00    +0.000 A 
ATOM     28  C   UNL     1      45.604   1.899   9.167  0.00  0.00    +0.000 A 
BRANCH  27  29
ATOM     29  C   UNL     1      47.046   0.918   7.440  0.00  0.00    +0.000 C 
ATOM     30  N   UNL     1      46.601  -0.349   7.671  0.00  0.00    +0.000 N 
ATOM     31  O   UNL     1      48.120   1.079   6.868  0.00  0.00    +0.000 OA
ATOM     32  H   UNL     1      45.739  -0.554   8.160  0.00  0.00    +0.000 HD
ATOM     33  H   UNL     1      47.191  -1.120   7.387  0.00  0.00    +0.000 HD
ENDBRANCH  27  29
ENDBRANCH  21  22
ENDBRANCH  20  21
ENDBRANCH   5  20
TORSDOF 9
ENDMDL
MODEL 2
REMARK VINA RESULT:    -8.060      1.612      2.011
REMARK INTER + INTRA:         -13.081
REMARK INTER:                 -11.980
REMARK INTRA:                  -1.101
REMARK UNBOUND:                -1.016
REMARK  Name = 
REMARK  10 active torsions:
REMARK  status: ('A' for Active; 'I' for Inactive)
REMARK    1  A    between atoms: C_1  and  C_2
REMARK    2  A    between atoms: C_2  and  O_3
REMARK    3  A    between atoms: O_3  and  C_4
REMARK    4  A    between atoms: C_6  and  C_7
REMARK    5  A    between atoms: C_9  and  O_10
REMARK    6  A    between atoms: C_12  and  C_13
REMARK    7  A    between atoms: C_17  and  C_18
REMARK    8  A    between atoms: C_18  and  C_19
REMARK    9  A    between atoms: C_19  and  C_20
REMARK   10  A    between atoms: C_25  and  C_26
REMARK                            x       y       z     vdW  Elec       q    Type
REMARK                         _______ _______ _______ _____ _____    ______ ____
ROOT
ATOM      1  C   UNL     1      46.608   4.449  13.900  0.00  0.00    +0.000 A 
ATOM      2  C   UNL     1      47.451   5.522  13.756  0.00  0.00    +0.000 A 
ATOM      3  C   UNL     1      47.150   6.396  12.732  0.00  0.00    +0.000 A 
ATOM      4  N   UNL     1      46.114   6.174  11.895  0.00  0.00    +0.000 NA
ATOM      5  C   UNL     1      45.389   5.058  12.078  0.00  0.00    +0.000 A 
ATOM      6  N   UNL     1      45.582   4.189  13.079  0.00  0.00    +0.000 NA
ENDROOT
BRANCH   3   7
ATOM      7  C   UNL     1      47.880   7.662  12.512  0.00  0.00    +0.000 A 
ATOM      8  C   UNL     1      47.307   8.913  12.800  0.00  0.00    +0.000 A 
ATOM      9  C   UNL     1      47.993  10.090  12.506  0.00  0.00    +0.000 A 
ATOM     10  C   UNL     1      49.262  10.062  11.936  0.00  0.00    +0.000 A 
ATOM     11  C   UNL     1      49.865   8.834  11.670  0.00  0.00    +0.000 A 
ATOM     12  C   UNL     1      49.181   7.647  11.965  0.00  0.00    +0.000 A 
BRANCH   9  13
ATOM     13  O   UNL     1      47.440  11.312  12.750  0.00  0.00    +0.000 OA
ATOM     14  H   UNL     1      47.757  11.949  12.087  0.00  0.00    +0.000 HD
ENDBRANCH   9  13
BRANCH  11  15
ATOM     15  C   UNL     1      51.164   8.784  11.072  0.00  0.00    +0.000 C 
ATOM     16  N   UNL     1      52.219   8.757  10.582  0.00  0.00    +0.000 NA
ENDBRANCH  11  15
ENDBRANCH   3   7
BRANCH   1  17
ATOM     17  O   UNL     1      46.877   3.582  14.943  0.00  0.00    +0.000 OA
BRANCH  17  19
ATOM     18  C   UNL     1      47.396   3.268  17.258  0.00  0.00    +0.000 C 
ATOM     19  C   UNL     1      47.275   4.275  16.129  0.00  0.00    +0.000 C 
ENDBRANCH  17  19
ENDBRANCH   1  17
BRANCH   5  20
ATOM     20  C   UNL     1      44.241   4.788  11.150  0.00  0.00    +0.000 C 
BRANCH  20  21
ATOM     21  C   UNL     1      44.582   5.045   9.678  0.00  0.00    +0.000 C 
BRANCH  21  22
ATOM     22  C   UNL     1      44.992   3.754   9.011  0.00  0.00    +0.000 A 
ATOM     23  C   UNL     1      44.656   2.529   9.587  0.00  0.00    +0.000 A 
ATOM     24  C   UNL     1      45.167   1.347   9.056  0.00  0.00    +0.000 A 
ATOM     25  C   UNL     1      46.050   1.372   7.967  0.00  0.00    +0.000 A 
ATOM     26 CL   UNL     1      46.682  -0.170   7.499  0.00  0.00    +0.000 Cl
ATOM     27  C   UNL     1      46.387   2.592   7.361  0.00  0.00    +0.000 A 
ATOM     28  C   UNL     1      45.817   3.773   7.877  0.00  0.00    +0.000 A 
BRANCH  27  29
ATOM     29  C   UNL     1      47.363   2.791   6.244  0.00  0.00    +0.000 C 
ATOM     30  N   UNL     1      48.688   2.556   6.461  0.00  0.00    +0.000 N 
ATOM     31  O   UNL     1      47.001   3.192   5.143  0.00  0.00    +0.000 OA
ATOM     32  H   UNL     1      49.058   2.250   7.352  0.00  0.00    +0.000 HD
ATOM     33  H   UNL     1      49.335   2.750   5.709  0.00  0.00    +0.000 HD
ENDBRANCH  27  29
ENDBRANCH  21  22
ENDBRANCH  20  21
ENDBRANCH   5  20
TORSDOF 9
ENDMDL
MODEL 3
REMARK VINA RESULT:    -7.569      2.273      2.748
REMARK INTER + INTRA:         -12.346
REMARK INTER:                 -11.270
REMARK INTRA:                  -1.076
REMARK UNBOUND:                -1.016
REMARK  Name = 
REMARK  10 active torsions:
REMARK  status: ('A' for Active; 'I' for Inactive)
REMARK    1  A    between atoms: C_1  and  C_2
REMARK    2  A    between atoms: C_2  and  O_3
REMARK    3  A    between atoms: O_3  and  C_4
REMARK    4  A    between atoms: C_6  and  C_7
REMARK    5  A    between atoms: C_9  and  O_10
REMARK    6  A    between atoms: C_12  and  C_13
REMARK    7  A    between atoms: C_17  and  C_18
REMARK    8  A    between atoms: C_18  and  C_19
REMARK    9  A    between atoms: C_19  and  C_20
REMARK   10  A    between atoms: C_25  and  C_26
REMARK                            x       y       z     vdW  Elec       q    Type
REMARK                         _______ _______ _______ _____ _____    ______ ____
ROOT
ATOM      1  C   UNL     1      46.654   4.503  14.026  0.00  0.00    +0.000 A 
ATOM      2  C   UNL     1      47.661   5.418  13.847  0.00  0.00    +0.000 A 
ATOM      3  C   UNL     1      47.523   6.269  12.770  0.00  0.00    +0.000 A 
ATOM      4  N   UNL     1      46.479   6.168  11.919  0.00  0.00    +0.000 NA
ATOM      5  C   UNL     1      45.582   5.194  12.142  0.00  0.00    +0.000 A 
ATOM      6  N   UNL     1      45.614   4.364  13.193  0.00  0.00    +0.000 NA
ENDROOT
BRANCH   3   7
ATOM      7  C   UNL     1      48.450   7.387  12.502  0.00  0.00    +0.000 A 
ATOM      8  C   UNL     1      49.579   7.239  11.676  0.00  0.00    +0.000 A 
ATOM      9  C   UNL     1      50.478   8.291  11.510  0.00  0.00    +0.000 A 
ATOM     10  C   UNL     1      50.278   9.516  12.138  0.00  0.00    +0.000 A 
ATOM     11  C   UNL     1      49.150   9.698  12.937  0.00  0.00    +0.000 A 
ATOM     12  C   UNL     1      48.243   8.645  13.108  0.00  0.00    +0.000 A 
BRANCH   9  13
ATOM     13  O   UNL     1      51.593   8.155  10.738  0.00  0.00    +0.000 OA
ATOM     14  H   UNL     1      51.589   7.280  10.315  0.00  0.00    +0.000 HD
ENDBRANCH   9  13
BRANCH  11  15
ATOM     15  C   UNL     1      48.934  10.947  13.604  0.00  0.00    +0.000 C 
ATOM     16  N   UNL     1      48.772  11.965  14.143  0.00  0.00    +0.000 NA
ENDBRANCH  11  15
ENDBRANCH   3   7
BRANCH   1  17
ATOM     17  O   UNL     1      46.761   3.666  15.120  0.00  0.00    +0.000 OA
BRANCH  17  19
ATOM     18  C   UNL     1      47.262   3.383  17.444  0.00  0.00    +0.000 C 
ATOM     19  C   UNL     1      47.266   4.348  16.272  0.00  0.00    +0.000 C 
ENDBRANCH  17  19
ENDBRANCH   1  17
BRANCH   5  20
ATOM     20  C   UNL     1      44.422   5.057  11.200  0.00  0.00    +0.000 C 
BRANCH  20  21
ATOM     21  C   UNL     1      44.809   5.273   9.732  0.00  0.00    +0.000 C 
BRANCH  21  22
ATOM     22  C   UNL     1      45.120   3.946   9.082  0.00  0.00    +0.000 A 
ATOM     23  C   UNL     1      44.737   2.755   9.699  0.00  0.00    +0.000 A 
ATOM     24  C   UNL     1      45.162   1.535   9.179  0.00  0.00    +0.000 A 
ATOM     25  C   UNL     1      46.004   1.485   8.058  0.00  0.00    +0.000 A 
ATOM     26 CL   UNL     1      46.530  -0.100   7.604  0.00  0.00    +0.000 Cl
ATOM     27  C   UNL     1      46.386   2.671   7.411  0.00  0.00    +0.000 A 
ATOM     28  C   UNL     1      45.902   3.893   7.919  0.00  0.00    +0.000 A 
BRANCH  27  29
ATOM     29  C   UNL     1      47.329   2.789   6.255  0.00  0.00    +0.000 C 
ATOM     30  N   UNL     1      48.630   2.417   6.411  0.00  0.00    +0.000 N 
ATOM     31  O   UNL     1      46.963   3.245   5.176  0.00  0.00    +0.000 OA
ATOM     32  H   UNL     1      49.005   2.059   7.280  0.00  0.00    +0.000 HD
ATOM     33  H   UNL     1      49.261   2.558   5.634  0.00  0.00    +0.000 HD
ENDBRANCH  27  29
ENDBRANCH  21  22
ENDBRANCH  20  21
ENDBRANCH   5  20
TORSDOF 9
ENDMDL
MODEL 4
REMARK VINA RESULT:    -7.405      3.370      7.958
REMARK INTER + INTRA:         -12.100
REMARK INTER:                 -10.948
REMARK INTRA:                  -1.152
REMARK UNBOUND:                -1.016
REMARK  Name = 
REMARK  10 active torsions:
REMARK  status: ('A' for Active; 'I' for Inactive)
REMARK    1  A    between atoms: C_1  and  C_2
REMARK    2  A    between atoms: C_2  and  O_3
REMARK    3  A    between atoms: O_3  and  C_4
REMARK    4  A    between atoms: C_6  and  C_7
REMARK    5  A    between atoms: C_9  and  O_10
REMARK    6  A    between atoms: C_12  and  C_13
REMARK    7  A    between atoms: C_17  and  C_18
REMARK    8  A    between atoms: C_18  and  C_19
REMARK    9  A    between atoms: C_19  and  C_20
REMARK   10  A    between atoms: C_25  and  C_26
REMARK                            x       y       z     vdW  Elec       q    Type
REMARK                         _______ _______ _______ _____ _____    ______ ____
ROOT
ATOM      1  C   UNL     1      45.400   8.733  12.329  0.00  0.00    +0.000 A 
ATOM      2  C   UNL     1      44.878   7.713  11.574  0.00  0.00    +0.000 A 
ATOM      3  C   UNL     1      45.664   6.585  11.454  0.00  0.00    +0.000 A 
ATOM      4  N   UNL     1      46.893   6.518  12.007  0.00  0.00    +0.000 NA
ATOM      5  C   UNL     1      47.341   7.596  12.670  0.00  0.00    +0.000 A 
ATOM      6  N   UNL     1      46.621   8.707  12.879  0.00  0.00    +0.000 NA
ENDROOT
BRANCH   3   7
ATOM      7  C   UNL     1      45.206   5.353  10.779  0.00  0.00    +0.000 A 
ATOM      8  C   UNL     1      44.352   4.430  11.411  0.00  0.00    +0.000 A 
ATOM      9  C   UNL     1      44.004   3.239  10.776  0.00  0.00    +0.000 A 
ATOM     10  C   UNL     1      44.475   2.936   9.502  0.00  0.00    +0.000 A 
ATOM     11  C   UNL     1      45.296   3.849   8.842  0.00  0.00    +0.000 A 
ATOM     12  C   UNL     1      45.649   5.049   9.475  0.00  0.00    +0.000 A 
BRANCH   9  13
ATOM     13  O   UNL     1      43.204   2.319  11.385  0.00  0.00    +0.000 OA
ATOM     14  H   UNL     1      43.643   1.988  12.187  0.00  0.00    +0.000 HD
ENDBRANCH   9  13
BRANCH  11  15
ATOM     15  C   UNL     1      45.802   3.550   7.537  0.00  0.00    +0.000 C 
ATOM     16  N   UNL     1      46.202   3.299   6.474  0.00  0.00    +0.000 NA
ENDBRANCH  11  15
ENDBRANCH   3   7
BRANCH   1  17
ATOM     17  O   UNL     1      44.611   9.856  12.488  0.00  0.00    +0.000 OA
BRANCH  17  19
ATOM     18  C   UNL     1      45.378  11.771  11.274  0.00  0.00    +0.000 C 
ATOM     19  C   UNL     1      44.444  10.575  11.262  0.00  0.00    +0.000 C 
ENDBRANCH  17  19
ENDBRANCH   1  17
BRANCH   5  20
ATOM     20  C   UNL     1      48.711   7.545  13.282  0.00  0.00    +0.000 C 
BRANCH  20  21
ATOM     21  C   UNL     1      48.758   8.121  14.703  0.00  0.00    +0.000 C 
BRANCH  21  22
ATOM     22  C   UNL     1      49.049   7.021  15.695  0.00  0.00    +0.000 A 
ATOM     23  C   UNL     1      50.194   7.078  16.490  0.00  0.00    +0.000 A 
ATOM     24  C   UNL     1      50.540   5.990  17.288  0.00  0.00    +0.000 A 
ATOM     25  C   UNL     1      49.772   4.817  17.277  0.00  0.00    +0.000 A 
ATOM     26 CL   UNL     1      50.398   3.520  18.237  0.00  0.00    +0.000 Cl
ATOM     27  C   UNL     1      48.606   4.745  16.498  0.00  0.00    +0.000 A 
ATOM     28  C   UNL     1      48.242   5.876  15.739  0.00  0.00    +0.000 A 
BRANCH  27  29
ATOM     29  C   UNL     1      47.724   3.549  16.325  0.00  0.00    +0.000 C 
ATOM     30  N   UNL     1      46.945   3.135  17.363  0.00  0.00    +0.000 N 
ATOM     31  O   UNL     1      47.709   2.913  15.276  0.00  0.00    +0.000 OA
ATOM     32  H   UNL     1      46.929   3.597  18.263  0.00  0.00    +0.000 HD
ATOM     33  H   UNL     1      46.399   2.293  17.241  0.00  0.00    +0.000 HD
ENDBRANCH  27  29
ENDBRANCH  21  22
ENDBRANCH  20  21
ENDBRANCH   5  20
TORSDOF 9
ENDMDL
MODEL 5
REMARK VINA RESULT:    -7.386      4.468      8.143
REMARK INTER + INTRA:         -12.072
REMARK INTER:                 -11.278
REMARK INTRA:                  -0.794
REMARK UNBOUND:                -1.016
REMARK  Name = 
REMARK  10 active torsions:
REMARK  status: ('A' for Active; 'I' for Inactive)
REMARK    1  A    between atoms: C_1  and  C_2
REMARK    2  A    between atoms: C_2  and  O_3
REMARK    3  A    between atoms: O_3  and  C_4
REMARK    4  A    between atoms: C_6  and  C_7
REMARK    5  A    between atoms: C_9  and  O_10
REMARK    6  A    between atoms: C_12  and  C_13
REMARK    7  A    between atoms: C_17  and  C_18
REMARK    8  A    between atoms: C_18  and  C_19
REMARK    9  A    between atoms: C_19  and  C_20
REMARK   10  A    between atoms: C_25  and  C_26
REMARK                            x       y       z     vdW  Elec       q    Type
REMARK                         _______ _______ _______ _____ _____    ______ ____
ROOT
ATOM      1  C   UNL     1      48.348   6.300  14.439  0.00  0.00    +0.000 A 
ATOM      2  C   UNL     1      47.445   6.166  13.414  0.00  0.00    +0.000 A 
ATOM      3  C   UNL     1      46.495   5.178  13.570  0.00  0.00    +0.000 A 
ATOM      4  N   UNL     1      46.492   4.363  14.647  0.00  0.00    +0.000 NA
ATOM      5  C   UNL     1      47.461   4.532  15.562  0.00  0.00    +0.000 A 
ATOM      6  N   UNL     1      48.386   5.500  15.512  0.00  0.00    +0.000 NA
ENDROOT
BRANCH   3   7
ATOM      7  C   UNL     1      45.379   4.977  12.623  0.00  0.00    +0.000 A 
ATOM      8  C   UNL     1      44.202   5.746  12.682  0.00  0.00    +0.000 A 
ATOM      9  C   UNL     1      43.137   5.477  11.826  0.00  0.00    +0.000 A 
ATOM     10  C   UNL     1      43.210   4.456  10.882  0.00  0.00    +0.000 A 
ATOM     11  C   UNL     1      44.377   3.700  10.783  0.00  0.00    +0.000 A 
ATOM     12  C   UNL     1      45.452   3.967  11.641  0.00  0.00    +0.000 A 
BRANCH   9  13
ATOM     13  O   UNL     1      41.978   6.191  11.890  0.00  0.00    +0.000 OA
ATOM     14  H   UNL     1      42.180   7.119  12.098  0.00  0.00    +0.000 HD
ENDBRANCH   9  13
BRANCH  11  15
ATOM     15  C   UNL     1      44.467   2.637   9.828  0.00  0.00    +0.000 C 
ATOM     16  N   UNL     1      44.552   1.771   9.057  0.00  0.00    +0.000 NA
ENDBRANCH  11  15
ENDBRANCH   3   7
BRANCH   1  17
ATOM     17  O   UNL     1      49.285   7.309  14.313  0.00  0.00    +0.000 OA
BRANCH  17  19
ATOM     18  C   UNL     1      51.292   7.459  15.608  0.00  0.00    +0.000 C 
ATOM     19  C   UNL     1      49.799   7.727  15.581  0.00  0.00    +0.000 C 
ENDBRANCH  17  19
ENDBRANCH   1  17
BRANCH   5  20
ATOM     20  C   UNL     1      47.483   3.628  16.759  0.00  0.00    +0.000 C 
BRANCH  20  21
ATOM     21  C   UNL     1      48.440   2.440  16.600  0.00  0.00    +0.000 C 
BRANCH  21  22
ATOM     22  C   UNL     1      49.730   2.716  17.335  0.00  0.00    +0.000 A 
ATOM     23  C   UNL     1      49.950   3.962  17.922  0.00  0.00    +0.000 A 
ATOM     24  C   UNL     1      51.198   4.266  18.460  0.00  0.00    +0.000 A 
ATOM     25  C   UNL     1      52.256   3.347  18.387  0.00  0.00    +0.000 A 
ATOM     26 CL   UNL     1      53.769   3.919  19.001  0.00  0.00    +0.000 Cl
ATOM     27  C   UNL     1      52.050   2.081  17.817  0.00  0.00    +0.000 A 
ATOM     28  C   UNL     1      50.766   1.771  17.327  0.00  0.00    +0.000 A 
BRANCH  27  29
ATOM     29  C   UNL     1      53.087   1.023  17.603  0.00  0.00    +0.000 C 
ATOM     30  N   UNL     1      52.898  -0.218  18.133  0.00  0.00    +0.000 N 
ATOM     31  O   UNL     1      54.121   1.258  16.985  0.00  0.00    +0.000 OA
ATOM     32  H   UNL     1      52.083  -0.471  18.676  0.00  0.00    +0.000 HD
ATOM     33  H   UNL     1      53.636  -0.899  18.022  0.00  0.00    +0.000 HD
ENDBRANCH  27  29
ENDBRANCH  21  22
ENDBRANCH  20  21
ENDBRANCH   5  20
TORSDOF 9
ENDMDL
MODEL 6
REMARK VINA RESULT:    -7.003      3.798      7.745
REMARK INTER + INTRA:         -11.498
REMARK INTER:                 -10.291
REMARK INTRA:                  -1.207
REMARK UNBOUND:                -1.016
REMARK  Name = 
REMARK  10 active torsions:
REMARK  status: ('A' for Active; 'I' for Inactive)
REMARK    1  A    between atoms: C_1  and  C_2
REMARK    2  A    between atoms: C_2  and  O_3
REMARK    3  A    between atoms: O_3  and  C_4
REMARK    4  A    between atoms: C_6  and  C_7
REMARK    5  A    between atoms: C_9  and  O_10
REMARK    6  A    between atoms: C_12  and  C_13
REMARK    7  A    between atoms: C_17  and  C_18
REMARK    8  A    between atoms: C_18  and  C_19
REMARK    9  A    between atoms: C_19  and  C_20
REMARK   10  A    between atoms: C_25  and  C_26
REMARK                            x       y       z     vdW  Elec       q    Type
REMARK                         _______ _______ _______ _____ _____    ______ ____
ROOT
ATOM      1  C   UNL     1      49.466   8.525  12.314  0.00  0.00    +0.000 A 
ATOM      2  C   UNL     1      48.464   7.782  11.741  0.00  0.00    +0.000 A 
ATOM      3  C   UNL     1      47.476   7.338  12.595  0.00  0.00    +0.000 A 
ATOM      4  N   UNL     1      47.525   7.582  13.922  0.00  0.00    +0.000 NA
ATOM      5  C   UNL     1      48.584   8.261  14.394  0.00  0.00    +0.000 A 
ATOM      6  N   UNL     1      49.556   8.773  13.627  0.00  0.00    +0.000 NA
ENDROOT
BRANCH   3   7
ATOM      7  C   UNL     1      46.266   6.631  12.127  0.00  0.00    +0.000 A 
ATOM      8  C   UNL     1      45.118   6.504  12.930  0.00  0.00    +0.000 A 
ATOM      9  C   UNL     1      44.025   5.762  12.489  0.00  0.00    +0.000 A 
ATOM     10  C   UNL     1      44.029   5.140  11.245  0.00  0.00    +0.000 A 
ATOM     11  C   UNL     1      45.142   5.277  10.417  0.00  0.00    +0.000 A 
ATOM     12  C   UNL     1      46.245   6.023  10.854  0.00  0.00    +0.000 A 
BRANCH   9  13
ATOM     13  O   UNL     1      42.916   5.603  13.267  0.00  0.00    +0.000 OA
ATOM     14  H   UNL     1      42.222   6.215  12.970  0.00  0.00    +0.000 HD
ENDBRANCH   9  13
BRANCH  11  15
ATOM     15  C   UNL     1      45.172   4.633   9.138  0.00  0.00    +0.000 C 
ATOM     16  N   UNL     1      45.195   4.123   8.093  0.00  0.00    +0.000 NA
ENDBRANCH  11  15
ENDBRANCH   3   7
BRANCH   1  17
ATOM     17  O   UNL     1      50.446   9.007  11.466  0.00  0.00    +0.000 OA
BRANCH  17  19
ATOM     18  C   UNL     1      52.019   7.534  10.426  0.00  0.00    +0.000 C 
ATOM     19  C   UNL     1      51.701   8.350  11.666  0.00  0.00    +0.000 C 
ENDBRANCH  17  19
ENDBRANCH   1  17
BRANCH   5  20
ATOM     20  C   UNL     1      48.663   8.531  15.868  0.00  0.00    +0.000 C 
BRANCH  20  21
ATOM     21  C   UNL     1      49.983   8.068  16.496  0.00  0.00    +0.000 C 
BRANCH  21  22
ATOM     22  C   UNL     1      49.889   6.610  16.876  0.00  0.00    +0.000 A 
ATOM     23  C   UNL     1      51.034   5.906  17.247  0.00  0.00    +0.000 A 
ATOM     24  C   UNL     1      50.970   4.528  17.445  0.00  0.00    +0.000 A 
ATOM     25  C   UNL     1      49.773   3.828  17.238  0.00  0.00    +0.000 A 
ATOM     26 CL   UNL     1      49.887   2.110  17.416  0.00  0.00    +0.000 Cl
ATOM     27  C   UNL     1      48.604   4.519  16.881  0.00  0.00    +0.000 A 
ATOM     28  C   UNL     1      48.676   5.920  16.740  0.00  0.00    +0.000 A 
BRANCH  27  29
ATOM     29  C   UNL     1      47.275   3.913  16.559  0.00  0.00    +0.000 C 
ATOM     30  N   UNL     1      46.671   4.212  15.375  0.00  0.00    +0.000 N 
ATOM     31  O   UNL     1      46.700   3.175  17.353  0.00  0.00    +0.000 OA
ATOM     32  H   UNL     1      47.076   4.834  14.687  0.00  0.00    +0.000 HD
ATOM     33  H   UNL     1      45.749   3.835  15.202  0.00  0.00    +0.000 HD
ENDBRANCH  27  29
ENDBRANCH  21  22
ENDBRANCH  20  21
ENDBRANCH   5  20
TORSDOF 9
ENDMDL
MODEL 7
REMARK VINA RESULT:    -6.801      3.258      6.977
REMARK INTER + INTRA:         -11.196
REMARK INTER:                 -10.056
REMARK INTRA:                  -1.140
REMARK UNBOUND:                -1.016
REMARK  Name = 
REMARK  10 active torsions:
REMARK  status: ('A' for Active; 'I' for Inactive)
REMARK    1  A    between atoms: C_1  and  C_2
REMARK    2  A    between atoms: C_2  and  O_3
REMARK    3  A    between atoms: O_3  and  C_4
REMARK    4  A    between atoms: C_6  and  C_7
REMARK    5  A    between atoms: C_9  and  O_10
REMARK    6  A    between atoms: C_12  and  C_13
REMARK    7  A    between atoms: C_17  and  C_18
REMARK    8  A    between atoms: C_18  and  C_19
REMARK    9  A    between atoms: C_19  and  C_20
REMARK   10  A    between atoms: C_25  and  C_26
REMARK                            x       y       z     vdW  Elec       q    Type
REMARK                         _______ _______ _______ _____ _____    ______ ____
ROOT
ATOM      1  C   UNL     1      47.582   4.540  15.625  0.00  0.00    +0.000 A 
ATOM      2  C   UNL     1      46.486   4.300  14.835  0.00  0.00    +0.000 A 
ATOM      3  C   UNL     1      46.339   5.122  13.737  0.00  0.00    +0.000 A 
ATOM      4  N   UNL     1      47.201   6.132  13.490  0.00  0.00    +0.000 NA
ATOM      5  C   UNL     1      48.204   6.327  14.362  0.00  0.00    +0.000 A 
ATOM      6  N   UNL     1      48.447   5.541  15.420  0.00  0.00    +0.000 NA
ENDROOT
BRANCH   3   7
ATOM      7  C   UNL     1      45.286   4.927  12.719  0.00  0.00    +0.000 A 
ATOM      8  C   UNL     1      44.105   5.691  12.711  0.00  0.00    +0.000 A 
ATOM      9  C   UNL     1      43.097   5.426  11.786  0.00  0.00    +0.000 A 
ATOM     10  C   UNL     1      43.234   4.415  10.840  0.00  0.00    +0.000 A 
ATOM     11  C   UNL     1      44.408   3.665  10.807  0.00  0.00    +0.000 A 
ATOM     12  C   UNL     1      45.426   3.927  11.734  0.00  0.00    +0.000 A 
BRANCH   9  13
ATOM     13  O   UNL     1      41.933   6.136  11.783  0.00  0.00    +0.000 OA
ATOM     14  H   UNL     1      42.098   7.028  12.132  0.00  0.00    +0.000 HD
ENDBRANCH   9  13
BRANCH  11  15
ATOM     15  C   UNL     1      44.562   2.611   9.850  0.00  0.00    +0.000 C 
ATOM     16  N   UNL     1      44.693   1.764   9.064  0.00  0.00    +0.000 NA
ENDBRANCH  11  15
ENDBRANCH   3   7
BRANCH   1  17
ATOM     17  O   UNL     1      47.762   3.702  16.710  0.00  0.00    +0.000 OA
BRANCH  17  19
ATOM     18  C   UNL     1      48.780   4.092  18.840  0.00  0.00    +0.000 C 
ATOM     19  C   UNL     1      49.022   3.916  17.352  0.00  0.00    +0.000 C 
ENDBRANCH  17  19
ENDBRANCH   1  17
BRANCH   5  20
ATOM     20  C   UNL     1      49.164   7.452  14.111  0.00  0.00    +0.000 C 
BRANCH  20  21
ATOM     21  C   UNL     1      48.621   8.817  14.549  0.00  0.00    +0.000 C 
BRANCH  21  22
ATOM     22  C   UNL     1      48.049   9.549  13.358  0.00  0.00    +0.000 A 
ATOM     23  C   UNL     1      48.763  10.591  12.766  0.00  0.00    +0.000 A 
ATOM     24  C   UNL     1      48.168  11.365  11.772  0.00  0.00    +0.000 A 
ATOM     25  C   UNL     1      46.841  11.136  11.381  0.00  0.00    +0.000 A 
ATOM     26 CL   UNL     1      46.215  12.252  10.216  0.00  0.00    +0.000 Cl
ATOM     27  C   UNL     1      46.111  10.081  11.951  0.00  0.00    +0.000 A 
ATOM     28  C   UNL     1      46.748   9.274  12.915  0.00  0.00    +0.000 A 
BRANCH  27  29
ATOM     29  C   UNL     1      44.674   9.752  11.693  0.00  0.00    +0.000 C 
ATOM     30  N   UNL     1      43.702  10.592  12.149  0.00  0.00    +0.000 N 
ATOM     31  O   UNL     1      44.349   8.724  11.107  0.00  0.00    +0.000 OA
ATOM     32  H   UNL     1      43.899  11.440  12.663  0.00  0.00    +0.000 HD
ATOM     33  H   UNL     1      42.738  10.322  12.012  0.00  0.00    +0.000 HD
ENDBRANCH  27  29
ENDBRANCH  21  22
ENDBRANCH  20  21
ENDBRANCH   5  20
TORSDOF 9
ENDMDL
MODEL 8
REMARK VINA RESULT:    -6.690      3.654      6.686
REMARK INTER + INTRA:         -11.029
REMARK INTER:                  -9.911
REMARK INTRA:                  -1.118
REMARK UNBOUND:                -1.016
REMARK  Name = 
REMARK  10 active torsions:
REMARK  status: ('A' for Active; 'I' for Inactive)
REMARK    1  A    between atoms: C_1  and  C_2
REMARK    2  A    between atoms: C_2  and  O_3
REMARK    3  A    between atoms: O_3  and  C_4
REMARK    4  A    between atoms: C_6  and  C_7
REMARK    5  A    between atoms: C_9  and  O_10
REMARK    6  A    between atoms: C_12  and  C_13
REMARK    7  A    between atoms: C_17  and  C_18
REMARK    8  A    between atoms: C_18  and  C_19
REMARK    9  A    between atoms: C_19  and  C_20
REMARK   10  A    between atoms: C_25  and  C_26
REMARK                            x       y       z     vdW  Elec       q    Type
REMARK                         _______ _______ _______ _____ _____    ______ ____
ROOT
ATOM      1  C   UNL     1      49.946   8.697  14.910  0.00  0.00    +0.000 A 
ATOM      2  C   UNL     1      49.721   7.901  16.005  0.00  0.00    +0.000 A 
ATOM      3  C   UNL     1      49.084   6.702  15.762  0.00  0.00    +0.000 A 
ATOM      4  N   UNL     1      48.666   6.361  14.524  0.00  0.00    +0.000 NA
ATOM      5  C   UNL     1      48.874   7.240  13.530  0.00  0.00    +0.000 A 
ATOM      6  N   UNL     1      49.532   8.399  13.672  0.00  0.00    +0.000 NA
ENDROOT
BRANCH   3   7
ATOM      7  C   UNL     1      48.871   5.677  16.805  0.00  0.00    +0.000 A 
ATOM      8  C   UNL     1      47.893   4.674  16.677  0.00  0.00    +0.000 A 
ATOM      9  C   UNL     1      47.664   3.772  17.714  0.00  0.00    +0.000 A 
ATOM     10  C   UNL     1      48.401   3.826  18.893  0.00  0.00    +0.000 A 
ATOM     11  C   UNL     1      49.398   4.791  19.032  0.00  0.00    +0.000 A 
ATOM     12  C   UNL     1      49.633   5.700  17.992  0.00  0.00    +0.000 A 
BRANCH   9  13
ATOM     13  O   UNL     1      46.699   2.814  17.620  0.00  0.00    +0.000 OA
ATOM     14  H   UNL     1      45.978   3.135  17.053  0.00  0.00    +0.000 HD
ENDBRANCH   9  13
BRANCH  11  15
ATOM     15  C   UNL     1      50.157   4.873  20.242  0.00  0.00    +0.000 C 
ATOM     16  N   UNL     1      50.766   4.930  21.232  0.00  0.00    +0.000 NA
ENDBRANCH  11  15
ENDBRANCH   3   7
BRANCH   1  17
ATOM     17  O   UNL     1      50.614   9.886  15.132  0.00  0.00    +0.000 OA
BRANCH  17  19
ATOM     18  C   UNL     1      51.078  12.131  14.445  0.00  0.00    +0.000 C 
ATOM     19  C   UNL     1      50.447  10.808  14.051  0.00  0.00    +0.000 C 
ENDBRANCH  17  19
ENDBRANCH   1  17
BRANCH   5  20
ATOM     20  C   UNL     1      48.406   6.885  12.149  0.00  0.00    +0.000 C 
BRANCH  20  21
ATOM     21  C   UNL     1      47.008   7.427  11.829  0.00  0.00    +0.000 C 
BRANCH  21  22
ATOM     22  C   UNL     1      45.995   6.310  11.898  0.00  0.00    +0.000 A 
ATOM     23  C   UNL     1      45.475   5.909  13.128  0.00  0.00    +0.000 A 
ATOM     24  C   UNL     1      44.663   4.780  13.205  0.00  0.00    +0.000 A 
ATOM     25  C   UNL     1      44.389   4.012  12.064  0.00  0.00    +0.000 A 
ATOM     26 CL   UNL     1      43.459   2.580  12.347  0.00  0.00    +0.000 Cl
ATOM     27  C   UNL     1      44.887   4.408  10.813  0.00  0.00    +0.000 A 
ATOM     28  C   UNL     1      45.661   5.585  10.745  0.00  0.00    +0.000 A 
BRANCH  27  29
ATOM     29  C   UNL     1      44.743   3.665   9.522  0.00  0.00    +0.000 C 
ATOM     30  N   UNL     1      44.218   4.301   8.437  0.00  0.00    +0.000 N 
ATOM     31  O   UNL     1      45.058   2.483   9.427  0.00  0.00    +0.000 OA
ATOM     32  H   UNL     1      43.913   5.265   8.453  0.00  0.00    +0.000 HD
ATOM     33  H   UNL     1      44.079   3.764   7.592  0.00  0.00    +0.000 HD
ENDBRANCH  27  29
ENDBRANCH  21  22
ENDBRANCH  20  21
ENDBRANCH   5  20
TORSDOF 9
ENDMDL
MODEL 9
REMARK VINA RESULT:    -6.576      3.533      7.334
REMARK INTER + INTRA:         -10.860
REMARK INTER:                  -9.667
REMARK INTRA:                  -1.193
REMARK UNBOUND:                -1.016
REMARK  Name = 
REMARK  10 active torsions:
REMARK  status: ('A' for Active; 'I' for Inactive)
REMARK    1  A    between atoms: C_1  and  C_2
REMARK    2  A    between atoms: C_2  and  O_3
REMARK    3  A    between atoms: O_3  and  C_4
REMARK    4  A    between atoms: C_6  and  C_7
REMARK    5  A    between atoms: C_9  and  O_10
REMARK    6  A    between atoms: C_12  and  C_13
REMARK    7  A    between atoms: C_17  and  C_18
REMARK    8  A    between atoms: C_18  and  C_19
REMARK    9  A    between atoms: C_19  and  C_20
REMARK   10  A    between atoms: C_25  and  C_26
REMARK                            x       y       z     vdW  Elec       q    Type
REMARK                         _______ _______ _______ _____ _____    ______ ____
ROOT
ATOM      1  C   UNL     1      48.981   7.312  13.803  0.00  0.00    +0.000 A 
ATOM      2  C   UNL     1      47.855   6.565  13.562  0.00  0.00    +0.000 A 
ATOM      3  C   UNL     1      47.012   7.039  12.578  0.00  0.00    +0.000 A 
ATOM      4  N   UNL     1      47.263   8.197  11.930  0.00  0.00    +0.000 NA
ATOM      5  C   UNL     1      48.358   8.889  12.286  0.00  0.00    +0.000 A 
ATOM      6  N   UNL     1      49.254   8.471  13.191  0.00  0.00    +0.000 NA
ENDROOT
BRANCH   3   7
ATOM      7  C   UNL     1      45.822   6.298  12.111  0.00  0.00    +0.000 A 
ATOM      8  C   UNL     1      44.675   6.149  12.911  0.00  0.00    +0.000 A 
ATOM      9  C   UNL     1      43.602   5.376  12.472  0.00  0.00    +0.000 A 
ATOM     10  C   UNL     1      43.626   4.747  11.231  0.00  0.00    +0.000 A 
ATOM     11  C   UNL     1      44.739   4.906  10.406  0.00  0.00    +0.000 A 
ATOM     12  C   UNL     1      45.820   5.682  10.842  0.00  0.00    +0.000 A 
BRANCH   9  13
ATOM     13  O   UNL     1      42.495   5.195  13.247  0.00  0.00    +0.000 OA
ATOM     14  H   UNL     1      41.748   4.927  12.686  0.00  0.00    +0.000 HD
ENDBRANCH   9  13
BRANCH  11  15
ATOM     15  C   UNL     1      44.789   4.255   9.133  0.00  0.00    +0.000 C 
ATOM     16  N   UNL     1      44.835   3.714   8.103  0.00  0.00    +0.000 NA
ENDBRANCH  11  15
ENDBRANCH   3   7
BRANCH   1  17
ATOM     17  O   UNL     1      49.853   6.831  14.762  0.00  0.00    +0.000 OA
BRANCH  17  19
ATOM     18  C   UNL     1      49.899   5.762  16.903  0.00  0.00    +0.000 C 
ATOM     19  C   UNL     1      49.288   6.878  16.075  0.00  0.00    +0.000 C 
ENDBRANCH  17  19
ENDBRANCH   1  17
BRANCH   5  20
ATOM     20  C   UNL     1      48.647  10.184  11.586  0.00  0.00    +0.000 C 
BRANCH  20  21
ATOM     21  C   UNL     1      47.730  11.329  12.032  0.00  0.00    +0.000 C 
BRANCH  21  22
ATOM     22  C   UNL     1      46.556  11.444  11.090  0.00  0.00    +0.000 A 
ATOM     23  C   UNL     1      46.681  12.156   9.897  0.00  0.00    +0.000 A 
ATOM     24  C   UNL     1      45.558  12.394   9.108  0.00  0.00    +0.000 A 
ATOM     25  C   UNL     1      44.288  11.957   9.514  0.00  0.00    +0.000 A 
ATOM     26 CL   UNL     1      42.983  12.427   8.479  0.00  0.00    +0.000 Cl
ATOM     27  C   UNL     1      44.143  11.223  10.702  0.00  0.00    +0.000 A 
ATOM     28  C   UNL     1      45.299  10.945  11.459  0.00  0.00    +0.000 A 
BRANCH  27  29
ATOM     29  C   UNL     1      42.857  10.751  11.304  0.00  0.00    +0.000 C 
ATOM     30  N   UNL     1      42.345   9.545  10.930  0.00  0.00    +0.000 N 
ATOM     31  O   UNL     1      42.236  11.441  12.106  0.00  0.00    +0.000 OA
ATOM     32  H   UNL     1      42.791   8.938  10.254  0.00  0.00    +0.000 HD
ATOM     33  H   UNL     1      41.448   9.271  11.308  0.00  0.00    +0.000 HD
ENDBRANCH  27  29
ENDBRANCH  21  22
ENDBRANCH  20  21
ENDBRANCH   5  20
TORSDOF 9
ENDMDL
