MODEL 1
REMARK VINA RESULT:    -8.400      0.000      0.000
REMARK INTER + INTRA:         -11.854
REMARK INTER:                 -10.855
REMARK INTRA:                  -0.998
REMARK UNBOUND:                -0.998
REMARK  Name = 
REMARK  5 active torsions:
REMARK  status: ('A' for Active; 'I' for Inactive)
REMARK    1  A    between atoms: C_2  and  C_19
REMARK    2  A    between atoms: N_3  and  C_4
REMARK    3  A    between atoms: C_4  and  C_5
REMARK    4  A    between atoms: C_8  and  C_9
REMARK    5  A    between atoms: C_9  and  N_10
REMARK                            x       y       z     vdW  Elec       q    Type
REMARK                         _______ _______ _______ _____ _____    ______ ____
ROOT
ATOM      1  C   UNL     1      46.818   8.262  13.182  0.00  0.00    +0.000 C 
ENDROOT
BRANCH   1   2
ATOM      2  C   UNL     1      46.078   7.172  12.434  0.00  0.00    +0.000 A 
ATOM      3  N   UNL     1      46.611   6.717  11.285  0.00  0.00    +0.000 NA
ATOM      4  C   UNL     1      45.922   5.759  10.635  0.00  0.00    +0.000 A 
ATOM      5  C   UNL     1      44.716   5.249  11.069  0.00  0.00    +0.000 A 
ATOM      6  C   UNL     1      44.237   5.811  12.234  0.00  0.00    +0.000 A 
ATOM      7  N   UNL     1      44.880   6.779  12.922  0.00  0.00    +0.000 NA
BRANCH   5   8
ATOM      8  C   UNL     1      44.003   4.159  10.337  0.00  0.00    +0.000 C 
BRANCH   8   9
ATOM      9  N   UNL     1      44.156   4.337   8.907  0.00  0.00    +0.000 N 
ATOM     10  C   UNL     1      45.079   3.465   8.341  0.00  0.00    +0.000 A 
ATOM     11  N   UNL     1      45.238   2.234   8.853  0.00  0.00    +0.000 NA
ATOM     12  C   UNL     1      46.150   1.443   8.269  0.00  0.00    +0.000 A 
ATOM     13  C   UNL     1      46.914   1.828   7.196  0.00  0.00    +0.000 A 
ATOM     14  C   UNL     1      46.680   3.105   6.748  0.00  0.00    +0.000 A 
ATOM     15  N   UNL     1      45.783   3.939   7.307  0.00  0.00    +0.000 NA
ATOM     16  H   UNL     1      44.413   5.264   8.590  0.00  0.00    +0.000 HD
ENDBRANCH   8   9
ENDBRANCH   5   8
ENDBRANCH   1   2
BRANCH   1  19
ATOM     17  O   UNL     1      49.271   6.855  13.611  0.00  0.00    +0.000 OA
ATOM     18  C   UNL     1      48.494   7.057  14.540  0.00  0.00    +0.000 C 
ATOM     19  N   UNL     1      47.340   7.785  14.443  0.00  0.00    +0.000 N 
ATOM     20  H   UNL     1      46.652   7.700  15.181  0.00  0.00    +0.000 HD
BRANCH  18  21
ATOM     21  C   UNL     1      48.585   6.378  15.824  0.00  0.00    +0.000 A 
ATOM     22  C   UNL     1      49.148   6.957  16.946  0.00  0.00    +0.000 A 
ATOM     23  S   UNL     1      49.618   5.775  18.100  0.00  0.00    +0.000 S 
ATOM     24  C   UNL     1      48.945   4.514  17.169  0.00  0.00    +0.000 A 
ATOM     25  N   UNL     1      49.106   3.201  17.483  0.00  0.00    +0.000 NA
ATOM     26  C   UNL     1      48.479   2.388  16.694  0.00  0.00    +0.000 A 
ATOM     27  N   UNL     1      47.666   2.767  15.655  0.00  0.00    +0.000 N 
ATOM     28  C   UNL     1      47.452   4.082  15.317  0.00  0.00    +0.000 A 
ATOM     29  O   UNL     1      46.641   4.411  14.459  0.00  0.00    +0.000 OA
ATOM     30  C   UNL     1      48.250   5.012  16.088  0.00  0.00    +0.000 A 
ATOM     31  H   UNL     1      47.125   2.087  15.139  0.00  0.00    +0.000 HD
ENDBRANCH  18  21
ENDBRANCH   1  19
TORSDOF 5
ENDMDL
MODEL 2
REMARK VINA RESULT:    -7.943      1.467      1.619
REMARK INTER + INTRA:         -11.263
REMARK INTER:                 -10.418
REMARK INTRA:                  -0.845
REMARK UNBOUND:                -0.998
REMARK  Name = 
REMARK  5 active torsions:
REMARK  status: ('A' for Active; 'I' for Inactive)
REMARK    1  A    between atoms: C_2  and  C_19
REMARK    2  A    between atoms: N_3  and  C_4
REMARK    3  A    between atoms: C_4  and  C_5
REMARK    4  A    between atoms: C_8  and  C_9
REMARK    5  A    between atoms: C_9  and  N_10
REMARK                            x       y       z     vdW  Elec       q    Type
REMARK                         _______ _______ _______ _____ _____    ______ ____
ROOT
ATOM      1  C   UNL     1      47.893   7.313  14.021  0.00  0.00    +0.000 C 
ENDROOT
BRANCH   1   2
ATOM      2  C   UNL     1      46.919   6.522  13.172  0.00  0.00    +0.000 A 
ATOM      3  N   UNL     1      46.333   7.145  12.132  0.00  0.00    +0.000 NA
ATOM      4  C   UNL     1      45.460   6.420  11.405  0.00  0.00    +0.000 A 
ATOM      5  C   UNL     1      45.131   5.110  11.681  0.00  0.00    +0.000 A 
ATOM      6  C   UNL     1      45.755   4.578  12.789  0.00  0.00    +0.000 A 
ATOM      7  N   UNL     1      46.630   5.260  13.559  0.00  0.00    +0.000 NA
BRANCH   5   8
ATOM      8  C   UNL     1      44.185   4.330  10.825  0.00  0.00    +0.000 C 
BRANCH   8   9
ATOM      9  N   UNL     1      44.364   4.687   9.433  0.00  0.00    +0.000 N 
ATOM     10  C   UNL     1      45.178   3.800   8.739  0.00  0.00    +0.000 A 
ATOM     11  N   UNL     1      45.188   2.499   9.072  0.00  0.00    +0.000 NA
ATOM     12  C   UNL     1      46.002   1.695   8.372  0.00  0.00    +0.000 A 
ATOM     13  C   UNL     1      46.810   2.133   7.354  0.00  0.00    +0.000 A 
ATOM     14  C   UNL     1      46.731   3.479   7.091  0.00  0.00    +0.000 A 
ATOM     15  N   UNL     1      45.937   4.326   7.772  0.00  0.00    +0.000 NA
ATOM     16  H   UNL     1      44.730   5.612   9.245  0.00  0.00    +0.000 HD
ENDBRANCH   8   9
ENDBRANCH   5   8
ENDBRANCH   1   2
BRANCH   1  19
ATOM     17  O   UNL     1      48.570   8.190  16.658  0.00  0.00    +0.000 OA
ATOM     18  C   UNL     1      48.799   7.037  16.304  0.00  0.00    +0.000 C 
ATOM     19  N   UNL     1      48.440   6.511  15.093  0.00  0.00    +0.000 N 
ATOM     20  H   UNL     1      48.872   5.645  14.796  0.00  0.00    +0.000 HD
BRANCH  18  21
ATOM     21  C   UNL     1      49.666   6.129  17.038  0.00  0.00    +0.000 A 
ATOM     22  C   UNL     1      50.886   6.510  17.566  0.00  0.00    +0.000 A 
ATOM     23  S   UNL     1      51.900   5.156  17.860  0.00  0.00    +0.000 S 
ATOM     24  C   UNL     1      50.666   4.063  17.420  0.00  0.00    +0.000 A 
ATOM     25  N   UNL     1      50.877   2.725  17.299  0.00  0.00    +0.000 NA
ATOM     26  C   UNL     1      49.813   2.046  17.011  0.00  0.00    +0.000 A 
ATOM     27  N   UNL     1      48.552   2.573  16.884  0.00  0.00    +0.000 N 
ATOM     28  C   UNL     1      48.286   3.914  17.025  0.00  0.00    +0.000 A 
ATOM     29  O   UNL     1      47.143   4.356  17.018  0.00  0.00    +0.000 OA
ATOM     30  C   UNL     1      49.474   4.720  17.206  0.00  0.00    +0.000 A 
ATOM     31  H   UNL     1      47.746   1.976  16.758  0.00  0.00    +0.000 HD
ENDBRANCH  18  21
ENDBRANCH   1  19
TORSDOF 5
ENDMDL
MODEL 3
REMARK VINA RESULT:    -7.879      1.303      1.598
REMARK INTER + INTRA:         -11.180
REMARK INTER:                 -10.405
REMARK INTRA:                  -0.775
REMARK UNBOUND:                -0.998
REMARK  Name = 
REMARK  5 active torsions:
REMARK  status: ('A' for Active; 'I' for Inactive)
REMARK    1  A    between atoms: C_2  and  C_19
REMARK    2  A    between atoms: N_3  and  C_4
REMARK    3  A    between atoms: C_4  and  C_5
REMARK    4  A    between atoms: C_8  and  C_9
REMARK    5  A    between atoms: C_9  and  N_10
REMARK                            x       y       z     vdW  Elec       q    Type
REMARK                         _______ _______ _______ _____ _____    ______ ____
ROOT
ATOM      1  C   UNL     1      48.294   6.817  13.213  0.00  0.00    +0.000 C 
ENDROOT
BRANCH   1   2
ATOM      2  C   UNL     1      47.121   6.170  12.505  0.00  0.00    +0.000 A 
ATOM      3  N   UNL     1      46.569   5.076  13.062  0.00  0.00    +0.000 NA
ATOM      4  C   UNL     1      45.539   4.514  12.401  0.00  0.00    +0.000 A 
ATOM      5  C   UNL     1      45.048   4.981  11.201  0.00  0.00    +0.000 A 
ATOM      6  C   UNL     1      45.708   6.081  10.695  0.00  0.00    +0.000 A 
ATOM      7  N   UNL     1      46.752   6.679  11.309  0.00  0.00    +0.000 NA
BRANCH   5   8
ATOM      8  C   UNL     1      43.877   4.349  10.519  0.00  0.00    +0.000 C 
BRANCH   8   9
ATOM      9  N   UNL     1      44.008   4.480   9.082  0.00  0.00    +0.000 N 
ATOM     10  C   UNL     1      44.900   3.570   8.527  0.00  0.00    +0.000 A 
ATOM     11  N   UNL     1      45.041   2.352   9.073  0.00  0.00    +0.000 NA
ATOM     12  C   UNL     1      45.924   1.522   8.498  0.00  0.00    +0.000 A 
ATOM     13  C   UNL     1      46.676   1.857   7.400  0.00  0.00    +0.000 A 
ATOM     14  C   UNL     1      46.463   3.125   6.917  0.00  0.00    +0.000 A 
ATOM     15  N   UNL     1      45.595   3.996   7.466  0.00  0.00    +0.000 NA
ATOM     16  H   UNL     1      44.280   5.391   8.732  0.00  0.00    +0.000 HD
ENDBRANCH   8   9
ENDBRANCH   5   8
ENDBRANCH   1   2
BRANCH   1  19
ATOM     17  O   UNL     1      50.268   7.074  15.267  0.00  0.00    +0.000 OA
ATOM     18  C   UNL     1      49.078   6.980  15.551  0.00  0.00    +0.000 C 
ATOM     19  N   UNL     1      48.062   6.932  14.636  0.00  0.00    +0.000 N 
ATOM     20  H   UNL     1      47.150   6.618  14.942  0.00  0.00    +0.000 HD
BRANCH  18  21
ATOM     21  C   UNL     1      48.593   6.699  16.894  0.00  0.00    +0.000 A 
ATOM     22  C   UNL     1      48.425   7.676  17.857  0.00  0.00    +0.000 A 
ATOM     23  S   UNL     1      48.396   7.009  19.438  0.00  0.00    +0.000 S 
ATOM     24  C   UNL     1      48.466   5.417  18.831  0.00  0.00    +0.000 A 
ATOM     25  N   UNL     1      48.619   4.329  19.633  0.00  0.00    +0.000 NA
ATOM     26  C   UNL     1      48.595   3.199  19.002  0.00  0.00    +0.000 A 
ATOM     27  N   UNL     1      48.381   3.053  17.654  0.00  0.00    +0.000 N 
ATOM     28  C   UNL     1      48.195   4.121  16.808  0.00  0.00    +0.000 A 
ATOM     29  O   UNL     1      47.897   3.974  15.629  0.00  0.00    +0.000 OA
ATOM     30  C   UNL     1      48.357   5.404  17.457  0.00  0.00    +0.000 A 
ATOM     31  H   UNL     1      48.275   2.139  17.237  0.00  0.00    +0.000 HD
ENDBRANCH  18  21
ENDBRANCH   1  19
TORSDOF 5
ENDMDL
MODEL 4
REMARK VINA RESULT:    -7.541      2.970      5.057
REMARK INTER + INTRA:         -10.744
REMARK INTER:                  -9.778
REMARK INTRA:                  -0.966
REMARK UNBOUND:                -0.998
REMARK  Name = 
REMARK  5 active torsions:
REMARK  status: ('A' for Active; 'I' for Inactive)
REMARK    1  A    between atoms: C_2  and  C_19
REMARK    2  A    between atoms: N_3  and  C_4
REMARK    3  A    between atoms: C_4  and  C_5
REMARK    4  A    between atoms: C_8  and  C_9
REMARK    5  A    between atoms: C_9  and  N_10
REMARK                            x       y       z     vdW  Elec       q    Type
REMARK                         _______ _______ _______ _____ _____    ______ ____
ROOT
ATOM      1  C   UNL     1      47.327   6.074  13.841  0.00  0.00    +0.000 C 
ENDROOT
BRANCH   1   2
ATOM      2  C   UNL     1      46.484   5.227  12.910  0.00  0.00    +0.000 A 
ATOM      3  N   UNL     1      46.054   5.782  11.761  0.00  0.00    +0.000 NA
ATOM      4  C   UNL     1      45.293   5.009  10.963  0.00  0.00    +0.000 A 
ATOM      5  C   UNL     1      44.926   3.715  11.267  0.00  0.00    +0.000 A 
ATOM      6  C   UNL     1      45.383   3.255  12.483  0.00  0.00    +0.000 A 
ATOM      7  N   UNL     1      46.140   3.988  13.328  0.00  0.00    +0.000 NA
BRANCH   5   8
ATOM      8  C   UNL     1      44.111   2.878  10.333  0.00  0.00    +0.000 C 
BRANCH   8   9
ATOM      9  N   UNL     1      44.208   3.399   8.985  0.00  0.00    +0.000 N 
ATOM     10  C   UNL     1      45.275   2.870   8.268  0.00  0.00    +0.000 A 
ATOM     11  N   UNL     1      45.678   1.610   8.498  0.00  0.00    +0.000 NA
ATOM     12  C   UNL     1      46.718   1.160   7.781  0.00  0.00    +0.000 A 
ATOM     13  C   UNL     1      47.378   1.916   6.846  0.00  0.00    +0.000 A 
ATOM     14  C   UNL     1      46.895   3.191   6.686  0.00  0.00    +0.000 A 
ATOM     15  N   UNL     1      45.860   3.690   7.388  0.00  0.00    +0.000 NA
ATOM     16  H   UNL     1      44.276   4.405   8.891  0.00  0.00    +0.000 HD
ENDBRANCH   8   9
ENDBRANCH   5   8
ENDBRANCH   1   2
BRANCH   1  19
ATOM     17  O   UNL     1      48.099   8.561  15.025  0.00  0.00    +0.000 OA
ATOM     18  C   UNL     1      48.148   8.405  13.808  0.00  0.00    +0.000 C 
ATOM     19  N   UNL     1      47.873   7.230  13.164  0.00  0.00    +0.000 N 
ATOM     20  H   UNL     1      47.706   7.254  12.166  0.00  0.00    +0.000 HD
BRANCH  18  21
ATOM     21  C   UNL     1      48.304   9.501  12.864  0.00  0.00    +0.000 A 
ATOM     22  C   UNL     1      49.536   9.995  12.475  0.00  0.00    +0.000 A 
ATOM     23  S   UNL     1      49.408  11.582  11.834  0.00  0.00    +0.000 S 
ATOM     24  C   UNL     1      47.706  11.553  11.945  0.00  0.00    +0.000 A 
ATOM     25  N   UNL     1      46.934  12.645  11.699  0.00  0.00    +0.000 NA
ATOM     26  C   UNL     1      45.662  12.421  11.778  0.00  0.00    +0.000 A 
ATOM     27  N   UNL     1      45.089  11.199  12.028  0.00  0.00    +0.000 N 
ATOM     28  C   UNL     1      45.829  10.063  12.256  0.00  0.00    +0.000 A 
ATOM     29  O   UNL     1      45.308   8.959  12.370  0.00  0.00    +0.000 OA
ATOM     30  C   UNL     1      47.254  10.306  12.316  0.00  0.00    +0.000 A 
ATOM     31  H   UNL     1      44.089  11.070  11.978  0.00  0.00    +0.000 HD
ENDBRANCH  18  21
ENDBRANCH   1  19
TORSDOF 5
ENDMDL
MODEL 5
REMARK VINA RESULT:    -7.428      2.441      3.315
REMARK INTER + INTRA:         -10.598
REMARK INTER:                  -9.705
REMARK INTRA:                  -0.892
REMARK UNBOUND:                -0.998
REMARK  Name = 
REMARK  5 active torsions:
REMARK  status: ('A' for Active; 'I' for Inactive)
REMARK    1  A    between atoms: C_2  and  C_19
REMARK    2  A    between atoms: N_3  and  C_4
REMARK    3  A    between atoms: C_4  and  C_5
REMARK    4  A    between atoms: C_8  and  C_9
REMARK    5  A    between atoms: C_9  and  N_10
REMARK                            x       y       z     vdW  Elec       q    Type
REMARK                         _______ _______ _______ _____ _____    ______ ____
ROOT
ATOM      1  C   UNL     1      47.729   4.985  14.641  0.00  0.00    +0.000 C 
ENDROOT
BRANCH   1   2
ATOM      2  C   UNL     1      46.639   4.780  13.610  0.00  0.00    +0.000 A 
ATOM      3  N   UNL     1      46.250   3.519  13.340  0.00  0.00    +0.000 NA
ATOM      4  C   UNL     1      45.290   3.368  12.407  0.00  0.00    +0.000 A 
ATOM      5  C   UNL     1      44.716   4.415  11.717  0.00  0.00    +0.000 A 
ATOM      6  C   UNL     1      45.213   5.660  12.037  0.00  0.00    +0.000 A 
ATOM      7  N   UNL     1      46.180   5.871  12.956  0.00  0.00    +0.000 NA
BRANCH   5   8
ATOM      8  C   UNL     1      43.626   4.206  10.715  0.00  0.00    +0.000 C 
BRANCH   8   9
ATOM      9  N   UNL     1      44.032   4.721   9.423  0.00  0.00    +0.000 N 
ATOM     10  C   UNL     1      44.929   3.893   8.759  0.00  0.00    +0.000 A 
ATOM     11  N   UNL     1      44.860   2.562   8.924  0.00  0.00    +0.000 NA
ATOM     12  C   UNL     1      45.759   1.817   8.263  0.00  0.00    +0.000 A 
ATOM     13  C   UNL     1      46.728   2.343   7.447  0.00  0.00    +0.000 A 
ATOM     14  C   UNL     1      46.719   3.713   7.346  0.00  0.00    +0.000 A 
ATOM     15  N   UNL     1      45.843   4.503   7.996  0.00  0.00    +0.000 NA
ATOM     16  H   UNL     1      44.442   5.647   9.413  0.00  0.00    +0.000 HD
ENDBRANCH   8   9
ENDBRANCH   5   8
ENDBRANCH   1   2
BRANCH   1  19
ATOM     17  O   UNL     1      49.980   6.737  14.861  0.00  0.00    +0.000 OA
ATOM     18  C   UNL     1      48.878   7.077  15.283  0.00  0.00    +0.000 C 
ATOM     19  N   UNL     1      47.734   6.338  15.151  0.00  0.00    +0.000 N 
ATOM     20  H   UNL     1      46.937   6.576  15.727  0.00  0.00    +0.000 HD
BRANCH  18  21
ATOM     21  C   UNL     1      48.673   8.217  16.164  0.00  0.00    +0.000 A 
ATOM     22  C   UNL     1      48.610   9.521  15.709  0.00  0.00    +0.000 A 
ATOM     23  S   UNL     1      48.925  10.646  16.967  0.00  0.00    +0.000 S 
ATOM     24  C   UNL     1      49.005   9.406  18.135  0.00  0.00    +0.000 A 
ATOM     25  N   UNL     1      49.386   9.630  19.421  0.00  0.00    +0.000 NA
ATOM     26  C   UNL     1      49.334   8.581  20.178  0.00  0.00    +0.000 A 
ATOM     27  N   UNL     1      48.887   7.344  19.784  0.00  0.00    +0.000 N 
ATOM     28  C   UNL     1      48.466   7.078  18.502  0.00  0.00    +0.000 A 
ATOM     29  O   UNL     1      47.968   6.002  18.191  0.00  0.00    +0.000 OA
ATOM     30  C   UNL     1      48.646   8.190  17.595  0.00  0.00    +0.000 A 
ATOM     31  H   UNL     1      48.776   6.592  20.448  0.00  0.00    +0.000 HD
ENDBRANCH  18  21
ENDBRANCH   1  19
TORSDOF 5
ENDMDL
MODEL 6
REMARK VINA RESULT:    -7.072      2.883      8.026
REMARK INTER + INTRA:         -10.137
REMARK INTER:                  -9.290
REMARK INTRA:                  -0.848
REMARK UNBOUND:                -0.998
REMARK  Name = 
REMARK  5 active torsions:
REMARK  status: ('A' for Active; 'I' for Inactive)
REMARK    1  A    between atoms: C_2  and  C_19
REMARK    2  A    between atoms: N_3  and  C_4
REMARK    3  A    between atoms: C_4  and  C_5
REMARK    4  A    between atoms: C_8  and  C_9
REMARK    5  A    between atoms: C_9  and  N_10
REMARK                            x       y       z     vdW  Elec       q    Type
REMARK                         _______ _______ _______ _____ _____    ______ ____
ROOT
ATOM      1  C   UNL     1      47.828   6.705  12.709  0.00  0.00    +0.000 C 
ENDROOT
BRANCH   1   2
ATOM      2  C   UNL     1      48.065   6.235  14.130  0.00  0.00    +0.000 A 
ATOM      3  N   UNL     1      47.504   5.074  14.517  0.00  0.00    +0.000 NA
ATOM      4  C   UNL     1      47.719   4.692  15.790  0.00  0.00    +0.000 A 
ATOM      5  C   UNL     1      48.452   5.424  16.700  0.00  0.00    +0.000 A 
ATOM      6  C   UNL     1      48.949   6.615  16.217  0.00  0.00    +0.000 A 
ATOM      7  N   UNL     1      48.757   7.054  14.954  0.00  0.00    +0.000 NA
BRANCH   5   8
ATOM      8  C   UNL     1      48.699   4.943  18.095  0.00  0.00    +0.000 C 
BRANCH   8   9
ATOM      9  N   UNL     1      48.848   3.503  18.105  0.00  0.00    +0.000 N 
ATOM     10  C   UNL     1      50.172   3.087  18.020  0.00  0.00    +0.000 A 
ATOM     11  N   UNL     1      51.145   3.835  18.564  0.00  0.00    +0.000 NA
ATOM     12  C   UNL     1      52.403   3.386  18.441  0.00  0.00    +0.000 A 
ATOM     13  C   UNL     1      52.733   2.222  17.793  0.00  0.00    +0.000 A 
ATOM     14  C   UNL     1      51.670   1.531  17.267  0.00  0.00    +0.000 A 
ATOM     15  N   UNL     1      50.392   1.946  17.358  0.00  0.00    +0.000 NA
ATOM     16  H   UNL     1      48.345   2.989  17.392  0.00  0.00    +0.000 HD
ENDBRANCH   8   9
ENDBRANCH   5   8
ENDBRANCH   1   2
BRANCH   1  19
ATOM     17  O   UNL     1      45.430   7.506  11.372  0.00  0.00    +0.000 OA
ATOM     18  C   UNL     1      45.730   6.319  11.462  0.00  0.00    +0.000 C 
ATOM     19  N   UNL     1      46.891   5.851  12.014  0.00  0.00    +0.000 N 
ATOM     20  H   UNL     1      46.948   4.871  12.260  0.00  0.00    +0.000 HD
BRANCH  18  21
ATOM     21  C   UNL     1      44.803   5.233  11.183  0.00  0.00    +0.000 A 
ATOM     22  C   UNL     1      43.766   4.888  12.030  0.00  0.00    +0.000 A 
ATOM     23  S   UNL     1      43.221   3.286  11.745  0.00  0.00    +0.000 S 
ATOM     24  C   UNL     1      44.266   3.106  10.409  0.00  0.00    +0.000 A 
ATOM     25  N   UNL     1      44.435   1.922   9.761  0.00  0.00    +0.000 NA
ATOM     26  C   UNL     1      45.224   1.988   8.737  0.00  0.00    +0.000 A 
ATOM     27  N   UNL     1      45.817   3.135   8.271  0.00  0.00    +0.000 N 
ATOM     28  C   UNL     1      45.654   4.358   8.876  0.00  0.00    +0.000 A 
ATOM     29  O   UNL     1      46.098   5.391   8.389  0.00  0.00    +0.000 OA
ATOM     30  C   UNL     1      44.893   4.295  10.105  0.00  0.00    +0.000 A 
ATOM     31  H   UNL     1      46.342   3.138   7.408  0.00  0.00    +0.000 HD
ENDBRANCH  18  21
ENDBRANCH   1  19
TORSDOF 5
ENDMDL
MODEL 7
REMARK VINA RESULT:    -7.016      2.756      4.185
REMARK INTER + INTRA:         -10.065
REMARK INTER:                  -9.092
REMARK INTRA:                  -0.973
REMARK UNBOUND:                -0.998
REMARK  Name = 
REMARK  5 active torsions:
REMARK  status: ('A' for Active; 'I' for Inactive)
REMARK    1  A    between atoms: C_2  and  C_19
REMARK    2  A    between atoms: N_3  and  C_4
REMARK    3  A    between atoms: C_4  and  C_5
REMARK    4  A    between atoms: C_8  and  C_9
REMARK    5  A    between atoms: C_9  and  N_10
REMARK                            x       y       z     vdW  Elec       q    Type
REMARK                         _______ _______ _______ _____ _____    ______ ____
ROOT
ATOM      1  C   UNL     1      47.288   5.711  14.473  0.00  0.00    +0.000 C 
ENDROOT
BRANCH   1   2
ATOM      2  C   UNL     1      46.383   5.057  13.449  0.00  0.00    +0.000 A 
ATOM      3  N   UNL     1      46.334   3.713  13.411  0.00  0.00    +0.000 NA
ATOM      4  C   UNL     1      45.532   3.161  12.479  0.00  0.00    +0.000 A 
ATOM      5  C   UNL     1      44.793   3.890  11.572  0.00  0.00    +0.000 A 
ATOM      6  C   UNL     1      44.944   5.257  11.668  0.00  0.00    +0.000 A 
ATOM      7  N   UNL     1      45.740   5.864  12.575  0.00  0.00    +0.000 NA
BRANCH   5   8
ATOM      8  C   UNL     1      43.885   3.238  10.578  0.00  0.00    +0.000 C 
BRANCH   8   9
ATOM      9  N   UNL     1      44.071   3.832   9.271  0.00  0.00    +0.000 N 
ATOM     10  C   UNL     1      45.112   3.259   8.550  0.00  0.00    +0.000 A 
ATOM     11  N   UNL     1      45.398   1.956   8.707  0.00  0.00    +0.000 NA
ATOM     12  C   UNL     1      46.419   1.464   7.990  0.00  0.00    +0.000 A 
ATOM     13  C   UNL     1      47.172   2.217   7.125  0.00  0.00    +0.000 A 
ATOM     14  C   UNL     1      46.805   3.537   7.037  0.00  0.00    +0.000 A 
ATOM     15  N   UNL     1      45.794   4.079   7.742  0.00  0.00    +0.000 NA
ATOM     16  H   UNL     1      44.228   4.833   9.245  0.00  0.00    +0.000 HD
ENDBRANCH   8   9
ENDBRANCH   5   8
ENDBRANCH   1   2
BRANCH   1  19
ATOM     17  O   UNL     1      49.406   6.563  12.749  0.00  0.00    +0.000 OA
ATOM     18  C   UNL     1      48.699   7.384  13.325  0.00  0.00    +0.000 C 
ATOM     19  N   UNL     1      47.619   7.069  14.104  0.00  0.00    +0.000 N 
ATOM     20  H   UNL     1      47.247   7.778  14.723  0.00  0.00    +0.000 HD
BRANCH  18  21
ATOM     21  C   UNL     1      49.032   8.797  13.430  0.00  0.00    +0.000 A 
ATOM     22  C   UNL     1      48.813   9.703  12.409  0.00  0.00    +0.000 A 
ATOM     23  S   UNL     1      49.784  11.107  12.588  0.00  0.00    +0.000 S 
ATOM     24  C   UNL     1      50.387  10.569  14.091  0.00  0.00    +0.000 A 
ATOM     25  N   UNL     1      51.384  11.212  14.756  0.00  0.00    +0.000 NA
ATOM     26  C   UNL     1      51.672  10.691  15.906  0.00  0.00    +0.000 A 
ATOM     27  N   UNL     1      51.024   9.623  16.474  0.00  0.00    +0.000 N 
ATOM     28  C   UNL     1      49.993   8.960  15.851  0.00  0.00    +0.000 A 
ATOM     29  O   UNL     1      49.351   8.080  16.413  0.00  0.00    +0.000 OA
ATOM     30  C   UNL     1      49.740   9.425  14.505  0.00  0.00    +0.000 A 
ATOM     31  H   UNL     1      51.230   9.328  17.417  0.00  0.00    +0.000 HD
ENDBRANCH  18  21
ENDBRANCH   1  19
TORSDOF 5
ENDMDL
MODEL 8
REMARK VINA RESULT:    -6.941      3.027      7.724
REMARK INTER + INTRA:          -9.968
REMARK INTER:                  -9.224
REMARK INTRA:                  -0.744
REMARK UNBOUND:                -0.998
REMARK  Name = 
REMARK  5 active torsions:
REMARK  status: ('A' for Active; 'I' for Inactive)
REMARK    1  A    between atoms: C_2  and  C_19
REMARK    2  A    between atoms: N_3  and  C_4
REMARK    3  A    between atoms: C_4  and  C_5
REMARK    4  A    between atoms: C_8  and  C_9
REMARK    5  A    between atoms: C_9  and  N_10
REMARK                            x       y       z     vdW  Elec       q    Type
REMARK                         _______ _______ _______ _____ _____    ______ ____
ROOT
ATOM      1  C   UNL     1      47.645   8.244  12.702  0.00  0.00    +0.000 C 
ENDROOT
BRANCH   1   2
ATOM      2  C   UNL     1      48.291   7.607  13.915  0.00  0.00    +0.000 A 
ATOM      3  N   UNL     1      47.867   6.387  14.294  0.00  0.00    +0.000 NA
ATOM      4  C   UNL     1      48.449   5.854  15.385  0.00  0.00    +0.000 A 
ATOM      5  C   UNL     1      49.421   6.491  16.127  0.00  0.00    +0.000 A 
ATOM      6  C   UNL     1      49.756   7.752  15.680  0.00  0.00    +0.000 A 
ATOM      7  N   UNL     1      49.199   8.339  14.599  0.00  0.00    +0.000 NA
BRANCH   5   8
ATOM      8  C   UNL     1      50.069   5.848  17.311  0.00  0.00    +0.000 C 
BRANCH   8   9
ATOM      9  N   UNL     1      49.594   4.488  17.460  0.00  0.00    +0.000 N 
ATOM     10  C   UNL     1      50.618   3.563  17.626  0.00  0.00    +0.000 A 
ATOM     11  N   UNL     1      51.746   3.920  18.263  0.00  0.00    +0.000 NA
ATOM     12  C   UNL     1      52.701   2.986  18.384  0.00  0.00    +0.000 A 
ATOM     13  C   UNL     1      52.582   1.710  17.893  0.00  0.00    +0.000 A 
ATOM     14  C   UNL     1      51.395   1.444  17.255  0.00  0.00    +0.000 A 
ATOM     15  N   UNL     1      50.411   2.350  17.102  0.00  0.00    +0.000 NA
ATOM     16  H   UNL     1      49.007   4.128  16.716  0.00  0.00    +0.000 HD
ENDBRANCH   8   9
ENDBRANCH   5   8
ENDBRANCH   1   2
BRANCH   1  19
ATOM     17  O   UNL     1      44.923   7.637  12.065  0.00  0.00    +0.000 OA
ATOM     18  C   UNL     1      45.841   6.982  11.579  0.00  0.00    +0.000 C 
ATOM     19  N   UNL     1      47.170   7.249  11.766  0.00  0.00    +0.000 N 
ATOM     20  H   UNL     1      47.844   6.532  11.532  0.00  0.00    +0.000 HD
BRANCH  18  21
ATOM     21  C   UNL     1      45.648   5.707  10.906  0.00  0.00    +0.000 A 
ATOM     22  C   UNL     1      45.910   5.515   9.562  0.00  0.00    +0.000 A 
ATOM     23  S   UNL     1      45.084   4.142   8.945  0.00  0.00    +0.000 S 
ATOM     24  C   UNL     1      44.496   3.728  10.492  0.00  0.00    +0.000 A 
ATOM     25  N   UNL     1      43.593   2.732  10.693  0.00  0.00    +0.000 NA
ATOM     26  C   UNL     1      43.304   2.524  11.938  0.00  0.00    +0.000 A 
ATOM     27  N   UNL     1      43.871   3.183  13.000  0.00  0.00    +0.000 N 
ATOM     28  C   UNL     1      44.807   4.178  12.847  0.00  0.00    +0.000 A 
ATOM     29  O   UNL     1      45.385   4.682  13.803  0.00  0.00    +0.000 OA
ATOM     30  C   UNL     1      45.048   4.533  11.465  0.00  0.00    +0.000 A 
ATOM     31  H   UNL     1      43.677   2.906  13.952  0.00  0.00    +0.000 HD
ENDBRANCH  18  21
ENDBRANCH   1  19
TORSDOF 5
ENDMDL
MODEL 9
REMARK VINA RESULT:    -6.734      3.619      5.517
REMARK INTER + INTRA:          -9.700
REMARK INTER:                  -9.030
REMARK INTRA:                  -0.670
REMARK UNBOUND:                -0.998
REMARK  Name = 
REMARK  5 active torsions:
REMARK  status: ('A' for Active; 'I' for Inactive)
REMARK    1  A    between atoms: C_2  and  C_19
REMARK    2  A    between atoms: N_3  and  C_4
REMARK    3  A    between atoms: C_4  and  C_5
REMARK    4  A    between atoms: C_8  and  C_9
REMARK    5  A    between atoms: C_9  and  N_10
REMARK                            x       y       z     vdW  Elec       q    Type
REMARK                         _______ _______ _______ _____ _____    ______ ____
ROOT
ATOM      1  C   UNL     1      46.595   4.307  14.436  0.00  0.00    +0.000 C 
ENDROOT
BRANCH   1   2
ATOM      2  C   UNL     1      46.071   5.466  13.613  0.00  0.00    +0.000 A 
ATOM      3  N   UNL     1      44.814   5.389  13.136  0.00  0.00    +0.000 NA
ATOM      4  C   UNL     1      44.383   6.428  12.395  0.00  0.00    +0.000 A 
ATOM      5  C   UNL     1      45.154   7.530  12.092  0.00  0.00    +0.000 A 
ATOM      6  C   UNL     1      46.438   7.492  12.593  0.00  0.00    +0.000 A 
ATOM      7  N   UNL     1      46.927   6.474  13.333  0.00  0.00    +0.000 NA
BRANCH   5   8
ATOM      8  C   UNL     1      44.623   8.679  11.297  0.00  0.00    +0.000 C 
BRANCH   8   9
ATOM      9  N   UNL     1      43.201   8.514  11.073  0.00  0.00    +0.000 N 
ATOM     10  C   UNL     1      42.600   9.635  10.512  0.00  0.00    +0.000 A 
ATOM     11  N   UNL     1      43.294  10.416   9.669  0.00  0.00    +0.000 NA
ATOM     12  C   UNL     1      42.662  11.488   9.168  0.00  0.00    +0.000 A 
ATOM     13  C   UNL     1      41.366  11.817   9.476  0.00  0.00    +0.000 A 
ATOM     14  C   UNL     1      40.742  10.960  10.349  0.00  0.00    +0.000 A 
ATOM     15  N   UNL     1      41.338   9.878  10.884  0.00  0.00    +0.000 NA
ATOM     16  H   UNL     1      42.640   8.267  11.879  0.00  0.00    +0.000 HD
ENDBRANCH   8   9
ENDBRANCH   5   8
ENDBRANCH   1   2
BRANCH   1  19
ATOM     17  O   UNL     1      46.611   3.168  17.060  0.00  0.00    +0.000 OA
ATOM     18  C   UNL     1      47.241   4.193  16.818  0.00  0.00    +0.000 C 
ATOM     19  N   UNL     1      47.353   4.763  15.580  0.00  0.00    +0.000 N 
ATOM     20  H   UNL     1      47.682   5.718  15.515  0.00  0.00    +0.000 HD
BRANCH  18  21
ATOM     21  C   UNL     1      47.786   5.062  17.851  0.00  0.00    +0.000 A 
ATOM     22  C   UNL     1      46.996   5.752  18.752  0.00  0.00    +0.000 A 
ATOM     23  S   UNL     1      47.837   7.079  19.444  0.00  0.00    +0.000 S 
ATOM     24  C   UNL     1      49.285   6.650  18.652  0.00  0.00    +0.000 A 
ATOM     25  N   UNL     1      50.396   7.434  18.674  0.00  0.00    +0.000 NA
ATOM     26  C   UNL     1      51.417   6.922  18.064  0.00  0.00    +0.000 A 
ATOM     27  N   UNL     1      51.446   5.680  17.481  0.00  0.00    +0.000 N 
ATOM     28  C   UNL     1      50.357   4.841  17.458  0.00  0.00    +0.000 A 
ATOM     29  O   UNL     1      50.426   3.695  17.033  0.00  0.00    +0.000 OA
ATOM     30  C   UNL     1      49.158   5.440  18.005  0.00  0.00    +0.000 A 
ATOM     31  H   UNL     1      52.303   5.297  17.109  0.00  0.00    +0.000 HD
ENDBRANCH  18  21
ENDBRANCH   1  19
TORSDOF 5
ENDMDL
