MODEL 1
REMARK VINA RESULT:    -8.857      0.000      0.000
REMARK INTER + INTRA:         -12.552
REMARK INTER:                 -11.446
REMARK INTRA:                  -1.106
REMARK UNBOUND:                -1.106
REMARK  Name = 
REMARK  5 active torsions:
REMARK  status: ('A' for Active; 'I' for Inactive)
REMARK    1  A    between atoms: C_2  and  C_5
REMARK    2  A    between atoms: C_8  and  O_9
REMARK    3  A    between atoms: O_9  and  C_10
REMARK    4  A    between atoms: C_10  and  C_11
REMARK    5  A    between atoms: C_15  and  C_16
REMARK                            x       y       z     vdW  Elec       q    Type
REMARK                         _______ _______ _______ _____ _____    ______ ____
ROOT
ATOM      1  C   UNL     1      43.790   4.905  11.375  0.00  0.00    +0.000 C 
ATOM      2  C   UNL     1      42.520   5.389  12.062  0.00  0.00    +0.000 C 
ATOM      3  C   UNL     1      43.221   6.281  11.092  0.00  0.00    +0.000 C 
ENDROOT
BRANCH   1   4
ATOM      4  C   UNL     1      45.085   4.796  12.166  0.00  0.00    +0.000 A 
ATOM      5  C   UNL     1      45.391   3.680  12.946  0.00  0.00    +0.000 A 
ATOM      6  C   UNL     1      46.606   3.632  13.612  0.00  0.00    +0.000 A 
ATOM      7  N   UNL     1      47.534   4.611  13.572  0.00  0.00    +0.000 NA
ATOM      8  C   UNL     1      47.257   5.709  12.820  0.00  0.00    +0.000 A 
ATOM      9  C   UNL     1      46.056   5.810  12.114  0.00  0.00    +0.000 A 
BRANCH   8  10
ATOM     10  C   UNL     1      48.277   6.789  12.785  0.00  0.00    +0.000 A 
ATOM     11  C   UNL     1      48.337   7.728  11.753  0.00  0.00    +0.000 A 
ATOM     12  C   UNL     1      49.321   8.715  11.775  0.00  0.00    +0.000 A 
ATOM     13  C   UNL     1      50.231   8.748  12.825  0.00  0.00    +0.000 A 
ATOM     14  C   UNL     1      50.115   7.786  13.811  0.00  0.00    +0.000 A 
ATOM     15  N   UNL     1      49.170   6.821  13.816  0.00  0.00    +0.000 NA
ENDBRANCH   8  10
ENDBRANCH   1   4
BRANCH   1  16
ATOM     16  O   UNL     1      43.464   3.811  10.486  0.00  0.00    +0.000 OA
BRANCH  16  20
ATOM     17  C   UNL     1      46.206   2.640   7.646  0.00  0.00    +0.000 A 
ATOM     18  C   UNL     1      45.660   1.708   8.532  0.00  0.00    +0.000 A 
ATOM     19  C   UNL     1      44.738   2.129   9.483  0.00  0.00    +0.000 A 
ATOM     20  C   UNL     1      44.388   3.470   9.517  0.00  0.00    +0.000 A 
ATOM     21  N   UNL     1      44.873   4.393   8.665  0.00  0.00    +0.000 NA
ATOM     22  C   UNL     1      45.777   3.960   7.755  0.00  0.00    +0.000 A 
BRANCH  17  24
ATOM     23  F   UNL     1      46.918   2.726   5.364  0.00  0.00    +0.000 F 
ATOM     24  C   UNL     1      47.219   2.265   6.610  0.00  0.00    +0.000 C 
ATOM     25  F   UNL     1      47.359   0.916   6.483  0.00  0.00    +0.000 F 
ATOM     26  F   UNL     1      48.459   2.743   6.894  0.00  0.00    +0.000 F 
ENDBRANCH  17  24
ENDBRANCH  16  20
ENDBRANCH   1  16
TORSDOF 5
ENDMDL
MODEL 2
REMARK VINA RESULT:    -8.772      1.658      3.170
REMARK INTER + INTRA:         -12.443
REMARK INTER:                 -11.756
REMARK INTRA:                  -0.687
REMARK UNBOUND:                -1.106
REMARK  Name = 
REMARK  5 active torsions:
REMARK  status: ('A' for Active; 'I' for Inactive)
REMARK    1  A    between atoms: C_2  and  C_5
REMARK    2  A    between atoms: C_8  and  O_9
REMARK    3  A    between atoms: O_9  and  C_10
REMARK    4  A    between atoms: C_10  and  C_11
REMARK    5  A    between atoms: C_15  and  C_16
REMARK                            x       y       z     vdW  Elec       q    Type
REMARK                         _______ _______ _______ _____ _____    ______ ____
ROOT
ATOM      1  C   UNL     1      43.901   5.020  11.556  0.00  0.00    +0.000 C 
ATOM      2  C   UNL     1      42.629   5.372  12.317  0.00  0.00    +0.000 C 
ATOM      3  C   UNL     1      43.033   6.190  11.136  0.00  0.00    +0.000 C 
ENDROOT
BRANCH   1   4
ATOM      4  C   UNL     1      45.259   5.301  12.179  0.00  0.00    +0.000 A 
ATOM      5  C   UNL     1      46.150   6.228  11.638  0.00  0.00    +0.000 A 
ATOM      6  C   UNL     1      47.357   6.462  12.280  0.00  0.00    +0.000 A 
ATOM      7  N   UNL     1      47.751   5.837  13.409  0.00  0.00    +0.000 NA
ATOM      8  C   UNL     1      46.900   4.928  13.954  0.00  0.00    +0.000 A 
ATOM      9  C   UNL     1      45.663   4.659  13.363  0.00  0.00    +0.000 A 
BRANCH   8  10
ATOM     10  C   UNL     1      47.339   4.236  15.193  0.00  0.00    +0.000 A 
ATOM     11  C   UNL     1      47.283   4.844  16.449  0.00  0.00    +0.000 A 
ATOM     12  C   UNL     1      47.715   4.142  17.574  0.00  0.00    +0.000 A 
ATOM     13  C   UNL     1      48.197   2.848  17.427  0.00  0.00    +0.000 A 
ATOM     14  C   UNL     1      48.227   2.309  16.155  0.00  0.00    +0.000 A 
ATOM     15  N   UNL     1      47.812   2.965  15.049  0.00  0.00    +0.000 NA
ENDBRANCH   8  10
ENDBRANCH   1   4
BRANCH   1  16
ATOM     16  O   UNL     1      43.725   3.742  10.900  0.00  0.00    +0.000 OA
BRANCH  16  20
ATOM     17  C   UNL     1      46.145   2.723   7.728  0.00  0.00    +0.000 A 
ATOM     18  C   UNL     1      45.685   1.744   8.613  0.00  0.00    +0.000 A 
ATOM     19  C   UNL     1      44.871   2.114   9.677  0.00  0.00    +0.000 A 
ATOM     20  C   UNL     1      44.540   3.453   9.823  0.00  0.00    +0.000 A 
ATOM     21  N   UNL     1      44.943   4.421   8.978  0.00  0.00    +0.000 NA
ATOM     22  C   UNL     1      45.744   4.036   7.956  0.00  0.00    +0.000 A 
BRANCH  17  24
ATOM     23  F   UNL     1      48.342   2.752   6.782  0.00  0.00    +0.000 F 
ATOM     24  C   UNL     1      47.042   2.403   6.573  0.00  0.00    +0.000 C 
ATOM     25  F   UNL     1      46.666   3.039   5.429  0.00  0.00    +0.000 F 
ATOM     26  F   UNL     1      47.056   1.076   6.275  0.00  0.00    +0.000 F 
ENDBRANCH  17  24
ENDBRANCH  16  20
ENDBRANCH   1  16
TORSDOF 5
ENDMDL
MODEL 3
REMARK VINA RESULT:    -7.606      4.335      7.396
REMARK INTER + INTRA:         -10.935
REMARK INTER:                 -10.243
REMARK INTRA:                  -0.692
REMARK UNBOUND:                -1.106
REMARK  Name = 
REMARK  5 active torsions:
REMARK  status: ('A' for Active; 'I' for Inactive)
REMARK    1  A    between atoms: C_2  and  C_5
REMARK    2  A    between atoms: C_8  and  O_9
REMARK    3  A    between atoms: O_9  and  C_10
REMARK    4  A    between atoms: C_10  and  C_11
REMARK    5  A    between atoms: C_15  and  C_16
REMARK                            x       y       z     vdW  Elec       q    Type
REMARK                         _______ _______ _______ _____ _____    ______ ____
ROOT
ATOM      1  C   UNL     1      46.275   7.347  12.308  0.00  0.00    +0.000 C 
ATOM      2  C   UNL     1      46.415   8.794  11.852  0.00  0.00    +0.000 C 
ATOM      3  C   UNL     1      45.654   8.483  13.097  0.00  0.00    +0.000 C 
ENDROOT
BRANCH   1   4
ATOM      4  C   UNL     1      45.361   6.398  11.548  0.00  0.00    +0.000 A 
ATOM      5  C   UNL     1      43.982   6.362  11.758  0.00  0.00    +0.000 A 
ATOM      6  C   UNL     1      43.204   5.498  11.003  0.00  0.00    +0.000 A 
ATOM      7  N   UNL     1      43.692   4.659  10.064  0.00  0.00    +0.000 NA
ATOM      8  C   UNL     1      45.033   4.676   9.843  0.00  0.00    +0.000 A 
ATOM      9  C   UNL     1      45.868   5.534  10.562  0.00  0.00    +0.000 A 
BRANCH   8  10
ATOM     10  C   UNL     1      45.567   3.746   8.815  0.00  0.00    +0.000 A 
ATOM     11  C   UNL     1      45.549   2.359   8.979  0.00  0.00    +0.000 A 
ATOM     12  C   UNL     1      46.071   1.540   7.978  0.00  0.00    +0.000 A 
ATOM     13  C   UNL     1      46.604   2.118   6.833  0.00  0.00    +0.000 A 
ATOM     14  C   UNL     1      46.592   3.497   6.738  0.00  0.00    +0.000 A 
ATOM     15  N   UNL     1      46.091   4.313   7.690  0.00  0.00    +0.000 NA
ENDBRANCH   8  10
ENDBRANCH   1   4
BRANCH   1  16
ATOM     16  O   UNL     1      47.573   6.843  12.701  0.00  0.00    +0.000 OA
BRANCH  16  20
ATOM     17  C   UNL     1      47.716   4.595  16.148  0.00  0.00    +0.000 A 
ATOM     18  C   UNL     1      46.889   4.216  15.087  0.00  0.00    +0.000 A 
ATOM     19  C   UNL     1      46.857   4.993  13.935  0.00  0.00    +0.000 A 
ATOM     20  C   UNL     1      47.656   6.125  13.878  0.00  0.00    +0.000 A 
ATOM     21  N   UNL     1      48.483   6.509  14.869  0.00  0.00    +0.000 NA
ATOM     22  C   UNL     1      48.488   5.741  15.984  0.00  0.00    +0.000 A 
BRANCH  17  24
ATOM     23  F   UNL     1      47.593   4.585  18.537  0.00  0.00    +0.000 F 
ATOM     24  C   UNL     1      47.786   3.819  17.427  0.00  0.00    +0.000 C 
ATOM     25  F   UNL     1      48.991   3.210  17.601  0.00  0.00    +0.000 F 
ATOM     26  F   UNL     1      46.855   2.830  17.490  0.00  0.00    +0.000 F 
ENDBRANCH  17  24
ENDBRANCH  16  20
ENDBRANCH   1  16
TORSDOF 5
ENDMDL
MODEL 4
REMARK VINA RESULT:    -6.712      4.247      7.088
REMARK INTER + INTRA:          -9.780
REMARK INTER:                  -8.991
REMARK INTRA:                  -0.789
REMARK UNBOUND:                -1.106
REMARK  Name = 
REMARK  5 active torsions:
REMARK  status: ('A' for Active; 'I' for Inactive)
REMARK    1  A    between atoms: C_2  and  C_5
REMARK    2  A    between atoms: C_8  and  O_9
REMARK    3  A    between atoms: O_9  and  C_10
REMARK    4  A    between atoms: C_10  and  C_11
REMARK    5  A    between atoms: C_15  and  C_16
REMARK                            x       y       z     vdW  Elec       q    Type
REMARK                         _______ _______ _______ _____ _____    ______ ____
ROOT
ATOM      1  C   UNL     1      45.653   5.399  12.799  0.00  0.00    +0.000 C 
ATOM      2  C   UNL     1      46.561   4.977  13.946  0.00  0.00    +0.000 C 
ATOM      3  C   UNL     1      47.148   5.645  12.748  0.00  0.00    +0.000 C 
ENDROOT
BRANCH   1   4
ATOM      4  C   UNL     1      45.052   4.346  11.881  0.00  0.00    +0.000 A 
ATOM      5  C   UNL     1      43.845   3.708  12.167  0.00  0.00    +0.000 A 
ATOM      6  C   UNL     1      43.336   2.784  11.268  0.00  0.00    +0.000 A 
ATOM      7  N   UNL     1      43.941   2.436  10.112  0.00  0.00    +0.000 NA
ATOM      8  C   UNL     1      45.119   3.043   9.812  0.00  0.00    +0.000 A 
ATOM      9  C   UNL     1      45.675   3.994  10.672  0.00  0.00    +0.000 A 
BRANCH   8  10
ATOM     10  C   UNL     1      45.786   2.653   8.544  0.00  0.00    +0.000 A 
ATOM     11  C   UNL     1      45.961   3.546   7.485  0.00  0.00    +0.000 A 
ATOM     12  C   UNL     1      46.592   3.118   6.318  0.00  0.00    +0.000 A 
ATOM     13  C   UNL     1      47.035   1.804   6.225  0.00  0.00    +0.000 A 
ATOM     14  C   UNL     1      46.826   0.974   7.310  0.00  0.00    +0.000 A 
ATOM     15  N   UNL     1      46.222   1.363   8.453  0.00  0.00    +0.000 NA
ENDBRANCH   8  10
ENDBRANCH   1   4
BRANCH   1  16
ATOM     16  O   UNL     1      44.780   6.462  13.249  0.00  0.00    +0.000 OA
BRANCH  16  20
ATOM     17  C   UNL     1      44.842  10.016  11.171  0.00  0.00    +0.000 A 
ATOM     18  C   UNL     1      45.649   9.838  12.298  0.00  0.00    +0.000 A 
ATOM     19  C   UNL     1      45.608   8.630  12.983  0.00  0.00    +0.000 A 
ATOM     20  C   UNL     1      44.762   7.634  12.518  0.00  0.00    +0.000 A 
ATOM     21  N   UNL     1      43.989   7.759  11.423  0.00  0.00    +0.000 NA
ATOM     22  C   UNL     1      44.039   8.949  10.780  0.00  0.00    +0.000 A 
BRANCH  17  24
ATOM     23  F   UNL     1      46.024  11.927  10.353  0.00  0.00    +0.000 F 
ATOM     24  C   UNL     1      44.818  11.297  10.396  0.00  0.00    +0.000 C 
ATOM     25  F   UNL     1      43.943  12.203  10.914  0.00  0.00    +0.000 F 
ATOM     26  F   UNL     1      44.445  11.116   9.101  0.00  0.00    +0.000 F 
ENDBRANCH  17  24
ENDBRANCH  16  20
ENDBRANCH   1  16
TORSDOF 5
ENDMDL
MODEL 5
REMARK VINA RESULT:    -6.436      4.756      7.952
REMARK INTER + INTRA:          -9.423
REMARK INTER:                  -8.548
REMARK INTRA:                  -0.875
REMARK UNBOUND:                -1.106
REMARK  Name = 
REMARK  5 active torsions:
REMARK  status: ('A' for Active; 'I' for Inactive)
REMARK    1  A    between atoms: C_2  and  C_5
REMARK    2  A    between atoms: C_8  and  O_9
REMARK    3  A    between atoms: O_9  and  C_10
REMARK    4  A    between atoms: C_10  and  C_11
REMARK    5  A    between atoms: C_15  and  C_16
REMARK                            x       y       z     vdW  Elec       q    Type
REMARK                         _______ _______ _______ _____ _____    ______ ____
ROOT
ATOM      1  C   UNL     1      48.442   8.049  12.635  0.00  0.00    +0.000 C 
ATOM      2  C   UNL     1      49.306   8.908  11.720  0.00  0.00    +0.000 C 
ATOM      3  C   UNL     1      48.729   9.502  12.961  0.00  0.00    +0.000 C 
ENDROOT
BRANCH   1   4
ATOM      4  C   UNL     1      47.037   7.659  12.203  0.00  0.00    +0.000 A 
ATOM      5  C   UNL     1      45.912   8.398  12.569  0.00  0.00    +0.000 A 
ATOM      6  C   UNL     1      44.664   8.006  12.108  0.00  0.00    +0.000 A 
ATOM      7  N   UNL     1      44.447   6.929  11.324  0.00  0.00    +0.000 NA
ATOM      8  C   UNL     1      45.529   6.193  10.956  0.00  0.00    +0.000 A 
ATOM      9  C   UNL     1      46.813   6.545  11.375  0.00  0.00    +0.000 A 
BRANCH   8  10
ATOM     10  C   UNL     1      45.286   5.004  10.099  0.00  0.00    +0.000 A 
ATOM     11  C   UNL     1      44.579   3.888  10.550  0.00  0.00    +0.000 A 
ATOM     12  C   UNL     1      44.388   2.801   9.698  0.00  0.00    +0.000 A 
ATOM     13  C   UNL     1      44.910   2.844   8.411  0.00  0.00    +0.000 A 
ATOM     14  C   UNL     1      45.601   3.979   8.031  0.00  0.00    +0.000 A 
ATOM     15  N   UNL     1      45.797   5.046   8.835  0.00  0.00    +0.000 NA
ENDBRANCH   8  10
ENDBRANCH   1   4
BRANCH   1  16
ATOM     16  O   UNL     1      49.261   7.018  13.235  0.00  0.00    +0.000 OA
BRANCH  16  20
ATOM     17  C   UNL     1      48.022   5.440  16.830  0.00  0.00    +0.000 A 
ATOM     18  C   UNL     1      48.839   6.572  16.796  0.00  0.00    +0.000 A 
ATOM     19  C   UNL     1      49.246   7.084  15.570  0.00  0.00    +0.000 A 
ATOM     20  C   UNL     1      48.820   6.449  14.413  0.00  0.00    +0.000 A 
ATOM     21  N   UNL     1      48.012   5.371  14.405  0.00  0.00    +0.000 NA
ATOM     22  C   UNL     1      47.639   4.886  15.612  0.00  0.00    +0.000 A 
BRANCH  17  24
ATOM     23  F   UNL     1      46.447   5.407  18.630  0.00  0.00    +0.000 F 
ATOM     24  C   UNL     1      47.563   4.820  18.114  0.00  0.00    +0.000 C 
ATOM     25  F   UNL     1      48.506   4.890  19.093  0.00  0.00    +0.000 F 
ATOM     26  F   UNL     1      47.261   3.501  17.978  0.00  0.00    +0.000 F 
ENDBRANCH  17  24
ENDBRANCH  16  20
ENDBRANCH   1  16
TORSDOF 5
ENDMDL
MODEL 6
REMARK VINA RESULT:    -6.226      3.645      5.725
REMARK INTER + INTRA:          -9.152
REMARK INTER:                  -8.275
REMARK INTRA:                  -0.877
REMARK UNBOUND:                -1.106
REMARK  Name = 
REMARK  5 active torsions:
REMARK  status: ('A' for Active; 'I' for Inactive)
REMARK    1  A    between atoms: C_2  and  C_5
REMARK    2  A    between atoms: C_8  and  O_9
REMARK    3  A    between atoms: O_9  and  C_10
REMARK    4  A    between atoms: C_10  and  C_11
REMARK    5  A    between atoms: C_15  and  C_16
REMARK                            x       y       z     vdW  Elec       q    Type
REMARK                         _______ _______ _______ _____ _____    ______ ____
ROOT
ATOM      1  C   UNL     1      48.197   8.169  12.493  0.00  0.00    +0.000 C 
ATOM      2  C   UNL     1      49.087   9.139  11.725  0.00  0.00    +0.000 C 
ATOM      3  C   UNL     1      49.286   7.669  11.564  0.00  0.00    +0.000 C 
ENDROOT
BRANCH   1   4
ATOM      4  C   UNL     1      48.379   8.000  13.993  0.00  0.00    +0.000 A 
ATOM      5  C   UNL     1      48.385   9.084  14.871  0.00  0.00    +0.000 A 
ATOM      6  C   UNL     1      48.518   8.854  16.231  0.00  0.00    +0.000 A 
ATOM      7  N   UNL     1      48.658   7.631  16.785  0.00  0.00    +0.000 NA
ATOM      8  C   UNL     1      48.657   6.559  15.950  0.00  0.00    +0.000 A 
ATOM      9  C   UNL     1      48.512   6.725  14.570  0.00  0.00    +0.000 A 
BRANCH   8  10
ATOM     10  C   UNL     1      48.819   5.215  16.561  0.00  0.00    +0.000 A 
ATOM     11  C   UNL     1      47.759   4.313  16.677  0.00  0.00    +0.000 A 
ATOM     12  C   UNL     1      47.975   3.067  17.265  0.00  0.00    +0.000 A 
ATOM     13  C   UNL     1      49.243   2.743  17.730  0.00  0.00    +0.000 A 
ATOM     14  C   UNL     1      50.245   3.685  17.586  0.00  0.00    +0.000 A 
ATOM     15  N   UNL     1      50.065   4.896  17.017  0.00  0.00    +0.000 NA
ENDBRANCH   8  10
ENDBRANCH   1   4
BRANCH   1  16
ATOM     16  O   UNL     1      46.842   8.273  11.997  0.00  0.00    +0.000 OA
BRANCH  16  20
ATOM     17  C   UNL     1      44.605   4.827  11.709  0.00  0.00    +0.000 A 
ATOM     18  C   UNL     1      44.463   5.676  12.810  0.00  0.00    +0.000 A 
ATOM     19  C   UNL     1      45.231   6.832  12.885  0.00  0.00    +0.000 A 
ATOM     20  C   UNL     1      46.117   7.105  11.854  0.00  0.00    +0.000 A 
ATOM     21  N   UNL     1      46.264   6.326  10.766  0.00  0.00    +0.000 NA
ATOM     22  C   UNL     1      45.512   5.201  10.722  0.00  0.00    +0.000 A 
BRANCH  17  24
ATOM     23  F   UNL     1      44.200   2.806  10.496  0.00  0.00    +0.000 F 
ATOM     24  C   UNL     1      43.827   3.556  11.571  0.00  0.00    +0.000 C 
ATOM     25  F   UNL     1      42.491   3.775  11.426  0.00  0.00    +0.000 F 
ATOM     26  F   UNL     1      43.957   2.744  12.653  0.00  0.00    +0.000 F 
ENDBRANCH  17  24
ENDBRANCH  16  20
ENDBRANCH   1  16
TORSDOF 5
ENDMDL
MODEL 7
REMARK VINA RESULT:    -6.174      3.638      6.910
REMARK INTER + INTRA:          -9.084
REMARK INTER:                  -8.820
REMARK INTRA:                  -0.264
REMARK UNBOUND:                -1.106
REMARK  Name = 
REMARK  5 active torsions:
REMARK  status: ('A' for Active; 'I' for Inactive)
REMARK    1  A    between atoms: C_2  and  C_5
REMARK    2  A    between atoms: C_8  and  O_9
REMARK    3  A    between atoms: O_9  and  C_10
REMARK    4  A    between atoms: C_10  and  C_11
REMARK    5  A    between atoms: C_15  and  C_16
REMARK                            x       y       z     vdW  Elec       q    Type
REMARK                         _______ _______ _______ _____ _____    ______ ____
ROOT
ATOM      1  C   UNL     1      45.843   4.928  13.170  0.00  0.00    +0.000 C 
ATOM      2  C   UNL     1      45.982   4.449  14.610  0.00  0.00    +0.000 C 
ATOM      3  C   UNL     1      47.184   4.490  13.726  0.00  0.00    +0.000 C 
ENDROOT
BRANCH   1   4
ATOM      4  C   UNL     1      45.153   4.046  12.141  0.00  0.00    +0.000 A 
ATOM      5  C   UNL     1      43.894   3.487  12.362  0.00  0.00    +0.000 A 
ATOM      6  C   UNL     1      43.308   2.723  11.365  0.00  0.00    +0.000 A 
ATOM      7  N   UNL     1      43.881   2.462  10.171  0.00  0.00    +0.000 NA
ATOM      8  C   UNL     1      45.109   2.995   9.934  0.00  0.00    +0.000 A 
ATOM      9  C   UNL     1      45.745   3.786  10.893  0.00  0.00    +0.000 A 
BRANCH   8  10
ATOM     10  C   UNL     1      45.740   2.699   8.622  0.00  0.00    +0.000 A 
ATOM     11  C   UNL     1      45.822   3.648   7.601  0.00  0.00    +0.000 A 
ATOM     12  C   UNL     1      46.424   3.308   6.390  0.00  0.00    +0.000 A 
ATOM     13  C   UNL     1      46.932   2.026   6.217  0.00  0.00    +0.000 A 
ATOM     14  C   UNL     1      46.814   1.137   7.269  0.00  0.00    +0.000 A 
ATOM     15  N   UNL     1      46.240   1.441   8.453  0.00  0.00    +0.000 NA
ENDBRANCH   8  10
ENDBRANCH   1   4
BRANCH   1  16
ATOM     16  O   UNL     1      45.508   6.336  13.167  0.00  0.00    +0.000 OA
BRANCH  16  20
ATOM     17  C   UNL     1      48.517   8.919  12.058  0.00  0.00    +0.000 A 
ATOM     18  C   UNL     1      48.308   7.729  11.357  0.00  0.00    +0.000 A 
ATOM     19  C   UNL     1      47.287   6.872  11.752  0.00  0.00    +0.000 A 
ATOM     20  C   UNL     1      46.503   7.235  12.837  0.00  0.00    +0.000 A 
ATOM     21  N   UNL     1      46.657   8.383  13.523  0.00  0.00    +0.000 NA
ATOM     22  C   UNL     1      47.665   9.195  13.124  0.00  0.00    +0.000 A 
BRANCH  17  24
ATOM     23  F   UNL     1      50.227  10.423  12.788  0.00  0.00    +0.000 F 
ATOM     24  C   UNL     1      49.609   9.879  11.703  0.00  0.00    +0.000 C 
ATOM     25  F   UNL     1      49.159  10.931  10.965  0.00  0.00    +0.000 F 
ATOM     26  F   UNL     1      50.594   9.300  10.965  0.00  0.00    +0.000 F 
ENDBRANCH  17  24
ENDBRANCH  16  20
ENDBRANCH   1  16
TORSDOF 5
ENDMDL
MODEL 8
REMARK VINA RESULT:    -5.900      5.710      7.516
REMARK INTER + INTRA:          -8.730
REMARK INTER:                  -8.132
REMARK INTRA:                  -0.599
REMARK UNBOUND:                -1.106
REMARK  Name = 
REMARK  5 active torsions:
REMARK  status: ('A' for Active; 'I' for Inactive)
REMARK    1  A    between atoms: C_2  and  C_5
REMARK    2  A    between atoms: C_8  and  O_9
REMARK    3  A    between atoms: O_9  and  C_10
REMARK    4  A    between atoms: C_10  and  C_11
REMARK    5  A    between atoms: C_15  and  C_16
REMARK                            x       y       z     vdW  Elec       q    Type
REMARK                         _______ _______ _______ _____ _____    ______ ____
ROOT
ATOM      1  C   UNL     1      48.133   3.588  16.694  0.00  0.00    +0.000 C 
ATOM      2  C   UNL     1      47.230   2.787  17.625  0.00  0.00    +0.000 C 
ATOM      3  C   UNL     1      46.958   4.237  17.400  0.00  0.00    +0.000 C 
ENDROOT
BRANCH   1   4
ATOM      4  C   UNL     1      49.543   3.951  17.134  0.00  0.00    +0.000 A 
ATOM      5  C   UNL     1      49.953   5.273  17.308  0.00  0.00    +0.000 A 
ATOM      6  C   UNL     1      51.242   5.530  17.746  0.00  0.00    +0.000 A 
ATOM      7  N   UNL     1      52.159   4.576  18.013  0.00  0.00    +0.000 NA
ATOM      8  C   UNL     1      51.783   3.280  17.848  0.00  0.00    +0.000 A 
ATOM      9  C   UNL     1      50.493   2.956  17.423  0.00  0.00    +0.000 A 
BRANCH   8  10
ATOM     10  C   UNL     1      52.797   2.233  18.135  0.00  0.00    +0.000 A 
ATOM     11  C   UNL     1      52.747   0.964  17.553  0.00  0.00    +0.000 A 
ATOM     12  C   UNL     1      53.726   0.023  17.866  0.00  0.00    +0.000 A 
ATOM     13  C   UNL     1      54.738   0.361  18.757  0.00  0.00    +0.000 A 
ATOM     14  C   UNL     1      54.724   1.633  19.297  0.00  0.00    +0.000 A 
ATOM     15  N   UNL     1      53.790   2.565  19.009  0.00  0.00    +0.000 NA
ENDBRANCH   8  10
ENDBRANCH   1   4
BRANCH   1  16
ATOM     16  O   UNL     1      47.964   3.109  15.339  0.00  0.00    +0.000 OA
BRANCH  16  20
ATOM     17  C   UNL     1      46.236   5.574  12.529  0.00  0.00    +0.000 A 
ATOM     18  C   UNL     1      45.852   4.234  12.630  0.00  0.00    +0.000 A 
ATOM     19  C   UNL     1      46.452   3.422  13.586  0.00  0.00    +0.000 A 
ATOM     20  C   UNL     1      47.417   3.976  14.413  0.00  0.00    +0.000 A 
ATOM     21  N   UNL     1      47.795   5.268  14.363  0.00  0.00    +0.000 NA
ATOM     22  C   UNL     1      47.203   6.035  13.417  0.00  0.00    +0.000 A 
BRANCH  17  24
ATOM     23  F   UNL     1      46.113   7.778  11.610  0.00  0.00    +0.000 F 
ATOM     24  C   UNL     1      45.649   6.501  11.511  0.00  0.00    +0.000 C 
ATOM     25  F   UNL     1      44.293   6.590  11.607  0.00  0.00    +0.000 F 
ATOM     26  F   UNL     1      45.908   6.109  10.235  0.00  0.00    +0.000 F 
ENDBRANCH  17  24
ENDBRANCH  16  20
ENDBRANCH   1  16
TORSDOF 5
ENDMDL
