MODEL 1
REMARK VINA RESULT:    -8.158      0.000      0.000
REMARK INTER + INTRA:         -12.780
REMARK INTER:                 -11.496
REMARK INTRA:                  -1.284
REMARK UNBOUND:                -1.284
REMARK  Name = 
REMARK  10 active torsions:
REMARK  status: ('A' for Active; 'I' for Inactive)
REMARK    1  A    between atoms: C_1  and  C_2
REMARK    2  A    between atoms: C_7  and  C_8
REMARK    3  A    between atoms: N_10  and  C_11
REMARK    4  A    between atoms: C_11  and  C_12
REMARK    5  A    between atoms: C_15  and  N_16
REMARK    6  A    between atoms: N_16  and  N_17
REMARK    7  A    between atoms: N_17  and  C_18
REMARK    8  A    between atoms: N_17  and  C_19
REMARK    9  A    between atoms: C_19  and  C_20
REMARK   10  A    between atoms: N_29  and  C_30
REMARK                            x       y       z     vdW  Elec       q    Type
REMARK                         _______ _______ _______ _____ _____    ______ ____
ROOT
ATOM      1  C   UNL     1      48.788   7.145  14.306  0.00  0.00    +0.000 C 
ATOM      2  O   UNL     1      49.445   6.930  13.286  0.00  0.00    +0.000 OA
ATOM      3  N   UNL     1      47.606   7.853  14.277  0.00  0.00    +0.000 N 
ATOM      4  H   UNL     1      47.039   7.931  15.117  0.00  0.00    +0.000 HD
ENDROOT
BRANCH   1  11
ATOM      5  C   UNL     1      48.049   2.781  19.469  0.00  0.00    +0.000 C 
ATOM      6  C   UNL     1      48.325   3.769  18.376  0.00  0.00    +0.000 A 
ATOM      7  N   UNL     1      47.524   3.708  17.290  0.00  0.00    +0.000 NA
ATOM      8  C   UNL     1      47.696   4.597  16.297  0.00  0.00    +0.000 A 
ATOM      9  N   UNL     1      46.796   4.520  15.238  0.00  0.00    +0.000 N 
ATOM     10  C   UNL     1      48.714   5.555  16.399  0.00  0.00    +0.000 A 
ATOM     11  C   UNL     1      49.211   6.645  15.608  0.00  0.00    +0.000 A 
ATOM     12  C   UNL     1      50.219   7.240  16.359  0.00  0.00    +0.000 A 
ATOM     13  N   UNL     1      50.372   6.538  17.525  0.00  0.00    +0.000 N 
ATOM     14  C   UNL     1      51.322   6.839  18.572  0.00  0.00    +0.000 C 
ATOM     15  C   UNL     1      49.461   5.515  17.567  0.00  0.00    +0.000 A 
ATOM     16  N   UNL     1      49.318   4.651  18.585  0.00  0.00    +0.000 NA
ATOM     17  H   UNL     1      46.048   3.889  15.507  0.00  0.00    +0.000 HD
ATOM     18  H   UNL     1      46.468   5.436  14.949  0.00  0.00    +0.000 HD
ENDBRANCH   1  11
BRANCH   3  19
ATOM     19  C   UNL     1      47.105   8.374  13.030  0.00  0.00    +0.000 C 
BRANCH  19  20
ATOM     20  C   UNL     1      46.199   7.424  12.293  0.00  0.00    +0.000 A 
ATOM     21  C   UNL     1      46.648   6.767  11.141  0.00  0.00    +0.000 A 
ATOM     22  C   UNL     1      45.876   5.761  10.550  0.00  0.00    +0.000 A 
ATOM     23  C   UNL     1      44.633   5.397  11.079  0.00  0.00    +0.000 A 
ATOM     24  C   UNL     1      44.138   6.130  12.162  0.00  0.00    +0.000 A 
ATOM     25  C   UNL     1      44.918   7.120  12.775  0.00  0.00    +0.000 A 
BRANCH  23  26
ATOM     26  N   UNL     1      43.834   4.349  10.532  0.00  0.00    +0.000 N 
ATOM     27  H   UNL     1      43.642   4.584   9.556  0.00  0.00    +0.000 HD
BRANCH  26  28
ATOM     28  N   UNL     1      44.284   3.013  10.766  0.00  0.00    +0.000 NA
ATOM     29  C   UNL     1      43.329   2.403  11.707  0.00  0.00    +0.000 C 
BRANCH  28  30
ATOM     30  C   UNL     1      44.324   2.220   9.520  0.00  0.00    +0.000 C 
BRANCH  30  31
ATOM     31  C   UNL     1      45.627   2.399   8.707  0.00  0.00    +0.000 C 
ATOM     32  C   UNL     1      45.442   3.459   7.605  0.00  0.00    +0.000 C 
ATOM     33  C   UNL     1      46.740   3.672   6.826  0.00  0.00    +0.000 C 
ATOM     34  C   UNL     1      47.259   2.366   6.229  0.00  0.00    +0.000 C 
ATOM     35  C   UNL     1      47.408   1.286   7.292  0.00  0.00    +0.000 C 
ATOM     36  C   UNL     1      46.114   1.084   8.075  0.00  0.00    +0.000 C 
ENDBRANCH  30  31
ENDBRANCH  28  30
ENDBRANCH  26  28
ENDBRANCH  23  26
ENDBRANCH  19  20
ENDBRANCH   3  19
TORSDOF 7
ENDMDL
MODEL 2
REMARK VINA RESULT:    -8.143      2.351      2.996
REMARK INTER + INTRA:         -12.759
REMARK INTER:                 -12.015
REMARK INTRA:                  -0.744
REMARK UNBOUND:                -1.284
REMARK  Name = 
REMARK  10 active torsions:
REMARK  status: ('A' for Active; 'I' for Inactive)
REMARK    1  A    between atoms: C_1  and  C_2
REMARK    2  A    between atoms: C_7  and  C_8
REMARK    3  A    between atoms: N_10  and  C_11
REMARK    4  A    between atoms: C_11  and  C_12
REMARK    5  A    between atoms: C_15  and  N_16
REMARK    6  A    between atoms: N_16  and  N_17
REMARK    7  A    between atoms: N_17  and  C_18
REMARK    8  A    between atoms: N_17  and  C_19
REMARK    9  A    between atoms: C_19  and  C_20
REMARK   10  A    between atoms: N_29  and  C_30
REMARK                            x       y       z     vdW  Elec       q    Type
REMARK                         _______ _______ _______ _____ _____    ______ ____
ROOT
ATOM      1  C   UNL     1      49.084   6.789  16.075  0.00  0.00    +0.000 C 
ATOM      2  O   UNL     1      50.183   6.477  15.613  0.00  0.00    +0.000 OA
ATOM      3  N   UNL     1      48.065   7.260  15.277  0.00  0.00    +0.000 N 
ATOM      4  H   UNL     1      47.141   7.418  15.672  0.00  0.00    +0.000 HD
ENDROOT
BRANCH   1  11
ATOM      5  C   UNL     1      46.766   9.472  21.878  0.00  0.00    +0.000 C 
ATOM      6  C   UNL     1      47.266   8.769  20.652  0.00  0.00    +0.000 A 
ATOM      7  N   UNL     1      47.269   9.482  19.506  0.00  0.00    +0.000 NA
ATOM      8  C   UNL     1      47.746   8.918  18.383  0.00  0.00    +0.000 A 
ATOM      9  N   UNL     1      47.782   9.729  17.252  0.00  0.00    +0.000 N 
ATOM     10  C   UNL     1      48.213   7.597  18.421  0.00  0.00    +0.000 A 
ATOM     11  C   UNL     1      48.787   6.662  17.496  0.00  0.00    +0.000 A 
ATOM     12  C   UNL     1      49.093   5.524  18.237  0.00  0.00    +0.000 A 
ATOM     13  N   UNL     1      48.693   5.721  19.531  0.00  0.00    +0.000 N 
ATOM     14  C   UNL     1      48.832   4.771  20.611  0.00  0.00    +0.000 C 
ATOM     15  C   UNL     1      48.161   6.977  19.661  0.00  0.00    +0.000 A 
ATOM     16  N   UNL     1      47.700   7.506  20.806  0.00  0.00    +0.000 NA
ATOM     17  H   UNL     1      47.587  10.682  17.543  0.00  0.00    +0.000 HD
ATOM     18  H   UNL     1      48.654   9.633  16.741  0.00  0.00    +0.000 HD
ENDBRANCH   1  11
BRANCH   3  19
ATOM     19  C   UNL     1      48.265   7.406  13.857  0.00  0.00    +0.000 C 
BRANCH  19  20
ATOM     20  C   UNL     1      47.377   6.522  13.022  0.00  0.00    +0.000 A 
ATOM     21  C   UNL     1      46.767   5.397  13.586  0.00  0.00    +0.000 A 
ATOM     22  C   UNL     1      45.811   4.670  12.867  0.00  0.00    +0.000 A 
ATOM     23  C   UNL     1      45.455   5.035  11.564  0.00  0.00    +0.000 A 
ATOM     24  C   UNL     1      46.146   6.092  10.963  0.00  0.00    +0.000 A 
ATOM     25  C   UNL     1      47.084   6.840  11.688  0.00  0.00    +0.000 A 
BRANCH  23  26
ATOM     26  N   UNL     1      44.457   4.346  10.811  0.00  0.00    +0.000 N 
ATOM     27  H   UNL     1      44.469   4.724   9.862  0.00  0.00    +0.000 HD
BRANCH  26  28
ATOM     28  N   UNL     1      44.457   2.920  10.905  0.00  0.00    +0.000 NA
ATOM     29  C   UNL     1      43.278   2.548  11.705  0.00  0.00    +0.000 C 
BRANCH  28  30
ATOM     30  C   UNL     1      44.373   2.282   9.574  0.00  0.00    +0.000 C 
BRANCH  30  31
ATOM     31  C   UNL     1      45.660   2.429   8.729  0.00  0.00    +0.000 C 
ATOM     32  C   UNL     1      45.472   3.492   7.631  0.00  0.00    +0.000 C 
ATOM     33  C   UNL     1      46.756   3.672   6.818  0.00  0.00    +0.000 C 
ATOM     34  C   UNL     1      47.228   2.354   6.211  0.00  0.00    +0.000 C 
ATOM     35  C   UNL     1      47.377   1.272   7.271  0.00  0.00    +0.000 C 
ATOM     36  C   UNL     1      46.099   1.102   8.087  0.00  0.00    +0.000 C 
ENDBRANCH  30  31
ENDBRANCH  28  30
ENDBRANCH  26  28
ENDBRANCH  23  26
ENDBRANCH  19  20
ENDBRANCH   3  19
TORSDOF 7
ENDMDL
MODEL 3
REMARK VINA RESULT:    -7.893      1.203      2.536
REMARK INTER + INTRA:         -12.407
REMARK INTER:                 -11.226
REMARK INTRA:                  -1.181
REMARK UNBOUND:                -1.284
REMARK  Name = 
REMARK  10 active torsions:
REMARK  status: ('A' for Active; 'I' for Inactive)
REMARK    1  A    between atoms: C_1  and  C_2
REMARK    2  A    between atoms: C_7  and  C_8
REMARK    3  A    between atoms: N_10  and  C_11
REMARK    4  A    between atoms: C_11  and  C_12
REMARK    5  A    between atoms: C_15  and  N_16
REMARK    6  A    between atoms: N_16  and  N_17
REMARK    7  A    between atoms: N_17  and  C_18
REMARK    8  A    between atoms: N_17  and  C_19
REMARK    9  A    between atoms: C_19  and  C_20
REMARK   10  A    between atoms: N_29  and  C_30
REMARK                            x       y       z     vdW  Elec       q    Type
REMARK                         _______ _______ _______ _____ _____    ______ ____
ROOT
ATOM      1  C   UNL     1      48.949   7.295  14.458  0.00  0.00    +0.000 C 
ATOM      2  O   UNL     1      49.652   7.327  13.447  0.00  0.00    +0.000 OA
ATOM      3  N   UNL     1      47.681   7.834  14.483  0.00  0.00    +0.000 N 
ATOM      4  H   UNL     1      47.091   7.706  15.301  0.00  0.00    +0.000 HD
ENDROOT
BRANCH   1  11
ATOM      5  C   UNL     1      53.997   5.625  18.698  0.00  0.00    +0.000 C 
ATOM      6  C   UNL     1      52.805   5.969  17.856  0.00  0.00    +0.000 A 
ATOM      7  N   UNL     1      53.045   6.669  16.727  0.00  0.00    +0.000 NA
ATOM      8  C   UNL     1      52.020   6.969  15.910  0.00  0.00    +0.000 A 
ATOM      9  N   UNL     1      52.345   7.635  14.731  0.00  0.00    +0.000 N 
ATOM     10  C   UNL     1      50.724   6.566  16.256  0.00  0.00    +0.000 A 
ATOM     11  C   UNL     1      49.409   6.665  15.689  0.00  0.00    +0.000 A 
ATOM     12  C   UNL     1      48.565   5.963  16.545  0.00  0.00    +0.000 A 
ATOM     13  N   UNL     1      49.299   5.495  17.600  0.00  0.00    +0.000 N 
ATOM     14  C   UNL     1      48.786   4.720  18.707  0.00  0.00    +0.000 C 
ATOM     15  C   UNL     1      50.614   5.847  17.438  0.00  0.00    +0.000 A 
ATOM     16  N   UNL     1      51.610   5.521  18.277  0.00  0.00    +0.000 NA
ATOM     17  H   UNL     1      53.355   7.620  14.631  0.00  0.00    +0.000 HD
ATOM     18  H   UNL     1      51.853   7.253  13.930  0.00  0.00    +0.000 HD
ENDBRANCH   1  11
BRANCH   3  19
ATOM     19  C   UNL     1      47.140   8.465  13.306  0.00  0.00    +0.000 C 
BRANCH  19  20
ATOM     20  C   UNL     1      46.306   7.548  12.451  0.00  0.00    +0.000 A 
ATOM     21  C   UNL     1      46.909   6.752  11.470  0.00  0.00    +0.000 A 
ATOM     22  C   UNL     1      46.169   5.778  10.791  0.00  0.00    +0.000 A 
ATOM     23  C   UNL     1      44.809   5.586  11.057  0.00  0.00    +0.000 A 
ATOM     24  C   UNL     1      44.184   6.457  11.955  0.00  0.00    +0.000 A 
ATOM     25  C   UNL     1      44.926   7.415  12.659  0.00  0.00    +0.000 A 
BRANCH  23  26
ATOM     26  N   UNL     1      44.028   4.579  10.416  0.00  0.00    +0.000 N 
ATOM     27  H   UNL     1      43.978   4.811   9.422  0.00  0.00    +0.000 HD
BRANCH  26  28
ATOM     28  N   UNL     1      44.366   3.222  10.715  0.00  0.00    +0.000 NA
ATOM     29  C   UNL     1      43.353   2.733  11.665  0.00  0.00    +0.000 C 
BRANCH  28  30
ATOM     30  C   UNL     1      44.358   2.375   9.504  0.00  0.00    +0.000 C 
BRANCH  30  31
ATOM     31  C   UNL     1      45.644   2.490   8.652  0.00  0.00    +0.000 C 
ATOM     32  C   UNL     1      45.447   3.491   7.500  0.00  0.00    +0.000 C 
ATOM     33  C   UNL     1      46.729   3.641   6.679  0.00  0.00    +0.000 C 
ATOM     34  C   UNL     1      47.214   2.297   6.143  0.00  0.00    +0.000 C 
ATOM     35  C   UNL     1      47.373   1.273   7.258  0.00  0.00    +0.000 C 
ATOM     36  C   UNL     1      46.095   1.135   8.081  0.00  0.00    +0.000 C 
ENDBRANCH  30  31
ENDBRANCH  28  30
ENDBRANCH  26  28
ENDBRANCH  23  26
ENDBRANCH  19  20
ENDBRANCH   3  19
TORSDOF 7
ENDMDL
MODEL 4
REMARK VINA RESULT:    -7.788      1.247      1.433
REMARK INTER + INTRA:         -12.259
REMARK INTER:                 -11.288
REMARK INTRA:                  -0.971
REMARK UNBOUND:                -1.284
REMARK  Name = 
REMARK  10 active torsions:
REMARK  status: ('A' for Active; 'I' for Inactive)
REMARK    1  A    between atoms: C_1  and  C_2
REMARK    2  A    between atoms: C_7  and  C_8
REMARK    3  A    between atoms: N_10  and  C_11
REMARK    4  A    between atoms: C_11  and  C_12
REMARK    5  A    between atoms: C_15  and  N_16
REMARK    6  A    between atoms: N_16  and  N_17
REMARK    7  A    between atoms: N_17  and  C_18
REMARK    8  A    between atoms: N_17  and  C_19
REMARK    9  A    between atoms: C_19  and  C_20
REMARK   10  A    between atoms: N_29  and  C_30
REMARK                            x       y       z     vdW  Elec       q    Type
REMARK                         _______ _______ _______ _____ _____    ______ ____
ROOT
ATOM      1  C   UNL     1      48.595   8.408  14.538  0.00  0.00    +0.000 C 
ATOM      2  O   UNL     1      49.413   8.332  13.621  0.00  0.00    +0.000 OA
ATOM      3  N   UNL     1      47.261   8.668  14.307  0.00  0.00    +0.000 N 
ATOM      4  H   UNL     1      46.595   8.629  15.074  0.00  0.00    +0.000 HD
ENDROOT
BRANCH   1  11
ATOM      5  C   UNL     1      48.828   4.489  20.090  0.00  0.00    +0.000 C 
ATOM      6  C   UNL     1      48.864   5.424  18.920  0.00  0.00    +0.000 A 
ATOM      7  N   UNL     1      48.310   4.976  17.772  0.00  0.00    +0.000 NA
ATOM      8  C   UNL     1      48.275   5.787  16.701  0.00  0.00    +0.000 A 
ATOM      9  N   UNL     1      47.632   5.288  15.570  0.00  0.00    +0.000 N 
ATOM     10  C   UNL     1      48.827   7.072  16.791  0.00  0.00    +0.000 A 
ATOM     11  C   UNL     1      48.983   8.209  15.929  0.00  0.00    +0.000 A 
ATOM     12  C   UNL     1      49.573   9.204  16.703  0.00  0.00    +0.000 A 
ATOM     13  N   UNL     1      49.810   8.704  17.955  0.00  0.00    +0.000 N 
ATOM     14  C   UNL     1      50.414   9.426  19.051  0.00  0.00    +0.000 C 
ATOM     15  C   UNL     1      49.359   7.411  18.027  0.00  0.00    +0.000 A 
ATOM     16  N   UNL     1      49.408   6.636  19.122  0.00  0.00    +0.000 NA
ATOM     17  H   UNL     1      47.149   4.436  15.835  0.00  0.00    +0.000 HD
ATOM     18  H   UNL     1      47.027   5.980  15.139  0.00  0.00    +0.000 HD
ENDBRANCH   1  11
BRANCH   3  19
ATOM     19  C   UNL     1      46.785   8.865  12.961  0.00  0.00    +0.000 C 
BRANCH  19  20
ATOM     20  C   UNL     1      45.945   7.730  12.439  0.00  0.00    +0.000 A 
ATOM     21  C   UNL     1      44.715   7.986  11.821  0.00  0.00    +0.000 A 
ATOM     22  C   UNL     1      44.012   6.957  11.186  0.00  0.00    +0.000 A 
ATOM     23  C   UNL     1      44.504   5.647  11.167  0.00  0.00    +0.000 A 
ATOM     24  C   UNL     1      45.676   5.373  11.880  0.00  0.00    +0.000 A 
ATOM     25  C   UNL     1      46.399   6.405  12.494  0.00  0.00    +0.000 A 
BRANCH  23  26
ATOM     26  N   UNL     1      43.838   4.578  10.496  0.00  0.00    +0.000 N 
ATOM     27  H   UNL     1      43.773   4.825   9.507  0.00  0.00    +0.000 HD
BRANCH  26  28
ATOM     28  N   UNL     1      44.313   3.258  10.771  0.00  0.00    +0.000 NA
ATOM     29  C   UNL     1      43.406   2.683  11.779  0.00  0.00    +0.000 C 
BRANCH  28  30
ATOM     30  C   UNL     1      44.307   2.410   9.560  0.00  0.00    +0.000 C 
BRANCH  30  31
ATOM     31  C   UNL     1      45.599   2.516   8.717  0.00  0.00    +0.000 C 
ATOM     32  C   UNL     1      45.418   3.524   7.567  0.00  0.00    +0.000 C 
ATOM     33  C   UNL     1      46.707   3.666   6.755  0.00  0.00    +0.000 C 
ATOM     34  C   UNL     1      47.183   2.320   6.216  0.00  0.00    +0.000 C 
ATOM     35  C   UNL     1      47.326   1.290   7.328  0.00  0.00    +0.000 C 
ATOM     36  C   UNL     1      46.042   1.160   8.143  0.00  0.00    +0.000 C 
ENDBRANCH  30  31
ENDBRANCH  28  30
ENDBRANCH  26  28
ENDBRANCH  23  26
ENDBRANCH  19  20
ENDBRANCH   3  19
TORSDOF 7
ENDMDL
MODEL 5
REMARK VINA RESULT:    -7.704      1.295      2.492
REMARK INTER + INTRA:         -12.141
REMARK INTER:                 -11.049
REMARK INTRA:                  -1.092
REMARK UNBOUND:                -1.284
REMARK  Name = 
REMARK  10 active torsions:
REMARK  status: ('A' for Active; 'I' for Inactive)
REMARK    1  A    between atoms: C_1  and  C_2
REMARK    2  A    between atoms: C_7  and  C_8
REMARK    3  A    between atoms: N_10  and  C_11
REMARK    4  A    between atoms: C_11  and  C_12
REMARK    5  A    between atoms: C_15  and  N_16
REMARK    6  A    between atoms: N_16  and  N_17
REMARK    7  A    between atoms: N_17  and  C_18
REMARK    8  A    between atoms: N_17  and  C_19
REMARK    9  A    between atoms: C_19  and  C_20
REMARK   10  A    between atoms: N_29  and  C_30
REMARK                            x       y       z     vdW  Elec       q    Type
REMARK                         _______ _______ _______ _____ _____    ______ ____
ROOT
ATOM      1  C   UNL     1      48.480   7.099  14.734  0.00  0.00    +0.000 C 
ATOM      2  O   UNL     1      49.228   6.692  13.844  0.00  0.00    +0.000 OA
ATOM      3  N   UNL     1      47.435   7.957  14.473  0.00  0.00    +0.000 N 
ATOM      4  H   UNL     1      46.778   8.198  15.211  0.00  0.00    +0.000 HD
ENDROOT
BRANCH   1  11
ATOM      5  C   UNL     1      50.214   8.519  21.155  0.00  0.00    +0.000 C 
ATOM      6  C   UNL     1      49.775   8.104  19.783  0.00  0.00    +0.000 A 
ATOM      7  N   UNL     1      49.828   9.050  18.820  0.00  0.00    +0.000 NA
ATOM      8  C   UNL     1      49.487   8.724  17.561  0.00  0.00    +0.000 A 
ATOM      9  N   UNL     1      49.626   9.727  16.606  0.00  0.00    +0.000 N 
ATOM     10  C   UNL     1      49.067   7.418  17.277  0.00  0.00    +0.000 A 
ATOM     11  C   UNL     1      48.644   6.681  16.121  0.00  0.00    +0.000 A 
ATOM     12  C   UNL     1      48.439   5.372  16.549  0.00  0.00    +0.000 A 
ATOM     13  N   UNL     1      48.677   5.309  17.896  0.00  0.00    +0.000 N 
ATOM     14  C   UNL     1      48.569   4.123  18.716  0.00  0.00    +0.000 C 
ATOM     15  C   UNL     1      49.064   6.541  18.353  0.00  0.00    +0.000 A 
ATOM     16  N   UNL     1      49.404   6.822  19.622  0.00  0.00    +0.000 NA
ATOM     17  H   UNL     1      50.136  10.495  17.030  0.00  0.00    +0.000 HD
ATOM     18  H   UNL     1      50.050   9.383  15.750  0.00  0.00    +0.000 HD
ENDBRANCH   1  11
BRANCH   3  19
ATOM     19  C   UNL     1      47.190   8.412  13.128  0.00  0.00    +0.000 C 
BRANCH  19  20
ATOM     20  C   UNL     1      46.312   7.490  12.323  0.00  0.00    +0.000 A 
ATOM     21  C   UNL     1      46.874   6.627  11.375  0.00  0.00    +0.000 A 
ATOM     22  C   UNL     1      46.089   5.653  10.747  0.00  0.00    +0.000 A 
ATOM     23  C   UNL     1      44.725   5.528  11.033  0.00  0.00    +0.000 A 
ATOM     24  C   UNL     1      44.144   6.463  11.896  0.00  0.00    +0.000 A 
ATOM     25  C   UNL     1      44.930   7.422  12.548  0.00  0.00    +0.000 A 
BRANCH  23  26
ATOM     26  N   UNL     1      43.899   4.524  10.446  0.00  0.00    +0.000 N 
ATOM     27  H   UNL     1      43.732   4.789   9.473  0.00  0.00    +0.000 HD
BRANCH  26  28
ATOM     28  N   UNL     1      44.297   3.167  10.653  0.00  0.00    +0.000 NA
ATOM     29  C   UNL     1      43.322   2.576  11.585  0.00  0.00    +0.000 C 
BRANCH  28  30
ATOM     30  C   UNL     1      44.303   2.397   9.391  0.00  0.00    +0.000 C 
BRANCH  30  31
ATOM     31  C   UNL     1      45.631   2.498   8.604  0.00  0.00    +0.000 C 
ATOM     32  C   UNL     1      45.492   3.476   7.424  0.00  0.00    +0.000 C 
ATOM     33  C   UNL     1      46.815   3.613   6.667  0.00  0.00    +0.000 C 
ATOM     34  C   UNL     1      47.328   2.260   6.183  0.00  0.00    +0.000 C 
ATOM     35  C   UNL     1      47.431   1.259   7.325  0.00  0.00    +0.000 C 
ATOM     36  C   UNL     1      46.113   1.134   8.084  0.00  0.00    +0.000 C 
ENDBRANCH  30  31
ENDBRANCH  28  30
ENDBRANCH  26  28
ENDBRANCH  23  26
ENDBRANCH  19  20
ENDBRANCH   3  19
TORSDOF 7
ENDMDL
MODEL 6
REMARK VINA RESULT:    -7.681      1.451      1.798
REMARK INTER + INTRA:         -12.108
REMARK INTER:                 -11.037
REMARK INTRA:                  -1.071
REMARK UNBOUND:                -1.284
REMARK  Name = 
REMARK  10 active torsions:
REMARK  status: ('A' for Active; 'I' for Inactive)
REMARK    1  A    between atoms: C_1  and  C_2
REMARK    2  A    between atoms: C_7  and  C_8
REMARK    3  A    between atoms: N_10  and  C_11
REMARK    4  A    between atoms: C_11  and  C_12
REMARK    5  A    between atoms: C_15  and  N_16
REMARK    6  A    between atoms: N_16  and  N_17
REMARK    7  A    between atoms: N_17  and  C_18
REMARK    8  A    between atoms: N_17  and  C_19
REMARK    9  A    between atoms: C_19  and  C_20
REMARK   10  A    between atoms: N_29  and  C_30
REMARK                            x       y       z     vdW  Elec       q    Type
REMARK                         _______ _______ _______ _____ _____    ______ ____
ROOT
ATOM      1  C   UNL     1      48.496   8.370  14.903  0.00  0.00    +0.000 C 
ATOM      2  O   UNL     1      47.698   8.924  15.661  0.00  0.00    +0.000 OA
ATOM      3  N   UNL     1      48.262   8.262  13.550  0.00  0.00    +0.000 N 
ATOM      4  H   UNL     1      48.982   7.886  12.938  0.00  0.00    +0.000 HD
ENDROOT
BRANCH   1  11
ATOM      5  C   UNL     1      51.882   3.498  18.225  0.00  0.00    +0.000 C 
ATOM      6  C   UNL     1      51.245   4.607  17.445  0.00  0.00    +0.000 A 
ATOM      7  N   UNL     1      49.904   4.546  17.292  0.00  0.00    +0.000 NA
ATOM      8  C   UNL     1      49.272   5.536  16.638  0.00  0.00    +0.000 A 
ATOM      9  N   UNL     1      47.885   5.444  16.572  0.00  0.00    +0.000 N 
ATOM     10  C   UNL     1      50.018   6.600  16.113  0.00  0.00    +0.000 A 
ATOM     11  C   UNL     1      49.751   7.810  15.390  0.00  0.00    +0.000 A 
ATOM     12  C   UNL     1      50.975   8.456  15.250  0.00  0.00    +0.000 A 
ATOM     13  N   UNL     1      51.950   7.676  15.811  0.00  0.00    +0.000 N 
ATOM     14  C   UNL     1      53.359   7.996  15.867  0.00  0.00    +0.000 C 
ATOM     15  C   UNL     1      51.385   6.547  16.345  0.00  0.00    +0.000 A 
ATOM     16  N   UNL     1      52.054   5.583  16.998  0.00  0.00    +0.000 NA
ATOM     17  H   UNL     1      47.590   4.703  17.200  0.00  0.00    +0.000 HD
ATOM     18  H   UNL     1      47.434   6.335  16.759  0.00  0.00    +0.000 HD
ENDBRANCH   1  11
BRANCH   3  19
ATOM     19  C   UNL     1      47.052   8.799  12.979  0.00  0.00    +0.000 C 
BRANCH  19  20
ATOM     20  C   UNL     1      46.234   7.788  12.220  0.00  0.00    +0.000 A 
ATOM     21  C   UNL     1      46.863   6.771  11.492  0.00  0.00    +0.000 A 
ATOM     22  C   UNL     1      46.114   5.734  10.927  0.00  0.00    +0.000 A 
ATOM     23  C   UNL     1      44.721   5.693  11.056  0.00  0.00    +0.000 A 
ATOM     24  C   UNL     1      44.086   6.767  11.687  0.00  0.00    +0.000 A 
ATOM     25  C   UNL     1      44.834   7.795  12.279  0.00  0.00    +0.000 A 
BRANCH  23  26
ATOM     26  N   UNL     1      43.925   4.633  10.530  0.00  0.00    +0.000 N 
ATOM     27  H   UNL     1      43.755   4.834   9.542  0.00  0.00    +0.000 HD
BRANCH  26  28
ATOM     28  N   UNL     1      44.358   3.302  10.821  0.00  0.00    +0.000 NA
ATOM     29  C   UNL     1      43.441   2.772  11.844  0.00  0.00    +0.000 C 
BRANCH  28  30
ATOM     30  C   UNL     1      44.318   2.437   9.624  0.00  0.00    +0.000 C 
BRANCH  30  31
ATOM     31  C   UNL     1      45.595   2.511   8.755  0.00  0.00    +0.000 C 
ATOM     32  C   UNL     1      45.408   3.506   7.594  0.00  0.00    +0.000 C 
ATOM     33  C   UNL     1      46.683   3.616   6.757  0.00  0.00    +0.000 C 
ATOM     34  C   UNL     1      47.128   2.256   6.228  0.00  0.00    +0.000 C 
ATOM     35  C   UNL     1      47.277   1.240   7.352  0.00  0.00    +0.000 C 
ATOM     36  C   UNL     1      46.006   1.141   8.192  0.00  0.00    +0.000 C 
ENDBRANCH  30  31
ENDBRANCH  28  30
ENDBRANCH  26  28
ENDBRANCH  23  26
ENDBRANCH  19  20
ENDBRANCH   3  19
TORSDOF 7
ENDMDL
MODEL 7
REMARK VINA RESULT:    -6.903      2.863      3.837
REMARK INTER + INTRA:         -11.012
REMARK INTER:                  -9.916
REMARK INTRA:                  -1.095
REMARK UNBOUND:                -1.284
REMARK  Name = 
REMARK  10 active torsions:
REMARK  status: ('A' for Active; 'I' for Inactive)
REMARK    1  A    between atoms: C_1  and  C_2
REMARK    2  A    between atoms: C_7  and  C_8
REMARK    3  A    between atoms: N_10  and  C_11
REMARK    4  A    between atoms: C_11  and  C_12
REMARK    5  A    between atoms: C_15  and  N_16
REMARK    6  A    between atoms: N_16  and  N_17
REMARK    7  A    between atoms: N_17  and  C_18
REMARK    8  A    between atoms: N_17  and  C_19
REMARK    9  A    between atoms: C_19  and  C_20
REMARK   10  A    between atoms: N_29  and  C_30
REMARK                            x       y       z     vdW  Elec       q    Type
REMARK                         _______ _______ _______ _____ _____    ______ ____
ROOT
ATOM      1  C   UNL     1      48.466   9.668  14.782  0.00  0.00    +0.000 C 
ATOM      2  O   UNL     1      49.178  10.511  14.233  0.00  0.00    +0.000 OA
ATOM      3  N   UNL     1      47.576   8.892  14.072  0.00  0.00    +0.000 N 
ATOM      4  H   UNL     1      47.073   8.141  14.537  0.00  0.00    +0.000 HD
ENDROOT
BRANCH   1  11
ATOM      5  C   UNL     1      48.405  12.009  21.166  0.00  0.00    +0.000 C 
ATOM      6  C   UNL     1      48.398  11.380  19.806  0.00  0.00    +0.000 A 
ATOM      7  N   UNL     1      48.253  12.215  18.754  0.00  0.00    +0.000 NA
ATOM      8  C   UNL     1      48.282  11.713  17.508  0.00  0.00    +0.000 A 
ATOM      9  N   UNL     1      48.194  12.635  16.468  0.00  0.00    +0.000 N 
ATOM     10  C   UNL     1      48.443  10.333  17.325  0.00  0.00    +0.000 A 
ATOM     11  C   UNL     1      48.535   9.425  16.217  0.00  0.00    +0.000 A 
ATOM     12  C   UNL     1      48.770   8.168  16.764  0.00  0.00    +0.000 A 
ATOM     13  N   UNL     1      48.779   8.277  18.129  0.00  0.00    +0.000 N 
ATOM     14  C   UNL     1      48.989   7.192  19.060  0.00  0.00    +0.000 C 
ATOM     15  C   UNL     1      48.587   9.586  18.487  0.00  0.00    +0.000 A 
ATOM     16  N   UNL     1      48.572  10.048  19.747  0.00  0.00    +0.000 NA
ATOM     17  H   UNL     1      48.295  13.564  16.865  0.00  0.00    +0.000 HD
ATOM     18  H   UNL     1      48.856  12.438  15.726  0.00  0.00    +0.000 HD
ENDBRANCH   1  11
BRANCH   3  19
ATOM     19  C   UNL     1      47.450   9.055  12.645  0.00  0.00    +0.000 C 
BRANCH  19  20
ATOM     20  C   UNL     1      46.572   8.023  11.989  0.00  0.00    +0.000 A 
ATOM     21  C   UNL     1      47.117   6.820  11.526  0.00  0.00    +0.000 A 
ATOM     22  C   UNL     1      46.285   5.791  11.071  0.00  0.00    +0.000 A 
ATOM     23  C   UNL     1      44.894   5.941  11.048  0.00  0.00    +0.000 A 
ATOM     24  C   UNL     1      44.359   7.183  11.405  0.00  0.00    +0.000 A 
ATOM     25  C   UNL     1      45.185   8.207  11.888  0.00  0.00    +0.000 A 
BRANCH  23  26
ATOM     26  N   UNL     1      44.009   4.903  10.629  0.00  0.00    +0.000 N 
ATOM     27  H   UNL     1      43.691   5.129   9.685  0.00  0.00    +0.000 HD
BRANCH  26  28
ATOM     28  N   UNL     1      44.462   3.561  10.822  0.00  0.00    +0.000 NA
ATOM     29  C   UNL     1      43.642   2.988  11.903  0.00  0.00    +0.000 C 
BRANCH  28  30
ATOM     30  C   UNL     1      44.305   2.748   9.598  0.00  0.00    +0.000 C 
BRANCH  30  31
ATOM     31  C   UNL     1      45.596   2.632   8.754  0.00  0.00    +0.000 C 
ATOM     32  C   UNL     1      45.549   3.591   7.551  0.00  0.00    +0.000 C 
ATOM     33  C   UNL     1      46.841   3.512   6.737  0.00  0.00    +0.000 C 
ATOM     34  C   UNL     1      47.129   2.087   6.274  0.00  0.00    +0.000 C 
ATOM     35  C   UNL     1      47.136   1.110   7.441  0.00  0.00    +0.000 C 
ATOM     36  C   UNL     1      45.850   1.199   8.258  0.00  0.00    +0.000 C 
ENDBRANCH  30  31
ENDBRANCH  28  30
ENDBRANCH  26  28
ENDBRANCH  23  26
ENDBRANCH  19  20
ENDBRANCH   3  19
TORSDOF 7
ENDMDL
MODEL 8
REMARK VINA RESULT:    -6.850      1.940      2.511
REMARK INTER + INTRA:         -10.937
REMARK INTER:                  -9.759
REMARK INTRA:                  -1.179
REMARK UNBOUND:                -1.284
REMARK  Name = 
REMARK  10 active torsions:
REMARK  status: ('A' for Active; 'I' for Inactive)
REMARK    1  A    between atoms: C_1  and  C_2
REMARK    2  A    between atoms: C_7  and  C_8
REMARK    3  A    between atoms: N_10  and  C_11
REMARK    4  A    between atoms: C_11  and  C_12
REMARK    5  A    between atoms: C_15  and  N_16
REMARK    6  A    between atoms: N_16  and  N_17
REMARK    7  A    between atoms: N_17  and  C_18
REMARK    8  A    between atoms: N_17  and  C_19
REMARK    9  A    between atoms: C_19  and  C_20
REMARK   10  A    between atoms: N_29  and  C_30
REMARK                            x       y       z     vdW  Elec       q    Type
REMARK                         _______ _______ _______ _____ _____    ______ ____
ROOT
ATOM      1  C   UNL     1      50.054   7.811  15.369  0.00  0.00    +0.000 C 
ATOM      2  O   UNL     1      49.379   8.822  15.567  0.00  0.00    +0.000 OA
ATOM      3  N   UNL     1      50.140   7.223  14.126  0.00  0.00    +0.000 N 
ATOM      4  H   UNL     1      50.780   6.448  13.974  0.00  0.00    +0.000 HD
ENDROOT
BRANCH   1  11
ATOM      5  C   UNL     1      50.340   5.010  21.559  0.00  0.00    +0.000 C 
ATOM      6  C   UNL     1      50.388   5.577  20.173  0.00  0.00    +0.000 A 
ATOM      7  N   UNL     1      49.219   6.016  19.658  0.00  0.00    +0.000 NA
ATOM      8  C   UNL     1      49.208   6.574  18.435  0.00  0.00    +0.000 A 
ATOM      9  N   UNL     1      47.983   7.065  17.992  0.00  0.00    +0.000 N 
ATOM     10  C   UNL     1      50.404   6.671  17.712  0.00  0.00    +0.000 A 
ATOM     11  C   UNL     1      50.820   7.182  16.437  0.00  0.00    +0.000 A 
ATOM     12  C   UNL     1      52.201   7.017  16.385  0.00  0.00    +0.000 A 
ATOM     13  N   UNL     1      52.613   6.401  17.536  0.00  0.00    +0.000 N 
ATOM     14  C   UNL     1      53.977   6.051  17.863  0.00  0.00    +0.000 C 
ATOM     15  C   UNL     1      51.536   6.188  18.356  0.00  0.00    +0.000 A 
ATOM     16  N   UNL     1      51.591   5.632  19.577  0.00  0.00    +0.000 NA
ATOM     17  H   UNL     1      47.340   7.057  18.777  0.00  0.00    +0.000 HD
ATOM     18  H   UNL     1      48.073   7.975  17.552  0.00  0.00    +0.000 HD
ENDBRANCH   1  11
BRANCH   3  19
ATOM     19  C   UNL     1      49.425   7.785  13.008  0.00  0.00    +0.000 C 
BRANCH  19  20
ATOM     20  C   UNL     1      48.192   7.012  12.621  0.00  0.00    +0.000 A 
ATOM     21  C   UNL     1      47.890   5.800  13.251  0.00  0.00    +0.000 A 
ATOM     22  C   UNL     1      46.666   5.163  13.020  0.00  0.00    +0.000 A 
ATOM     23  C   UNL     1      45.722   5.708  12.142  0.00  0.00    +0.000 A 
ATOM     24  C   UNL     1      46.071   6.860  11.430  0.00  0.00    +0.000 A 
ATOM     25  C   UNL     1      47.284   7.516  11.679  0.00  0.00    +0.000 A 
BRANCH  23  26
ATOM     26  N   UNL     1      44.446   5.113  11.909  0.00  0.00    +0.000 N 
ATOM     27  H   UNL     1      43.842   5.826  11.497  0.00  0.00    +0.000 HD
BRANCH  26  28
ATOM     28  N   UNL     1      44.443   3.846  11.246  0.00  0.00    +0.000 NA
ATOM     29  C   UNL     1      43.717   2.911  12.121  0.00  0.00    +0.000 C 
BRANCH  28  30
ATOM     30  C   UNL     1      43.771   3.916   9.932  0.00  0.00    +0.000 C 
BRANCH  30  31
ATOM     31  C   UNL     1      44.624   3.368   8.763  0.00  0.00    +0.000 C 
ATOM     32  C   UNL     1      45.268   2.023   9.143  0.00  0.00    +0.000 C 
ATOM     33  C   UNL     1      46.078   1.454   7.977  0.00  0.00    +0.000 C 
ATOM     34  C   UNL     1      47.141   2.439   7.497  0.00  0.00    +0.000 C 
ATOM     35  C   UNL     1      46.536   3.795   7.158  0.00  0.00    +0.000 C 
ATOM     36  C   UNL     1      45.719   4.353   8.320  0.00  0.00    +0.000 C 
ENDBRANCH  30  31
ENDBRANCH  28  30
ENDBRANCH  26  28
ENDBRANCH  23  26
ENDBRANCH  19  20
ENDBRANCH   3  19
TORSDOF 7
ENDMDL
MODEL 9
REMARK VINA RESULT:    -6.786      3.247      9.956
REMARK INTER + INTRA:         -10.848
REMARK INTER:                  -9.204
REMARK INTRA:                  -1.643
REMARK UNBOUND:                -1.284
REMARK  Name = 
REMARK  10 active torsions:
REMARK  status: ('A' for Active; 'I' for Inactive)
REMARK    1  A    between atoms: C_1  and  C_2
REMARK    2  A    between atoms: C_7  and  C_8
REMARK    3  A    between atoms: N_10  and  C_11
REMARK    4  A    between atoms: C_11  and  C_12
REMARK    5  A    between atoms: C_15  and  N_16
REMARK    6  A    between atoms: N_16  and  N_17
REMARK    7  A    between atoms: N_17  and  C_18
REMARK    8  A    between atoms: N_17  and  C_19
REMARK    9  A    between atoms: C_19  and  C_20
REMARK   10  A    between atoms: N_29  and  C_30
REMARK                            x       y       z     vdW  Elec       q    Type
REMARK                         _______ _______ _______ _____ _____    ______ ____
ROOT
ATOM      1  C   UNL     1      46.753   4.200  14.272  0.00  0.00    +0.000 C 
ATOM      2  O   UNL     1      47.574   3.419  13.789  0.00  0.00    +0.000 OA
ATOM      3  N   UNL     1      46.568   4.313  15.633  0.00  0.00    +0.000 N 
ATOM      4  H   UNL     1      45.954   5.033  16.005  0.00  0.00    +0.000 HD
ENDROOT
BRANCH   1  11
ATOM      5  C   UNL     1      45.474  10.337  11.638  0.00  0.00    +0.000 C 
ATOM      6  C   UNL     1      45.680   8.938  12.132  0.00  0.00    +0.000 A 
ATOM      7  N   UNL     1      46.743   8.732  12.940  0.00  0.00    +0.000 NA
ATOM      8  C   UNL     1      46.953   7.506  13.448  0.00  0.00    +0.000 A 
ATOM      9  N   UNL     1      48.028   7.378  14.325  0.00  0.00    +0.000 N 
ATOM     10  C   UNL     1      46.078   6.464  13.117  0.00  0.00    +0.000 A 
ATOM     11  C   UNL     1      45.939   5.071  13.434  0.00  0.00    +0.000 A 
ATOM     12  C   UNL     1      44.774   4.644  12.803  0.00  0.00    +0.000 A 
ATOM     13  N   UNL     1      44.246   5.693  12.100  0.00  0.00    +0.000 N 
ATOM     14  C   UNL     1      43.039   5.654  11.307  0.00  0.00    +0.000 C 
ATOM     15  C   UNL     1      45.023   6.808  12.284  0.00  0.00    +0.000 A 
ATOM     16  N   UNL     1      44.772   8.019  11.761  0.00  0.00    +0.000 NA
ATOM     17  H   UNL     1      48.361   8.310  14.551  0.00  0.00    +0.000 HD
ATOM     18  H   UNL     1      47.790   6.824  15.142  0.00  0.00    +0.000 HD
ENDBRANCH   1  11
BRANCH   3  19
ATOM     19  C   UNL     1      47.341   3.500  16.539  0.00  0.00    +0.000 C 
BRANCH  19  20
ATOM     20  C   UNL     1      48.602   4.162  17.027  0.00  0.00    +0.000 A 
ATOM     21  C   UNL     1      48.691   5.557  17.088  0.00  0.00    +0.000 A 
ATOM     22  C   UNL     1      49.790   6.173  17.696  0.00  0.00    +0.000 A 
ATOM     23  C   UNL     1      50.835   5.418  18.240  0.00  0.00    +0.000 A 
ATOM     24  C   UNL     1      50.797   4.029  18.079  0.00  0.00    +0.000 A 
ATOM     25  C   UNL     1      49.685   3.405  17.495  0.00  0.00    +0.000 A 
BRANCH  23  26
ATOM     26  N   UNL     1      51.953   6.005  18.904  0.00  0.00    +0.000 N 
ATOM     27  H   UNL     1      51.970   6.997  18.662  0.00  0.00    +0.000 HD
BRANCH  26  28
ATOM     28  N   UNL     1      52.099   5.708  20.295  0.00  0.00    +0.000 NA
ATOM     29  C   UNL     1      53.532   5.461  20.527  0.00  0.00    +0.000 C 
BRANCH  28  30
ATOM     30  C   UNL     1      51.645   6.827  21.146  0.00  0.00    +0.000 C 
BRANCH  30  31
ATOM     31  C   UNL     1      50.171   6.712  21.598  0.00  0.00    +0.000 C 
ATOM     32  C   UNL     1      49.674   5.260  21.471  0.00  0.00    +0.000 C 
ATOM     33  C   UNL     1      48.229   5.131  21.957  0.00  0.00    +0.000 C 
ATOM     34  C   UNL     1      47.298   6.082  21.210  0.00  0.00    +0.000 C 
ATOM     35  C   UNL     1      47.792   7.520  21.281  0.00  0.00    +0.000 C 
ATOM     36  C   UNL     1      49.237   7.643  20.806  0.00  0.00    +0.000 C 
ENDBRANCH  30  31
ENDBRANCH  28  30
ENDBRANCH  26  28
ENDBRANCH  23  26
ENDBRANCH  19  20
ENDBRANCH   3  19
TORSDOF 7
ENDMDL
