MODEL 1
REMARK VINA RESULT:    -8.642      0.000      0.000
REMARK INTER + INTRA:         -13.558
REMARK INTER:                 -12.432
REMARK INTRA:                  -1.126
REMARK UNBOUND:                -1.126
REMARK  Name = 
REMARK  8 active torsions:
REMARK  status: ('A' for Active; 'I' for Inactive)
REMARK    1  A    between atoms: N_1  and  C_2
REMARK    2  A    between atoms: C_2  and  C_3
REMARK    3  A    between atoms: C_2  and  C_24
REMARK    4  A    between atoms: C_3  and  C_4
REMARK    5  A    between atoms: C_8  and  C_9
REMARK    6  A    between atoms: C_9  and  N_10
REMARK    7  A    between atoms: C_11  and  C_13
REMARK    8  A    between atoms: C_24  and  C_26
REMARK                            x       y       z     vdW  Elec       q    Type
REMARK                         _______ _______ _______ _____ _____    ______ ____
ROOT
ATOM      1  C   UNL     1      45.837   5.155  12.348  0.00  0.00    +0.000 A 
ATOM      2  C   UNL     1      46.840   6.064  12.008  0.00  0.00    +0.000 A 
ATOM      3  C   UNL     1      47.824   6.354  12.940  0.00  0.00    +0.000 A 
ATOM      4  N   UNL     1      47.885   5.792  14.166  0.00  0.00    +0.000 NA
ATOM      5  C   UNL     1      46.903   4.914  14.493  0.00  0.00    +0.000 A 
ATOM      6  C   UNL     1      45.857   4.593  13.628  0.00  0.00    +0.000 A 
ENDROOT
BRANCH   1   7
ATOM      7  C   UNL     1      44.759   4.786  11.356  0.00  0.00    +0.000 C 
BRANCH   7   8
ATOM      8  C   UNL     1      44.956   3.416  10.684  0.00  0.00    +0.000 C 
BRANCH   8   9
ATOM      9  N   UNL     1      43.901   2.452  11.105  0.00  0.00    +0.000 NA
ATOM     10  H   UNL     1      43.263   2.315  10.323  0.00  0.00    +0.000 HD
ATOM     11  H   UNL     1      43.336   2.918  11.822  0.00  0.00    +0.000 HD
ENDBRANCH   8   9
BRANCH   8  12
ATOM     12  C   UNL     1      44.862   3.592   9.155  0.00  0.00    +0.000 C 
ATOM     13  O   UNL     1      44.034   4.346   8.637  0.00  0.00    +0.000 OA
BRANCH  12  14
ATOM     14  C   UNL     1      45.813   2.826   8.297  0.00  0.00    +0.000 A 
ATOM     15  C   UNL     1      46.511   3.478   7.283  0.00  0.00    +0.000 A 
ATOM     16  C   UNL     1      47.353   2.725   6.469  0.00  0.00    +0.000 A 
ATOM     17  C   UNL     1      47.469   1.358   6.692  0.00  0.00    +0.000 A 
ATOM     18  C   UNL     1      46.746   0.796   7.733  0.00  0.00    +0.000 A 
ATOM     19  N   UNL     1      45.923   1.500   8.544  0.00  0.00    +0.000 NA
ENDBRANCH  12  14
ENDBRANCH   8  12
ENDBRANCH   7   8
ENDBRANCH   1   7
BRANCH   5  20
ATOM     20  C   UNL     1      46.978   4.285  15.862  0.00  0.00    +0.000 C 
BRANCH  20  21
ATOM     21  N   UNL     1      48.336   4.156  16.330  0.00  0.00    +0.000 N 
ATOM     22  C   UNL     1      48.726   4.557  17.576  0.00  0.00    +0.000 C 
ATOM     23  O   UNL     1      47.942   5.054  18.382  0.00  0.00    +0.000 OA
ATOM     24  H   UNL     1      49.032   3.994  15.607  0.00  0.00    +0.000 HD
BRANCH  22  25
ATOM     25  C   UNL     1      50.123   4.284  17.941  0.00  0.00    +0.000 A 
ATOM     26  C   UNL     1      50.864   5.261  18.596  0.00  0.00    +0.000 A 
ATOM     27  S   UNL     1      52.442   4.765  19.008  0.00  0.00    +0.000 S 
ATOM     28  C   UNL     1      52.210   3.241  18.286  0.00  0.00    +0.000 A 
ATOM     29  N   UNL     1      53.207   2.316  18.274  0.00  0.00    +0.000 NA
ATOM     30  C   UNL     1      52.905   1.217  17.664  0.00  0.00    +0.000 A 
ATOM     31  N   UNL     1      51.697   0.958  17.074  0.00  0.00    +0.000 N 
ATOM     32  C   UNL     1      50.644   1.841  17.107  0.00  0.00    +0.000 A 
ATOM     33  O   UNL     1      49.551   1.543  16.644  0.00  0.00    +0.000 OA
ATOM     34  C   UNL     1      50.940   3.107  17.754  0.00  0.00    +0.000 A 
ATOM     35  H   UNL     1      51.516   0.071  16.628  0.00  0.00    +0.000 HD
ENDBRANCH  22  25
ENDBRANCH  20  21
ENDBRANCH   5  20
TORSDOF 8
ENDMDL
MODEL 2
REMARK VINA RESULT:    -8.631      2.554      3.385
REMARK INTER + INTRA:         -13.541
REMARK INTER:                 -12.042
REMARK INTRA:                  -1.499
REMARK UNBOUND:                -1.126
REMARK  Name = 
REMARK  8 active torsions:
REMARK  status: ('A' for Active; 'I' for Inactive)
REMARK    1  A    between atoms: N_1  and  C_2
REMARK    2  A    between atoms: C_2  and  C_3
REMARK    3  A    between atoms: C_2  and  C_24
REMARK    4  A    between atoms: C_3  and  C_4
REMARK    5  A    between atoms: C_8  and  C_9
REMARK    6  A    between atoms: C_9  and  N_10
REMARK    7  A    between atoms: C_11  and  C_13
REMARK    8  A    between atoms: C_24  and  C_26
REMARK                            x       y       z     vdW  Elec       q    Type
REMARK                         _______ _______ _______ _____ _____    ______ ____
ROOT
ATOM      1  C   UNL     1      44.606   6.322  12.269  0.00  0.00    +0.000 A 
ATOM      2  C   UNL     1      43.910   7.189  11.426  0.00  0.00    +0.000 A 
ATOM      3  C   UNL     1      44.355   8.495  11.295  0.00  0.00    +0.000 A 
ATOM      4  N   UNL     1      45.443   8.984  11.927  0.00  0.00    +0.000 NA
ATOM      5  C   UNL     1      46.111   8.138  12.752  0.00  0.00    +0.000 A 
ATOM      6  C   UNL     1      45.711   6.819  12.966  0.00  0.00    +0.000 A 
ENDROOT
BRANCH   1   7
ATOM      7  C   UNL     1      44.177   4.881  12.422  0.00  0.00    +0.000 C 
BRANCH   7   8
ATOM      8  C   UNL     1      45.148   3.859  11.805  0.00  0.00    +0.000 C 
BRANCH   8   9
ATOM      9  N   UNL     1      45.513   2.801  12.788  0.00  0.00    +0.000 NA
ATOM     10  H   UNL     1      45.296   3.143  13.722  0.00  0.00    +0.000 HD
ATOM     11  H   UNL     1      46.535   2.716  12.774  0.00  0.00    +0.000 HD
ENDBRANCH   8   9
BRANCH   8  12
ATOM     12  C   UNL     1      44.462   3.182  10.602  0.00  0.00    +0.000 C 
ATOM     13  O   UNL     1      43.291   2.797  10.654  0.00  0.00    +0.000 OA
BRANCH  12  14
ATOM     14  C   UNL     1      45.252   3.001   9.349  0.00  0.00    +0.000 A 
ATOM     15  C   UNL     1      45.512   4.097   8.530  0.00  0.00    +0.000 A 
ATOM     16  C   UNL     1      46.209   3.887   7.343  0.00  0.00    +0.000 A 
ATOM     17  C   UNL     1      46.621   2.599   7.017  0.00  0.00    +0.000 A 
ATOM     18  C   UNL     1      46.328   1.571   7.899  0.00  0.00    +0.000 A 
ATOM     19  N   UNL     1      45.657   1.742   9.060  0.00  0.00    +0.000 NA
ENDBRANCH  12  14
ENDBRANCH   8  12
ENDBRANCH   7   8
ENDBRANCH   1   7
BRANCH   5  20
ATOM     20  C   UNL     1      47.329   8.686  13.452  0.00  0.00    +0.000 C 
BRANCH  20  21
ATOM     21  N   UNL     1      47.658   7.937  14.641  0.00  0.00    +0.000 N 
ATOM     22  C   UNL     1      48.589   6.937  14.646  0.00  0.00    +0.000 C 
ATOM     23  O   UNL     1      49.209   6.612  13.636  0.00  0.00    +0.000 OA
ATOM     24  H   UNL     1      46.989   8.013  15.402  0.00  0.00    +0.000 HD
BRANCH  22  25
ATOM     25  C   UNL     1      48.877   6.322  15.950  0.00  0.00    +0.000 A 
ATOM     26  C   UNL     1      49.818   6.905  16.790  0.00  0.00    +0.000 A 
ATOM     27  S   UNL     1      49.987   6.109  18.288  0.00  0.00    +0.000 S 
ATOM     28  C   UNL     1      48.842   4.929  17.851  0.00  0.00    +0.000 A 
ATOM     29  N   UNL     1      48.525   3.916  18.702  0.00  0.00    +0.000 NA
ATOM     30  C   UNL     1      47.666   3.073  18.231  0.00  0.00    +0.000 A 
ATOM     31  N   UNL     1      47.092   3.156  16.990  0.00  0.00    +0.000 N 
ATOM     32  C   UNL     1      47.341   4.190  16.118  0.00  0.00    +0.000 A 
ATOM     33  O   UNL     1      46.746   4.278  15.053  0.00  0.00    +0.000 OA
ATOM     34  C   UNL     1      48.325   5.150  16.588  0.00  0.00    +0.000 A 
ATOM     35  H   UNL     1      46.413   2.475  16.685  0.00  0.00    +0.000 HD
ENDBRANCH  22  25
ENDBRANCH  20  21
ENDBRANCH   5  20
TORSDOF 8
ENDMDL
MODEL 3
REMARK VINA RESULT:    -8.575      1.927      2.441
REMARK INTER + INTRA:         -13.461
REMARK INTER:                 -12.716
REMARK INTRA:                  -0.744
REMARK UNBOUND:                -1.126
REMARK  Name = 
REMARK  8 active torsions:
REMARK  status: ('A' for Active; 'I' for Inactive)
REMARK    1  A    between atoms: N_1  and  C_2
REMARK    2  A    between atoms: C_2  and  C_3
REMARK    3  A    between atoms: C_2  and  C_24
REMARK    4  A    between atoms: C_3  and  C_4
REMARK    5  A    between atoms: C_8  and  C_9
REMARK    6  A    between atoms: C_9  and  N_10
REMARK    7  A    between atoms: C_11  and  C_13
REMARK    8  A    between atoms: C_24  and  C_26
REMARK                            x       y       z     vdW  Elec       q    Type
REMARK                         _______ _______ _______ _____ _____    ______ ____
ROOT
ATOM      1  C   UNL     1      44.683   5.363  11.718  0.00  0.00    +0.000 A 
ATOM      2  C   UNL     1      45.008   6.709  11.891  0.00  0.00    +0.000 A 
ATOM      3  C   UNL     1      45.930   7.055  12.866  0.00  0.00    +0.000 A 
ATOM      4  N   UNL     1      46.556   6.158  13.658  0.00  0.00    +0.000 NA
ATOM      5  C   UNL     1      46.231   4.851  13.489  0.00  0.00    +0.000 A 
ATOM      6  C   UNL     1      45.289   4.422  12.555  0.00  0.00    +0.000 A 
ENDROOT
BRANCH   1   7
ATOM      7  C   UNL     1      43.705   4.934  10.649  0.00  0.00    +0.000 C 
BRANCH   7   8
ATOM      8  C   UNL     1      44.345   4.646   9.280  0.00  0.00    +0.000 C 
BRANCH   8   9
ATOM      9  N   UNL     1      45.644   5.360   9.131  0.00  0.00    +0.000 NA
ATOM     10  H   UNL     1      46.202   5.185   9.965  0.00  0.00    +0.000 HD
ATOM     11  H   UNL     1      45.441   6.364   9.160  0.00  0.00    +0.000 HD
ENDBRANCH   8   9
BRANCH   8  12
ATOM     12  C   UNL     1      44.613   3.132   9.163  0.00  0.00    +0.000 C 
ATOM     13  O   UNL     1      44.055   2.314   9.899  0.00  0.00    +0.000 OA
BRANCH  12  14
ATOM     14  C   UNL     1      45.573   2.664   8.120  0.00  0.00    +0.000 A 
ATOM     15  C   UNL     1      46.204   1.431   8.263  0.00  0.00    +0.000 A 
ATOM     16  C   UNL     1      47.131   1.045   7.298  0.00  0.00    +0.000 A 
ATOM     17  C   UNL     1      47.393   1.897   6.231  0.00  0.00    +0.000 A 
ATOM     18  C   UNL     1      46.708   3.100   6.164  0.00  0.00    +0.000 A 
ATOM     19  N   UNL     1      45.800   3.502   7.082  0.00  0.00    +0.000 NA
ENDBRANCH  12  14
ENDBRANCH   8  12
ENDBRANCH   7   8
ENDBRANCH   1   7
BRANCH   5  20
ATOM     20  C   UNL     1      46.936   3.853  14.373  0.00  0.00    +0.000 C 
BRANCH  20  21
ATOM     21  N   UNL     1      47.530   4.473  15.531  0.00  0.00    +0.000 N 
ATOM     22  C   UNL     1      47.279   4.047  16.805  0.00  0.00    +0.000 C 
ATOM     23  O   UNL     1      46.530   3.103  17.046  0.00  0.00    +0.000 OA
ATOM     24  H   UNL     1      47.935   5.392  15.373  0.00  0.00    +0.000 HD
BRANCH  22  25
ATOM     25  C   UNL     1      48.023   4.723  17.877  0.00  0.00    +0.000 A 
ATOM     26  C   UNL     1      47.401   5.720  18.619  0.00  0.00    +0.000 A 
ATOM     27  S   UNL     1      48.375   6.356  19.866  0.00  0.00    +0.000 S 
ATOM     28  C   UNL     1      49.680   5.354  19.432  0.00  0.00    +0.000 A 
ATOM     29  N   UNL     1      50.859   5.411  20.108  0.00  0.00    +0.000 NA
ATOM     30  C   UNL     1      51.773   4.619  19.652  0.00  0.00    +0.000 A 
ATOM     31  N   UNL     1      51.612   3.771  18.589  0.00  0.00    +0.000 N 
ATOM     32  C   UNL     1      50.424   3.640  17.910  0.00  0.00    +0.000 A 
ATOM     33  O   UNL     1      50.290   2.812  17.020  0.00  0.00    +0.000 OA
ATOM     34  C   UNL     1      49.370   4.532  18.362  0.00  0.00    +0.000 A 
ATOM     35  H   UNL     1      52.360   3.163  18.291  0.00  0.00    +0.000 HD
ENDBRANCH  22  25
ENDBRANCH  20  21
ENDBRANCH   5  20
TORSDOF 8
ENDMDL
MODEL 4
REMARK VINA RESULT:    -8.205      4.552      7.475
REMARK INTER + INTRA:         -12.928
REMARK INTER:                 -11.788
REMARK INTRA:                  -1.141
REMARK UNBOUND:                -1.126
REMARK  Name = 
REMARK  8 active torsions:
REMARK  status: ('A' for Active; 'I' for Inactive)
REMARK    1  A    between atoms: N_1  and  C_2
REMARK    2  A    between atoms: C_2  and  C_3
REMARK    3  A    between atoms: C_2  and  C_24
REMARK    4  A    between atoms: C_3  and  C_4
REMARK    5  A    between atoms: C_8  and  C_9
REMARK    6  A    between atoms: C_9  and  N_10
REMARK    7  A    between atoms: C_11  and  C_13
REMARK    8  A    between atoms: C_24  and  C_26
REMARK                            x       y       z     vdW  Elec       q    Type
REMARK                         _______ _______ _______ _____ _____    ______ ____
ROOT
ATOM      1  C   UNL     1      45.783   4.752  12.403  0.00  0.00    +0.000 A 
ATOM      2  C   UNL     1      46.112   3.731  13.296  0.00  0.00    +0.000 A 
ATOM      3  C   UNL     1      47.076   3.972  14.261  0.00  0.00    +0.000 A 
ATOM      4  N   UNL     1      47.714   5.153  14.406  0.00  0.00    +0.000 NA
ATOM      5  C   UNL     1      47.395   6.140  13.531  0.00  0.00    +0.000 A 
ATOM      6  C   UNL     1      46.461   5.970  12.509  0.00  0.00    +0.000 A 
ENDROOT
BRANCH   1   7
ATOM      7  C   UNL     1      44.718   4.547  11.351  0.00  0.00    +0.000 C 
BRANCH   7   8
ATOM      8  C   UNL     1      44.823   3.213  10.591  0.00  0.00    +0.000 C 
BRANCH   8   9
ATOM      9  N   UNL     1      43.658   2.333  10.884  0.00  0.00    +0.000 NA
ATOM     10  H   UNL     1      44.008   1.405  11.116  0.00  0.00    +0.000 HD
ATOM     11  H   UNL     1      43.149   2.204  10.003  0.00  0.00    +0.000 HD
ENDBRANCH   8   9
BRANCH   8  12
ATOM     12  C   UNL     1      44.839   3.500   9.077  0.00  0.00    +0.000 C 
ATOM     13  O   UNL     1      44.082   4.330   8.565  0.00  0.00    +0.000 OA
BRANCH  12  14
ATOM     14  C   UNL     1      45.808   2.750   8.226  0.00  0.00    +0.000 A 
ATOM     15  C   UNL     1      46.489   3.408   7.205  0.00  0.00    +0.000 A 
ATOM     16  C   UNL     1      47.349   2.668   6.397  0.00  0.00    +0.000 A 
ATOM     17  C   UNL     1      47.500   1.307   6.635  0.00  0.00    +0.000 A 
ATOM     18  C   UNL     1      46.791   0.738   7.682  0.00  0.00    +0.000 A 
ATOM     19  N   UNL     1      45.952   1.429   8.486  0.00  0.00    +0.000 NA
ENDBRANCH  12  14
ENDBRANCH   8  12
ENDBRANCH   7   8
ENDBRANCH   1   7
BRANCH   5  20
ATOM     20  C   UNL     1      48.106   7.459  13.699  0.00  0.00    +0.000 C 
BRANCH  20  21
ATOM     21  N   UNL     1      47.274   8.578  13.333  0.00  0.00    +0.000 N 
ATOM     22  C   UNL     1      47.540   9.370  12.252  0.00  0.00    +0.000 C 
ATOM     23  O   UNL     1      48.509   9.180  11.520  0.00  0.00    +0.000 OA
ATOM     24  H   UNL     1      46.635   8.900  14.054  0.00  0.00    +0.000 HD
BRANCH  22  25
ATOM     25  C   UNL     1      46.555  10.420  11.955  0.00  0.00    +0.000 A 
ATOM     26  C   UNL     1      46.923  11.756  12.064  0.00  0.00    +0.000 A 
ATOM     27  S   UNL     1      45.688  12.846  11.621  0.00  0.00    +0.000 S 
ATOM     28  C   UNL     1      44.602  11.573  11.310  0.00  0.00    +0.000 A 
ATOM     29  N   UNL     1      43.330  11.827  10.900  0.00  0.00    +0.000 NA
ATOM     30  C   UNL     1      42.604  10.771  10.732  0.00  0.00    +0.000 A 
ATOM     31  N   UNL     1      43.038   9.486  10.929  0.00  0.00    +0.000 N 
ATOM     32  C   UNL     1      44.328   9.180  11.291  0.00  0.00    +0.000 A 
ATOM     33  O   UNL     1      44.705   8.019  11.375  0.00  0.00    +0.000 OA
ATOM     34  C   UNL     1      45.179  10.334  11.523  0.00  0.00    +0.000 A 
ATOM     35  H   UNL     1      42.427   8.701  10.764  0.00  0.00    +0.000 HD
ENDBRANCH  22  25
ENDBRANCH  20  21
ENDBRANCH   5  20
TORSDOF 8
ENDMDL
MODEL 5
REMARK VINA RESULT:    -8.102      3.195      3.727
REMARK INTER + INTRA:         -12.780
REMARK INTER:                 -11.931
REMARK INTRA:                  -0.849
REMARK UNBOUND:                -1.126
REMARK  Name = 
REMARK  8 active torsions:
REMARK  status: ('A' for Active; 'I' for Inactive)
REMARK    1  A    between atoms: N_1  and  C_2
REMARK    2  A    between atoms: C_2  and  C_3
REMARK    3  A    between atoms: C_2  and  C_24
REMARK    4  A    between atoms: C_3  and  C_4
REMARK    5  A    between atoms: C_8  and  C_9
REMARK    6  A    between atoms: C_9  and  N_10
REMARK    7  A    between atoms: C_11  and  C_13
REMARK    8  A    between atoms: C_24  and  C_26
REMARK                            x       y       z     vdW  Elec       q    Type
REMARK                         _______ _______ _______ _____ _____    ______ ____
ROOT
ATOM      1  C   UNL     1      45.249   4.710  11.824  0.00  0.00    +0.000 A 
ATOM      2  C   UNL     1      45.544   3.513  12.478  0.00  0.00    +0.000 A 
ATOM      3  C   UNL     1      46.589   3.488  13.387  0.00  0.00    +0.000 A 
ATOM      4  N   UNL     1      47.339   4.567  13.698  0.00  0.00    +0.000 NA
ATOM      5  C   UNL     1      47.051   5.727  13.054  0.00  0.00    +0.000 A 
ATOM      6  C   UNL     1      46.039   5.830  12.100  0.00  0.00    +0.000 A 
ENDROOT
BRANCH   1   7
ATOM      7  C   UNL     1      44.101   4.795  10.844  0.00  0.00    +0.000 C 
BRANCH   7   8
ATOM      8  C   UNL     1      44.509   4.629   9.370  0.00  0.00    +0.000 C 
BRANCH   8   9
ATOM      9  N   UNL     1      45.813   5.294   9.094  0.00  0.00    +0.000 NA
ATOM     10  H   UNL     1      46.181   5.656   9.973  0.00  0.00    +0.000 HD
ATOM     11  H   UNL     1      45.614   6.128   8.533  0.00  0.00    +0.000 HD
ENDBRANCH   8   9
BRANCH   8  12
ATOM     12  C   UNL     1      44.661   3.127   9.059  0.00  0.00    +0.000 C 
ATOM     13  O   UNL     1      43.995   2.271   9.648  0.00  0.00    +0.000 OA
BRANCH  12  14
ATOM     14  C   UNL     1      45.641   2.719   8.010  0.00  0.00    +0.000 A 
ATOM     15  C   UNL     1      46.376   1.546   8.167  0.00  0.00    +0.000 A 
ATOM     16  C   UNL     1      47.317   1.219   7.194  0.00  0.00    +0.000 A 
ATOM     17  C   UNL     1      47.491   2.067   6.106  0.00  0.00    +0.000 A 
ATOM     18  C   UNL     1      46.705   3.207   6.026  0.00  0.00    +0.000 A 
ATOM     19  N   UNL     1      45.781   3.550   6.951  0.00  0.00    +0.000 NA
ENDBRANCH  12  14
ENDBRANCH   8  12
ENDBRANCH   7   8
ENDBRANCH   1   7
BRANCH   5  20
ATOM     20  C   UNL     1      47.888   6.930  13.408  0.00  0.00    +0.000 C 
BRANCH  20  21
ATOM     21  N   UNL     1      47.952   7.150  14.832  0.00  0.00    +0.000 N 
ATOM     22  C   UNL     1      49.125   7.109  15.531  0.00  0.00    +0.000 C 
ATOM     23  O   UNL     1      50.205   6.881  14.990  0.00  0.00    +0.000 OA
ATOM     24  H   UNL     1      47.065   7.084  15.323  0.00  0.00    +0.000 HD
BRANCH  22  25
ATOM     25  C   UNL     1      49.044   7.436  16.961  0.00  0.00    +0.000 A 
ATOM     26  C   UNL     1      49.638   8.601  17.433  0.00  0.00    +0.000 A 
ATOM     27  S   UNL     1      49.396   8.869  19.099  0.00  0.00    +0.000 S 
ATOM     28  C   UNL     1      48.528   7.414  19.262  0.00  0.00    +0.000 A 
ATOM     29  N   UNL     1      48.039   7.026  20.470  0.00  0.00    +0.000 NA
ATOM     30  C   UNL     1      47.429   5.886  20.456  0.00  0.00    +0.000 A 
ATOM     31  N   UNL     1      47.257   5.106  19.344  0.00  0.00    +0.000 N 
ATOM     32  C   UNL     1      47.687   5.483  18.093  0.00  0.00    +0.000 A 
ATOM     33  O   UNL     1      47.442   4.802  17.107  0.00  0.00    +0.000 OA
ATOM     34  C   UNL     1      48.408   6.744  18.058  0.00  0.00    +0.000 A 
ATOM     35  H   UNL     1      46.755   4.233  19.393  0.00  0.00    +0.000 HD
ENDBRANCH  22  25
ENDBRANCH  20  21
ENDBRANCH   5  20
TORSDOF 8
ENDMDL
MODEL 6
REMARK VINA RESULT:    -7.972      3.102      3.581
REMARK INTER + INTRA:         -12.594
REMARK INTER:                 -11.365
REMARK INTRA:                  -1.229
REMARK UNBOUND:                -1.126
REMARK  Name = 
REMARK  8 active torsions:
REMARK  status: ('A' for Active; 'I' for Inactive)
REMARK    1  A    between atoms: N_1  and  C_2
REMARK    2  A    between atoms: C_2  and  C_3
REMARK    3  A    between atoms: C_2  and  C_24
REMARK    4  A    between atoms: C_3  and  C_4
REMARK    5  A    between atoms: C_8  and  C_9
REMARK    6  A    between atoms: C_9  and  N_10
REMARK    7  A    between atoms: C_11  and  C_13
REMARK    8  A    between atoms: C_24  and  C_26
REMARK                            x       y       z     vdW  Elec       q    Type
REMARK                         _______ _______ _______ _____ _____    ______ ____
ROOT
ATOM      1  C   UNL     1      45.080   5.941  12.888  0.00  0.00    +0.000 A 
ATOM      2  C   UNL     1      44.684   7.199  12.431  0.00  0.00    +0.000 A 
ATOM      3  C   UNL     1      45.606   8.233  12.438  0.00  0.00    +0.000 A 
ATOM      4  N   UNL     1      46.884   8.096  12.849  0.00  0.00    +0.000 NA
ATOM      5  C   UNL     1      47.261   6.872  13.299  0.00  0.00    +0.000 A 
ATOM      6  C   UNL     1      46.387   5.787  13.358  0.00  0.00    +0.000 A 
ENDROOT
BRANCH   1   7
ATOM      7  C   UNL     1      44.119   4.775  12.873  0.00  0.00    +0.000 C 
BRANCH   7   8
ATOM      8  C   UNL     1      44.532   3.623  11.940  0.00  0.00    +0.000 C 
BRANCH   8   9
ATOM      9  N   UNL     1      43.784   2.375  12.260  0.00  0.00    +0.000 NA
ATOM     10  H   UNL     1      44.226   1.935  13.066  0.00  0.00    +0.000 HD
ATOM     11  H   UNL     1      43.945   1.721  11.487  0.00  0.00    +0.000 HD
ENDBRANCH   8   9
BRANCH   8  12
ATOM     12  C   UNL     1      44.207   4.017  10.485  0.00  0.00    +0.000 C 
ATOM     13  O   UNL     1      43.268   4.769  10.210  0.00  0.00    +0.000 OA
BRANCH  12  14
ATOM     14  C   UNL     1      45.069   3.470   9.397  0.00  0.00    +0.000 A 
ATOM     15  C   UNL     1      45.616   4.330   8.447  0.00  0.00    +0.000 A 
ATOM     16  C   UNL     1      46.374   3.782   7.416  0.00  0.00    +0.000 A 
ATOM     17  C   UNL     1      46.561   2.405   7.369  0.00  0.00    +0.000 A 
ATOM     18  C   UNL     1      45.989   1.627   8.364  0.00  0.00    +0.000 A 
ATOM     19  N   UNL     1      45.251   2.129   9.380  0.00  0.00    +0.000 NA
ENDBRANCH  12  14
ENDBRANCH   8  12
ENDBRANCH   7   8
ENDBRANCH   1   7
BRANCH   5  20
ATOM     20  C   UNL     1      48.691   6.722  13.754  0.00  0.00    +0.000 C 
BRANCH  20  21
ATOM     21  N   UNL     1      48.865   7.089  15.138  0.00  0.00    +0.000 N 
ATOM     22  C   UNL     1      48.865   6.170  16.148  0.00  0.00    +0.000 C 
ATOM     23  O   UNL     1      48.716   4.967  15.943  0.00  0.00    +0.000 OA
ATOM     24  H   UNL     1      48.733   8.074  15.346  0.00  0.00    +0.000 HD
BRANCH  22  25
ATOM     25  C   UNL     1      49.138   6.684  17.498  0.00  0.00    +0.000 A 
ATOM     26  C   UNL     1      50.215   7.539  17.701  0.00  0.00    +0.000 A 
ATOM     27  S   UNL     1      50.355   8.098  19.305  0.00  0.00    +0.000 S 
ATOM     28  C   UNL     1      49.008   7.182  19.799  0.00  0.00    +0.000 A 
ATOM     29  N   UNL     1      48.590   7.198  21.094  0.00  0.00    +0.000 NA
ATOM     30  C   UNL     1      47.577   6.433  21.335  0.00  0.00    +0.000 A 
ATOM     31  N   UNL     1      46.941   5.661  20.400  0.00  0.00    +0.000 N 
ATOM     32  C   UNL     1      47.293   5.654  19.071  0.00  0.00    +0.000 A 
ATOM     33  O   UNL     1      46.649   5.019  18.247  0.00  0.00    +0.000 OA
ATOM     34  C   UNL     1      48.448   6.475  18.750  0.00  0.00    +0.000 A 
ATOM     35  H   UNL     1      46.142   5.097  20.648  0.00  0.00    +0.000 HD
ENDBRANCH  22  25
ENDBRANCH  20  21
ENDBRANCH   5  20
TORSDOF 8
ENDMDL
MODEL 7
REMARK VINA RESULT:    -7.920      4.551      7.764
REMARK INTER + INTRA:         -12.519
REMARK INTER:                 -11.030
REMARK INTRA:                  -1.490
REMARK UNBOUND:                -1.126
REMARK  Name = 
REMARK  8 active torsions:
REMARK  status: ('A' for Active; 'I' for Inactive)
REMARK    1  A    between atoms: N_1  and  C_2
REMARK    2  A    between atoms: C_2  and  C_3
REMARK    3  A    between atoms: C_2  and  C_24
REMARK    4  A    between atoms: C_3  and  C_4
REMARK    5  A    between atoms: C_8  and  C_9
REMARK    6  A    between atoms: C_9  and  N_10
REMARK    7  A    between atoms: C_11  and  C_13
REMARK    8  A    between atoms: C_24  and  C_26
REMARK                            x       y       z     vdW  Elec       q    Type
REMARK                         _______ _______ _______ _____ _____    ______ ____
ROOT
ATOM      1  C   UNL     1      46.334   4.603  13.299  0.00  0.00    +0.000 A 
ATOM      2  C   UNL     1      46.746   4.338  14.605  0.00  0.00    +0.000 A 
ATOM      3  C   UNL     1      47.718   5.142  15.176  0.00  0.00    +0.000 A 
ATOM      4  N   UNL     1      48.288   6.192  14.546  0.00  0.00    +0.000 NA
ATOM      5  C   UNL     1      47.888   6.441  13.274  0.00  0.00    +0.000 A 
ATOM      6  C   UNL     1      46.940   5.659  12.613  0.00  0.00    +0.000 A 
ENDROOT
BRANCH   1   7
ATOM      7  C   UNL     1      45.255   3.771  12.643  0.00  0.00    +0.000 C 
BRANCH   7   8
ATOM      8  C   UNL     1      43.895   4.479  12.517  0.00  0.00    +0.000 C 
BRANCH   8   9
ATOM      9  N   UNL     1      43.879   5.757  13.281  0.00  0.00    +0.000 NA
ATOM     10  H   UNL     1      44.536   6.400  12.843  0.00  0.00    +0.000 HD
ATOM     11  H   UNL     1      44.283   5.562  14.203  0.00  0.00    +0.000 HD
ENDBRANCH   8   9
BRANCH   8  12
ATOM     12  C   UNL     1      43.638   4.805  11.032  0.00  0.00    +0.000 C 
ATOM     13  O   UNL     1      42.847   5.688  10.688  0.00  0.00    +0.000 OA
BRANCH  12  14
ATOM     14  C   UNL     1      44.380   4.025   9.999  0.00  0.00    +0.000 A 
ATOM     15  C   UNL     1      45.274   4.673   9.150  0.00  0.00    +0.000 A 
ATOM     16  C   UNL     1      45.913   3.925   8.165  0.00  0.00    +0.000 A 
ATOM     17  C   UNL     1      45.642   2.566   8.062  0.00  0.00    +0.000 A 
ATOM     18  C   UNL     1      44.747   2.002   8.958  0.00  0.00    +0.000 A 
ATOM     19  N   UNL     1      44.113   2.699   9.928  0.00  0.00    +0.000 NA
ENDBRANCH  12  14
ENDBRANCH   8  12
ENDBRANCH   7   8
ENDBRANCH   1   7
BRANCH   5  20
ATOM     20  C   UNL     1      48.523   7.617  12.575  0.00  0.00    +0.000 C 
BRANCH  20  21
ATOM     21  N   UNL     1      47.542   8.515  12.018  0.00  0.00    +0.000 N 
ATOM     22  C   UNL     1      47.384   9.799  12.460  0.00  0.00    +0.000 C 
ATOM     23  O   UNL     1      48.071  10.272  13.362  0.00  0.00    +0.000 OA
ATOM     24  H   UNL     1      46.811   8.074  11.467  0.00  0.00    +0.000 HD
BRANCH  22  25
ATOM     25  C   UNL     1      46.402  10.620  11.738  0.00  0.00    +0.000 A 
ATOM     26  C   UNL     1      46.698  11.947  11.450  0.00  0.00    +0.000 A 
ATOM     27  S   UNL     1      45.485  12.741  10.552  0.00  0.00    +0.000 S 
ATOM     28  C   UNL     1      44.499  11.354  10.555  0.00  0.00    +0.000 A 
ATOM     29  N   UNL     1      43.279  11.365   9.954  0.00  0.00    +0.000 NA
ATOM     30  C   UNL     1      42.623  10.256  10.060  0.00  0.00    +0.000 A 
ATOM     31  N   UNL     1      43.081   9.138  10.705  0.00  0.00    +0.000 N 
ATOM     32  C   UNL     1      44.328   9.063  11.279  0.00  0.00    +0.000 A 
ATOM     33  O   UNL     1      44.738   8.021  11.772  0.00  0.00    +0.000 OA
ATOM     34  C   UNL     1      45.095  10.295  11.215  0.00  0.00    +0.000 A 
ATOM     35  H   UNL     1      42.528   8.294  10.738  0.00  0.00    +0.000 HD
ENDBRANCH  22  25
ENDBRANCH  20  21
ENDBRANCH   5  20
TORSDOF 8
ENDMDL
MODEL 8
REMARK VINA RESULT:    -7.854      3.311      8.773
REMARK INTER + INTRA:         -12.424
REMARK INTER:                 -10.999
REMARK INTRA:                  -1.425
REMARK UNBOUND:                -1.126
REMARK  Name = 
REMARK  8 active torsions:
REMARK  status: ('A' for Active; 'I' for Inactive)
REMARK    1  A    between atoms: N_1  and  C_2
REMARK    2  A    between atoms: C_2  and  C_3
REMARK    3  A    between atoms: C_2  and  C_24
REMARK    4  A    between atoms: C_3  and  C_4
REMARK    5  A    between atoms: C_8  and  C_9
REMARK    6  A    between atoms: C_9  and  N_10
REMARK    7  A    between atoms: C_11  and  C_13
REMARK    8  A    between atoms: C_24  and  C_26
REMARK                            x       y       z     vdW  Elec       q    Type
REMARK                         _______ _______ _______ _____ _____    ______ ____
ROOT
ATOM      1  C   UNL     1      48.495   5.675  16.137  0.00  0.00    +0.000 A 
ATOM      2  C   UNL     1      49.512   6.386  16.777  0.00  0.00    +0.000 A 
ATOM      3  C   UNL     1      50.162   7.392  16.083  0.00  0.00    +0.000 A 
ATOM      4  N   UNL     1      49.860   7.746  14.816  0.00  0.00    +0.000 NA
ATOM      5  C   UNL     1      48.876   7.047  14.196  0.00  0.00    +0.000 A 
ATOM      6  C   UNL     1      48.194   5.997  14.811  0.00  0.00    +0.000 A 
ENDROOT
BRANCH   1   7
ATOM      7  C   UNL     1      47.737   4.587  16.862  0.00  0.00    +0.000 C 
BRANCH   7   8
ATOM      8  C   UNL     1      48.601   3.728  17.802  0.00  0.00    +0.000 C 
BRANCH   8   9
ATOM      9  N   UNL     1      47.757   2.957  18.757  0.00  0.00    +0.000 NA
ATOM     10  H   UNL     1      47.633   2.016  18.386  0.00  0.00    +0.000 HD
ATOM     11  H   UNL     1      46.820   3.371  18.732  0.00  0.00    +0.000 HD
ENDBRANCH   8   9
BRANCH   8  12
ATOM     12  C   UNL     1      49.410   2.723  16.958  0.00  0.00    +0.000 C 
ATOM     13  O   UNL     1      48.934   2.185  15.955  0.00  0.00    +0.000 OA
BRANCH  12  14
ATOM     14  C   UNL     1      50.808   2.412  17.378  0.00  0.00    +0.000 A 
ATOM     15  C   UNL     1      51.653   3.440  17.788  0.00  0.00    +0.000 A 
ATOM     16  C   UNL     1      52.966   3.123  18.127  0.00  0.00    +0.000 A 
ATOM     17  C   UNL     1      53.387   1.800  18.046  0.00  0.00    +0.000 A 
ATOM     18  C   UNL     1      52.473   0.841  17.639  0.00  0.00    +0.000 A 
ATOM     19  N   UNL     1      51.191   1.115  17.307  0.00  0.00    +0.000 NA
ENDBRANCH  12  14
ENDBRANCH   8  12
ENDBRANCH   7   8
ENDBRANCH   1   7
BRANCH   5  20
ATOM     20  C   UNL     1      48.538   7.448  12.782  0.00  0.00    +0.000 C 
BRANCH  20  21
ATOM     21  N   UNL     1      47.714   6.468  12.119  0.00  0.00    +0.000 N 
ATOM     22  C   UNL     1      46.435   6.731  11.718  0.00  0.00    +0.000 C 
ATOM     23  O   UNL     1      45.902   7.824  11.896  0.00  0.00    +0.000 OA
ATOM     24  H   UNL     1      48.035   5.507  12.195  0.00  0.00    +0.000 HD
BRANCH  22  25
ATOM     25  C   UNL     1      45.749   5.660  10.980  0.00  0.00    +0.000 A 
ATOM     26  C   UNL     1      45.838   5.618   9.594  0.00  0.00    +0.000 A 
ATOM     27  S   UNL     1      45.045   4.280   8.896  0.00  0.00    +0.000 S 
ATOM     28  C   UNL     1      44.514   3.732  10.417  0.00  0.00    +0.000 A 
ATOM     29  N   UNL     1      43.751   2.611  10.528  0.00  0.00    +0.000 NA
ATOM     30  C   UNL     1      43.392   2.330  11.737  0.00  0.00    +0.000 A 
ATOM     31  N   UNL     1      43.732   3.061  12.844  0.00  0.00    +0.000 N 
ATOM     32  C   UNL     1      44.545   4.169  12.786  0.00  0.00    +0.000 A 
ATOM     33  O   UNL     1      44.899   4.749  13.804  0.00  0.00    +0.000 OA
ATOM     34  C   UNL     1      44.952   4.549  11.445  0.00  0.00    +0.000 A 
ATOM     35  H   UNL     1      43.435   2.779  13.765  0.00  0.00    +0.000 HD
ENDBRANCH  22  25
ENDBRANCH  20  21
ENDBRANCH   5  20
TORSDOF 8
ENDMDL
MODEL 9
REMARK VINA RESULT:    -7.679      1.647      2.295
REMARK INTER + INTRA:         -12.172
REMARK INTER:                 -11.313
REMARK INTRA:                  -0.858
REMARK UNBOUND:                -1.126
REMARK  Name = 
REMARK  8 active torsions:
REMARK  status: ('A' for Active; 'I' for Inactive)
REMARK    1  A    between atoms: N_1  and  C_2
REMARK    2  A    between atoms: C_2  and  C_3
REMARK    3  A    between atoms: C_2  and  C_24
REMARK    4  A    between atoms: C_3  and  C_4
REMARK    5  A    between atoms: C_8  and  C_9
REMARK    6  A    between atoms: C_9  and  N_10
REMARK    7  A    between atoms: C_11  and  C_13
REMARK    8  A    between atoms: C_24  and  C_26
REMARK                            x       y       z     vdW  Elec       q    Type
REMARK                         _______ _______ _______ _____ _____    ______ ____
ROOT
ATOM      1  C   UNL     1      46.695   5.373  12.786  0.00  0.00    +0.000 A 
ATOM      2  C   UNL     1      46.475   4.056  13.192  0.00  0.00    +0.000 A 
ATOM      3  C   UNL     1      46.998   3.633  14.403  0.00  0.00    +0.000 A 
ATOM      4  N   UNL     1      47.702   4.430  15.235  0.00  0.00    +0.000 NA
ATOM      5  C   UNL     1      47.919   5.708  14.832  0.00  0.00    +0.000 A 
ATOM      6  C   UNL     1      47.457   6.203  13.613  0.00  0.00    +0.000 A 
ENDROOT
BRANCH   1   7
ATOM      7  C   UNL     1      46.121   5.889  11.487  0.00  0.00    +0.000 C 
BRANCH   7   8
ATOM      8  C   UNL     1      44.632   6.272  11.558  0.00  0.00    +0.000 C 
BRANCH   8   9
ATOM      9  N   UNL     1      44.375   7.566  10.866  0.00  0.00    +0.000 NA
ATOM     10  H   UNL     1      43.737   7.393  10.091  0.00  0.00    +0.000 HD
ATOM     11  H   UNL     1      45.254   7.849  10.421  0.00  0.00    +0.000 HD
ENDBRANCH   8   9
BRANCH   8  12
ATOM     12  C   UNL     1      43.801   5.180  10.857  0.00  0.00    +0.000 C 
ATOM     13  O   UNL     1      42.596   5.037  11.079  0.00  0.00    +0.000 OA
BRANCH  12  14
ATOM     14  C   UNL     1      44.490   4.286   9.880  0.00  0.00    +0.000 A 
ATOM     15  C   UNL     1      44.503   2.910  10.090  0.00  0.00    +0.000 A 
ATOM     16  C   UNL     1      45.197   2.108   9.187  0.00  0.00    +0.000 A 
ATOM     17  C   UNL     1      45.848   2.704   8.113  0.00  0.00    +0.000 A 
ATOM     18  C   UNL     1      45.771   4.081   7.976  0.00  0.00    +0.000 A 
ATOM     19  N   UNL     1      45.103   4.886   8.833  0.00  0.00    +0.000 NA
ENDBRANCH  12  14
ENDBRANCH   8  12
ENDBRANCH   7   8
ENDBRANCH   1   7
BRANCH   5  20
ATOM     20  C   UNL     1      48.702   6.595  15.767  0.00  0.00    +0.000 C 
BRANCH  20  21
ATOM     21  N   UNL     1      49.833   5.914  16.346  0.00  0.00    +0.000 N 
ATOM     22  C   UNL     1      49.796   5.356  17.593  0.00  0.00    +0.000 C 
ATOM     23  O   UNL     1      48.793   5.398  18.302  0.00  0.00    +0.000 OA
ATOM     24  H   UNL     1      50.726   6.090  15.895  0.00  0.00    +0.000 HD
BRANCH  22  25
ATOM     25  C   UNL     1      50.998   4.621  18.015  0.00  0.00    +0.000 A 
ATOM     26  C   UNL     1      52.002   5.289  18.705  0.00  0.00    +0.000 A 
ATOM     27  S   UNL     1      53.294   4.282  19.179  0.00  0.00    +0.000 S 
ATOM     28  C   UNL     1      52.580   2.926  18.440  0.00  0.00    +0.000 A 
ATOM     29  N   UNL     1      53.195   1.713  18.465  0.00  0.00    +0.000 NA
ATOM     30  C   UNL     1      52.558   0.780  17.838  0.00  0.00    +0.000 A 
ATOM     31  N   UNL     1      51.360   0.948  17.197  0.00  0.00    +0.000 N 
ATOM     32  C   UNL     1      50.676   2.140  17.191  0.00  0.00    +0.000 A 
ATOM     33  O   UNL     1      49.567   2.233  16.681  0.00  0.00    +0.000 OA
ATOM     34  C   UNL     1      51.364   3.233  17.856  0.00  0.00    +0.000 A 
ATOM     35  H   UNL     1      50.902   0.174  16.739  0.00  0.00    +0.000 HD
ENDBRANCH  22  25
ENDBRANCH  20  21
ENDBRANCH   5  20
TORSDOF 8
ENDMDL
