MODEL 1
REMARK VINA RESULT:    -7.263      0.000      0.000
REMARK INTER + INTRA:         -11.761
REMARK INTER:                 -10.659
REMARK INTRA:                  -1.102
REMARK UNBOUND:                -1.102
REMARK  Name = 
REMARK  10 active torsions:
REMARK  status: ('A' for Active; 'I' for Inactive)
REMARK    1  A    between atoms: C_1  and  N_2
REMARK    2  A    between atoms: N_2  and  C_3
REMARK    3  A    between atoms: N_2  and  C_10
REMARK    4  A    between atoms: C_3  and  C_4
REMARK    5  A    between atoms: C_10  and  C_11
REMARK    6  A    between atoms: C_14  and  C_15
REMARK    7  A    between atoms: C_15  and  N_16
REMARK    8  A    between atoms: N_16  and  C_17
REMARK    9  A    between atoms: N_16  and  C_18
REMARK   10  A    between atoms: C_18  and  C_19
REMARK                            x       y       z     vdW  Elec       q    Type
REMARK                         _______ _______ _______ _____ _____    ______ ____
ROOT
ATOM      1  C   UNL     1      45.359   6.623  11.874  0.00  0.00    +0.000 A 
ATOM      2  C   UNL     1      45.150   7.832  12.541  0.00  0.00    +0.000 A 
ATOM      3  C   UNL     1      46.244   8.488  13.092  0.00  0.00    +0.000 A 
ATOM      4  C   UNL     1      47.511   7.918  12.995  0.00  0.00    +0.000 A 
ATOM      5  C   UNL     1      47.633   6.729  12.284  0.00  0.00    +0.000 A 
ATOM      6  N   UNL     1      46.592   6.078  11.723  0.00  0.00    +0.000 NA
ENDROOT
BRANCH   1   7
ATOM      7  C   UNL     1      44.193   5.847  11.297  0.00  0.00    +0.000 C 
BRANCH   7   9
ATOM      8  C   UNL     1      43.794   3.567  11.989  0.00  0.00    +0.000 C 
ATOM      9  N   UNL     1      44.486   4.420  11.015  0.00  0.00    +0.000 NA
BRANCH   9  10
ATOM     10  C   UNL     1      44.014   4.079   9.651  0.00  0.00    +0.000 C 
BRANCH  10  11
ATOM     11  C   UNL     1      45.059   3.408   8.777  0.00  0.00    +0.000 A 
ATOM     12  C   UNL     1      45.292   2.037   8.877  0.00  0.00    +0.000 A 
ATOM     13  C   UNL     1      46.295   1.466   8.098  0.00  0.00    +0.000 A 
ATOM     14  C   UNL     1      47.034   2.274   7.242  0.00  0.00    +0.000 A 
ATOM     15  C   UNL     1      46.738   3.625   7.198  0.00  0.00    +0.000 A 
ATOM     16  N   UNL     1      45.774   4.208   7.943  0.00  0.00    +0.000 NA
ENDBRANCH  10  11
ENDBRANCH   9  10
ENDBRANCH   7   9
ENDBRANCH   1   7
BRANCH   4  17
ATOM     17  C   UNL     1      48.715   8.513  13.679  0.00  0.00    +0.000 C 
BRANCH  17  18
ATOM     18  N   UNL     1      49.358   7.571  14.619  0.00  0.00    +0.000 NA
ATOM     19  C   UNL     1      50.808   7.802  14.702  0.00  0.00    +0.000 C 
BRANCH  18  20
ATOM     20  C   UNL     1      48.778   7.681  15.975  0.00  0.00    +0.000 C 
BRANCH  20  21
ATOM     21  C   UNL     1      49.234   6.527  16.827  0.00  0.00    +0.000 A 
ATOM     22  C   UNL     1      50.188   6.632  17.829  0.00  0.00    +0.000 A 
ATOM     23  S   UNL     1      50.636   5.123  18.488  0.00  0.00    +0.000 S 
ATOM     24  C   UNL     1      49.501   4.298  17.524  0.00  0.00    +0.000 A 
ATOM     25  N   UNL     1      49.362   2.946  17.597  0.00  0.00    +0.000 NA
ATOM     26  C   UNL     1      48.425   2.467  16.847  0.00  0.00    +0.000 A 
ATOM     27  N   UNL     1      47.617   3.215  16.027  0.00  0.00    +0.000 N 
ATOM     28  C   UNL     1      47.740   4.579  15.893  0.00  0.00    +0.000 A 
ATOM     29  O   UNL     1      47.010   5.217  15.141  0.00  0.00    +0.000 OA
ATOM     30  C   UNL     1      48.784   5.163  16.719  0.00  0.00    +0.000 A 
ATOM     31  H   UNL     1      46.889   2.779  15.482  0.00  0.00    +0.000 HD
ENDBRANCH  20  21
ENDBRANCH  18  20
ENDBRANCH  17  18
ENDBRANCH   4  17
TORSDOF 8
ENDMDL
MODEL 2
REMARK VINA RESULT:    -7.048      2.060      2.548
REMARK INTER + INTRA:         -11.445
REMARK INTER:                 -10.393
REMARK INTRA:                  -1.052
REMARK UNBOUND:                -1.102
REMARK  Name = 
REMARK  10 active torsions:
REMARK  status: ('A' for Active; 'I' for Inactive)
REMARK    1  A    between atoms: C_1  and  N_2
REMARK    2  A    between atoms: N_2  and  C_3
REMARK    3  A    between atoms: N_2  and  C_10
REMARK    4  A    between atoms: C_3  and  C_4
REMARK    5  A    between atoms: C_10  and  C_11
REMARK    6  A    between atoms: C_14  and  C_15
REMARK    7  A    between atoms: C_15  and  N_16
REMARK    8  A    between atoms: N_16  and  C_17
REMARK    9  A    between atoms: N_16  and  C_18
REMARK   10  A    between atoms: C_18  and  C_19
REMARK                            x       y       z     vdW  Elec       q    Type
REMARK                         _______ _______ _______ _____ _____    ______ ____
ROOT
ATOM      1  C   UNL     1      45.549   5.907  12.486  0.00  0.00    +0.000 A 
ATOM      2  C   UNL     1      46.529   5.002  12.899  0.00  0.00    +0.000 A 
ATOM      3  C   UNL     1      47.692   5.495  13.478  0.00  0.00    +0.000 A 
ATOM      4  C   UNL     1      47.869   6.871  13.608  0.00  0.00    +0.000 A 
ATOM      5  C   UNL     1      46.827   7.698  13.202  0.00  0.00    +0.000 A 
ATOM      6  N   UNL     1      45.680   7.247  12.651  0.00  0.00    +0.000 NA
ENDROOT
BRANCH   1   7
ATOM      7  C   UNL     1      44.286   5.422  11.807  0.00  0.00    +0.000 C 
BRANCH   7   9
ATOM      8  C   UNL     1      43.470   3.158  12.030  0.00  0.00    +0.000 C 
ATOM      9  N   UNL     1      44.369   4.040  11.274  0.00  0.00    +0.000 NA
BRANCH   9  10
ATOM     10  C   UNL     1      43.963   4.035   9.846  0.00  0.00    +0.000 C 
BRANCH  10  11
ATOM     11  C   UNL     1      44.998   3.445   8.904  0.00  0.00    +0.000 A 
ATOM     12  C   UNL     1      45.277   2.080   8.924  0.00  0.00    +0.000 A 
ATOM     13  C   UNL     1      46.270   1.584   8.083  0.00  0.00    +0.000 A 
ATOM     14  C   UNL     1      46.953   2.459   7.247  0.00  0.00    +0.000 A 
ATOM     15  C   UNL     1      46.614   3.800   7.285  0.00  0.00    +0.000 A 
ATOM     16  N   UNL     1      45.659   4.311   8.091  0.00  0.00    +0.000 NA
ENDBRANCH  10  11
ENDBRANCH   9  10
ENDBRANCH   7   9
ENDBRANCH   1   7
BRANCH   4  17
ATOM     17  C   UNL     1      49.156   7.472  14.109  0.00  0.00    +0.000 C 
BRANCH  17  18
ATOM     18  N   UNL     1      49.671   6.791  15.315  0.00  0.00    +0.000 NA
ATOM     19  C   UNL     1      51.045   7.212  15.624  0.00  0.00    +0.000 C 
BRANCH  18  20
ATOM     20  C   UNL     1      48.813   7.055  16.491  0.00  0.00    +0.000 C 
BRANCH  20  21
ATOM     21  C   UNL     1      48.761   5.838  17.376  0.00  0.00    +0.000 A 
ATOM     22  C   UNL     1      48.599   4.544  16.904  0.00  0.00    +0.000 A 
ATOM     23  S   UNL     1      48.386   3.399  18.151  0.00  0.00    +0.000 S 
ATOM     24  C   UNL     1      48.600   4.581  19.356  0.00  0.00    +0.000 A 
ATOM     25  N   UNL     1      48.540   4.264  20.678  0.00  0.00    +0.000 NA
ATOM     26  C   UNL     1      48.775   5.254  21.474  0.00  0.00    +0.000 A 
ATOM     27  N   UNL     1      49.062   6.535  21.070  0.00  0.00    +0.000 N 
ATOM     28  C   UNL     1      49.102   6.913  19.748  0.00  0.00    +0.000 A 
ATOM     29  O   UNL     1      49.348   8.070  19.420  0.00  0.00    +0.000 OA
ATOM     30  C   UNL     1      48.842   5.830  18.814  0.00  0.00    +0.000 A 
ATOM     31  H   UNL     1      49.256   7.257  21.746  0.00  0.00    +0.000 HD
ENDBRANCH  20  21
ENDBRANCH  18  20
ENDBRANCH  17  18
ENDBRANCH   4  17
TORSDOF 8
ENDMDL
MODEL 3
REMARK VINA RESULT:    -6.976      1.855      2.384
REMARK INTER + INTRA:         -11.341
REMARK INTER:                 -10.542
REMARK INTRA:                  -0.799
REMARK UNBOUND:                -1.102
REMARK  Name = 
REMARK  10 active torsions:
REMARK  status: ('A' for Active; 'I' for Inactive)
REMARK    1  A    between atoms: C_1  and  N_2
REMARK    2  A    between atoms: N_2  and  C_3
REMARK    3  A    between atoms: N_2  and  C_10
REMARK    4  A    between atoms: C_3  and  C_4
REMARK    5  A    between atoms: C_10  and  C_11
REMARK    6  A    between atoms: C_14  and  C_15
REMARK    7  A    between atoms: C_15  and  N_16
REMARK    8  A    between atoms: N_16  and  C_17
REMARK    9  A    between atoms: N_16  and  C_18
REMARK   10  A    between atoms: C_18  and  C_19
REMARK                            x       y       z     vdW  Elec       q    Type
REMARK                         _______ _______ _______ _____ _____    ______ ____
ROOT
ATOM      1  C   UNL     1      45.320   5.662  11.427  0.00  0.00    +0.000 A 
ATOM      2  C   UNL     1      45.294   7.053  11.298  0.00  0.00    +0.000 A 
ATOM      3  C   UNL     1      46.112   7.815  12.124  0.00  0.00    +0.000 A 
ATOM      4  C   UNL     1      46.911   7.186  13.075  0.00  0.00    +0.000 A 
ATOM      5  C   UNL     1      46.900   5.795  13.112  0.00  0.00    +0.000 A 
ATOM      6  N   UNL     1      46.129   5.028  12.311  0.00  0.00    +0.000 NA
ENDROOT
BRANCH   1   7
ATOM      7  C   UNL     1      44.413   4.791  10.584  0.00  0.00    +0.000 C 
BRANCH   7   9
ATOM      8  C   UNL     1      43.794   2.807  11.816  0.00  0.00    +0.000 C 
ATOM      9  N   UNL     1      44.644   3.334  10.740  0.00  0.00    +0.000 NA
BRANCH   9  10
ATOM     10  C   UNL     1      44.305   2.641   9.473  0.00  0.00    +0.000 C 
BRANCH  10  11
ATOM     11  C   UNL     1      45.492   2.397   8.557  0.00  0.00    +0.000 A 
ATOM     12  C   UNL     1      46.025   3.438   7.798  0.00  0.00    +0.000 A 
ATOM     13  C   UNL     1      47.079   3.165   6.929  0.00  0.00    +0.000 A 
ATOM     14  C   UNL     1      47.572   1.869   6.844  0.00  0.00    +0.000 A 
ATOM     15  C   UNL     1      46.989   0.893   7.634  0.00  0.00    +0.000 A 
ATOM     16  N   UNL     1      45.965   1.126   8.482  0.00  0.00    +0.000 NA
ENDBRANCH  10  11
ENDBRANCH   9  10
ENDBRANCH   7   9
ENDBRANCH   1   7
BRANCH   4  17
ATOM     17  C   UNL     1      47.721   7.959  14.083  0.00  0.00    +0.000 C 
BRANCH  17  18
ATOM     18  N   UNL     1      48.946   7.243  14.497  0.00  0.00    +0.000 NA
ATOM     19  C   UNL     1      50.136   7.783  13.823  0.00  0.00    +0.000 C 
BRANCH  18  20
ATOM     20  C   UNL     1      49.148   7.321  15.960  0.00  0.00    +0.000 C 
BRANCH  20  21
ATOM     21  C   UNL     1      49.268   5.936  16.538  0.00  0.00    +0.000 A 
ATOM     22  C   UNL     1      48.195   5.074  16.715  0.00  0.00    +0.000 A 
ATOM     23  S   UNL     1      48.610   3.655  17.566  0.00  0.00    +0.000 S 
ATOM     24  C   UNL     1      50.250   4.104  17.637  0.00  0.00    +0.000 A 
ATOM     25  N   UNL     1      51.175   3.312  18.245  0.00  0.00    +0.000 NA
ATOM     26  C   UNL     1      52.385   3.758  18.173  0.00  0.00    +0.000 A 
ATOM     27  N   UNL     1      52.757   4.925  17.553  0.00  0.00    +0.000 N 
ATOM     28  C   UNL     1      51.857   5.776  16.955  0.00  0.00    +0.000 A 
ATOM     29  O   UNL     1      52.219   6.819  16.420  0.00  0.00    +0.000 OA
ATOM     30  C   UNL     1      50.479   5.315  17.011  0.00  0.00    +0.000 A 
ATOM     31  H   UNL     1      53.725   5.204  17.516  0.00  0.00    +0.000 HD
ENDBRANCH  20  21
ENDBRANCH  18  20
ENDBRANCH  17  18
ENDBRANCH   4  17
TORSDOF 8
ENDMDL
MODEL 4
REMARK VINA RESULT:    -6.709      2.658      7.993
REMARK INTER + INTRA:         -10.948
REMARK INTER:                 -10.023
REMARK INTRA:                  -0.925
REMARK UNBOUND:                -1.102
REMARK  Name = 
REMARK  10 active torsions:
REMARK  status: ('A' for Active; 'I' for Inactive)
REMARK    1  A    between atoms: C_1  and  N_2
REMARK    2  A    between atoms: N_2  and  C_3
REMARK    3  A    between atoms: N_2  and  C_10
REMARK    4  A    between atoms: C_3  and  C_4
REMARK    5  A    between atoms: C_10  and  C_11
REMARK    6  A    between atoms: C_14  and  C_15
REMARK    7  A    between atoms: C_15  and  N_16
REMARK    8  A    between atoms: N_16  and  C_17
REMARK    9  A    between atoms: N_16  and  C_18
REMARK   10  A    between atoms: C_18  and  C_19
REMARK                            x       y       z     vdW  Elec       q    Type
REMARK                         _______ _______ _______ _____ _____    ______ ____
ROOT
ATOM      1  C   UNL     1      49.831   6.878  15.492  0.00  0.00    +0.000 A 
ATOM      2  C   UNL     1      50.190   7.761  14.471  0.00  0.00    +0.000 A 
ATOM      3  C   UNL     1      49.393   7.826  13.334  0.00  0.00    +0.000 A 
ATOM      4  C   UNL     1      48.279   6.996  13.223  0.00  0.00    +0.000 A 
ATOM      5  C   UNL     1      47.977   6.172  14.303  0.00  0.00    +0.000 A 
ATOM      6  N   UNL     1      48.722   6.101  15.426  0.00  0.00    +0.000 NA
ENDROOT
BRANCH   1   7
ATOM      7  C   UNL     1      50.693   6.737  16.730  0.00  0.00    +0.000 C 
BRANCH   7   9
ATOM      8  C   UNL     1      53.043   6.184  16.829  0.00  0.00    +0.000 C 
ATOM      9  N   UNL     1      51.689   5.640  16.661  0.00  0.00    +0.000 NA
BRANCH   9  10
ATOM     10  C   UNL     1      51.422   4.662  17.744  0.00  0.00    +0.000 C 
BRANCH  10  11
ATOM     11  C   UNL     1      50.050   4.014  17.678  0.00  0.00    +0.000 A 
ATOM     12  C   UNL     1      49.054   4.371  18.586  0.00  0.00    +0.000 A 
ATOM     13  C   UNL     1      47.825   3.718  18.529  0.00  0.00    +0.000 A 
ATOM     14  C   UNL     1      47.623   2.733  17.570  0.00  0.00    +0.000 A 
ATOM     15  C   UNL     1      48.661   2.440  16.703  0.00  0.00    +0.000 A 
ATOM     16  N   UNL     1      49.864   3.053  16.736  0.00  0.00    +0.000 NA
ENDBRANCH  10  11
ENDBRANCH   9  10
ENDBRANCH   7   9
ENDBRANCH   1   7
BRANCH   4  17
ATOM     17  C   UNL     1      47.450   6.926  11.968  0.00  0.00    +0.000 C 
BRANCH  17  18
ATOM     18  N   UNL     1      46.004   7.074  12.233  0.00  0.00    +0.000 NA
ATOM     19  C   UNL     1      45.690   8.408  12.765  0.00  0.00    +0.000 C 
BRANCH  18  20
ATOM     20  C   UNL     1      45.205   6.847  11.008  0.00  0.00    +0.000 C 
BRANCH  20  21
ATOM     21  C   UNL     1      44.592   5.472  11.039  0.00  0.00    +0.000 A 
ATOM     22  C   UNL     1      43.710   5.039  12.018  0.00  0.00    +0.000 A 
ATOM     23  S   UNL     1      43.336   3.379  11.895  0.00  0.00    +0.000 S 
ATOM     24  C   UNL     1      44.264   3.213  10.478  0.00  0.00    +0.000 A 
ATOM     25  N   UNL     1      44.372   2.016   9.839  0.00  0.00    +0.000 NA
ATOM     26  C   UNL     1      45.064   2.057   8.749  0.00  0.00    +0.000 A 
ATOM     27  N   UNL     1      45.662   3.183   8.240  0.00  0.00    +0.000 N 
ATOM     28  C   UNL     1      45.611   4.407   8.864  0.00  0.00    +0.000 A 
ATOM     29  O   UNL     1      46.167   5.393   8.390  0.00  0.00    +0.000 OA
ATOM     30  C   UNL     1      44.841   4.411  10.098  0.00  0.00    +0.000 A 
ATOM     31  H   UNL     1      46.172   3.148   7.370  0.00  0.00    +0.000 HD
ENDBRANCH  20  21
ENDBRANCH  18  20
ENDBRANCH  17  18
ENDBRANCH   4  17
TORSDOF 8
ENDMDL
MODEL 5
REMARK VINA RESULT:    -6.679      2.564      3.350
REMARK INTER + INTRA:         -10.904
REMARK INTER:                  -9.657
REMARK INTRA:                  -1.247
REMARK UNBOUND:                -1.102
REMARK  Name = 
REMARK  10 active torsions:
REMARK  status: ('A' for Active; 'I' for Inactive)
REMARK    1  A    between atoms: C_1  and  N_2
REMARK    2  A    between atoms: N_2  and  C_3
REMARK    3  A    between atoms: N_2  and  C_10
REMARK    4  A    between atoms: C_3  and  C_4
REMARK    5  A    between atoms: C_10  and  C_11
REMARK    6  A    between atoms: C_14  and  C_15
REMARK    7  A    between atoms: C_15  and  N_16
REMARK    8  A    between atoms: N_16  and  C_17
REMARK    9  A    between atoms: N_16  and  C_18
REMARK   10  A    between atoms: C_18  and  C_19
REMARK                            x       y       z     vdW  Elec       q    Type
REMARK                         _______ _______ _______ _____ _____    ______ ____
ROOT
ATOM      1  C   UNL     1      45.381   5.656  12.726  0.00  0.00    +0.000 A 
ATOM      2  C   UNL     1      46.677   5.245  13.045  0.00  0.00    +0.000 A 
ATOM      3  C   UNL     1      47.709   6.174  12.970  0.00  0.00    +0.000 A 
ATOM      4  C   UNL     1      47.437   7.476  12.556  0.00  0.00    +0.000 A 
ATOM      5  C   UNL     1      46.113   7.807  12.291  0.00  0.00    +0.000 A 
ATOM      6  N   UNL     1      45.088   6.932  12.371  0.00  0.00    +0.000 NA
ENDROOT
BRANCH   1   7
ATOM      7  C   UNL     1      44.231   4.670  12.746  0.00  0.00    +0.000 C 
BRANCH   7   9
ATOM      8  C   UNL     1      43.327   2.557  12.002  0.00  0.00    +0.000 C 
ATOM      9  N   UNL     1      44.327   3.597  11.727  0.00  0.00    +0.000 NA
BRANCH   9  10
ATOM     10  C   UNL     1      44.073   4.168  10.381  0.00  0.00    +0.000 C 
BRANCH  10  11
ATOM     11  C   UNL     1      44.989   3.635   9.293  0.00  0.00    +0.000 A 
ATOM     12  C   UNL     1      45.215   2.265   9.166  0.00  0.00    +0.000 A 
ATOM     13  C   UNL     1      46.102   1.817   8.190  0.00  0.00    +0.000 A 
ATOM     14  C   UNL     1      46.734   2.743   7.370  0.00  0.00    +0.000 A 
ATOM     15  C   UNL     1      46.453   4.085   7.557  0.00  0.00    +0.000 A 
ATOM     16  N   UNL     1      45.600   4.550   8.496  0.00  0.00    +0.000 NA
ENDBRANCH  10  11
ENDBRANCH   9  10
ENDBRANCH   7   9
ENDBRANCH   1   7
BRANCH   4  17
ATOM     17  C   UNL     1      48.527   8.492  12.333  0.00  0.00    +0.000 C 
BRANCH  17  18
ATOM     18  N   UNL     1      49.877   7.940  12.572  0.00  0.00    +0.000 NA
ATOM     19  C   UNL     1      50.693   7.972  11.349  0.00  0.00    +0.000 C 
BRANCH  18  20
ATOM     20  C   UNL     1      50.583   8.684  13.638  0.00  0.00    +0.000 C 
BRANCH  20  21
ATOM     21  C   UNL     1      50.108   8.222  14.990  0.00  0.00    +0.000 A 
ATOM     22  C   UNL     1      50.351   6.958  15.507  0.00  0.00    +0.000 A 
ATOM     23  S   UNL     1      49.527   6.664  16.972  0.00  0.00    +0.000 S 
ATOM     24  C   UNL     1      48.900   8.246  17.007  0.00  0.00    +0.000 A 
ATOM     25  N   UNL     1      48.094   8.665  18.020  0.00  0.00    +0.000 NA
ATOM     26  C   UNL     1      47.740   9.905  17.939  0.00  0.00    +0.000 A 
ATOM     27  N   UNL     1      48.115  10.765  16.936  0.00  0.00    +0.000 N 
ATOM     28  C   UNL     1      48.900  10.381  15.874  0.00  0.00    +0.000 A 
ATOM     29  O   UNL     1      49.207  11.170  14.986  0.00  0.00    +0.000 OA
ATOM     30  C   UNL     1      49.323   8.991  15.922  0.00  0.00    +0.000 A 
ATOM     31  H   UNL     1      47.819  11.728  16.945  0.00  0.00    +0.000 HD
ENDBRANCH  20  21
ENDBRANCH  18  20
ENDBRANCH  17  18
ENDBRANCH   4  17
TORSDOF 8
ENDMDL
MODEL 6
REMARK VINA RESULT:    -6.538      1.706      2.094
REMARK INTER + INTRA:         -10.698
REMARK INTER:                  -9.948
REMARK INTRA:                  -0.750
REMARK UNBOUND:                -1.102
REMARK  Name = 
REMARK  10 active torsions:
REMARK  status: ('A' for Active; 'I' for Inactive)
REMARK    1  A    between atoms: C_1  and  N_2
REMARK    2  A    between atoms: N_2  and  C_3
REMARK    3  A    between atoms: N_2  and  C_10
REMARK    4  A    between atoms: C_3  and  C_4
REMARK    5  A    between atoms: C_10  and  C_11
REMARK    6  A    between atoms: C_14  and  C_15
REMARK    7  A    between atoms: C_15  and  N_16
REMARK    8  A    between atoms: N_16  and  C_17
REMARK    9  A    between atoms: N_16  and  C_18
REMARK   10  A    between atoms: C_18  and  C_19
REMARK                            x       y       z     vdW  Elec       q    Type
REMARK                         _______ _______ _______ _____ _____    ______ ____
ROOT
ATOM      1  C   UNL     1      45.933   6.937  12.025  0.00  0.00    +0.000 A 
ATOM      2  C   UNL     1      47.188   6.324  12.010  0.00  0.00    +0.000 A 
ATOM      3  C   UNL     1      48.185   6.824  12.838  0.00  0.00    +0.000 A 
ATOM      4  C   UNL     1      47.926   7.935  13.638  0.00  0.00    +0.000 A 
ATOM      5  C   UNL     1      46.639   8.461  13.616  0.00  0.00    +0.000 A 
ATOM      6  N   UNL     1      45.645   7.986  12.834  0.00  0.00    +0.000 NA
ENDROOT
BRANCH   1   7
ATOM      7  C   UNL     1      44.828   6.459  11.106  0.00  0.00    +0.000 C 
BRANCH   7   9
ATOM      8  C   UNL     1      43.645   4.698  12.261  0.00  0.00    +0.000 C 
ATOM      9  N   UNL     1      44.573   4.999  11.163  0.00  0.00    +0.000 NA
BRANCH   9  10
ATOM     10  C   UNL     1      43.969   4.552   9.883  0.00  0.00    +0.000 C 
BRANCH  10  11
ATOM     11  C   UNL     1      44.896   3.725   9.010  0.00  0.00    +0.000 A 
ATOM     12  C   UNL     1      45.025   2.352   9.216  0.00  0.00    +0.000 A 
ATOM     13  C   UNL     1      45.925   1.636   8.431  0.00  0.00    +0.000 A 
ATOM     14  C   UNL     1      46.666   2.304   7.465  0.00  0.00    +0.000 A 
ATOM     15  C   UNL     1      46.478   3.667   7.321  0.00  0.00    +0.000 A 
ATOM     16  N   UNL     1      45.616   4.390   8.068  0.00  0.00    +0.000 NA
ENDBRANCH  10  11
ENDBRANCH   9  10
ENDBRANCH   7   9
ENDBRANCH   1   7
BRANCH   4  17
ATOM     17  C   UNL     1      48.998   8.601  14.460  0.00  0.00    +0.000 C 
BRANCH  17  18
ATOM     18  N   UNL     1      50.334   8.010  14.239  0.00  0.00    +0.000 NA
ATOM     19  C   UNL     1      51.319   9.036  13.864  0.00  0.00    +0.000 C 
BRANCH  18  20
ATOM     20  C   UNL     1      50.817   7.301  15.444  0.00  0.00    +0.000 C 
BRANCH  20  21
ATOM     21  C   UNL     1      50.005   7.712  16.644  0.00  0.00    +0.000 A 
ATOM     22  C   UNL     1      50.189   8.900  17.334  0.00  0.00    +0.000 A 
ATOM     23  S   UNL     1      49.254   8.999  18.758  0.00  0.00    +0.000 S 
ATOM     24  C   UNL     1      48.505   7.504  18.442  0.00  0.00    +0.000 A 
ATOM     25  N   UNL     1      47.574   6.985  19.289  0.00  0.00    +0.000 NA
ATOM     26  C   UNL     1      47.056   5.871  18.891  0.00  0.00    +0.000 A 
ATOM     27  N   UNL     1      47.386   5.224  17.726  0.00  0.00    +0.000 N 
ATOM     28  C   UNL     1      48.343   5.688  16.854  0.00  0.00    +0.000 A 
ATOM     29  O   UNL     1      48.625   5.079  15.827  0.00  0.00    +0.000 OA
ATOM     30  C   UNL     1      48.956   6.943  17.261  0.00  0.00    +0.000 A 
ATOM     31  H   UNL     1      46.926   4.365  17.464  0.00  0.00    +0.000 HD
ENDBRANCH  20  21
ENDBRANCH  18  20
ENDBRANCH  17  18
ENDBRANCH   4  17
TORSDOF 8
ENDMDL
MODEL 7
REMARK VINA RESULT:    -6.330      1.841      2.437
REMARK INTER + INTRA:         -10.393
REMARK INTER:                  -9.180
REMARK INTRA:                  -1.213
REMARK UNBOUND:                -1.102
REMARK  Name = 
REMARK  10 active torsions:
REMARK  status: ('A' for Active; 'I' for Inactive)
REMARK    1  A    between atoms: C_1  and  N_2
REMARK    2  A    between atoms: N_2  and  C_3
REMARK    3  A    between atoms: N_2  and  C_10
REMARK    4  A    between atoms: C_3  and  C_4
REMARK    5  A    between atoms: C_10  and  C_11
REMARK    6  A    between atoms: C_14  and  C_15
REMARK    7  A    between atoms: C_15  and  N_16
REMARK    8  A    between atoms: N_16  and  C_17
REMARK    9  A    between atoms: N_16  and  C_18
REMARK   10  A    between atoms: C_18  and  C_19
REMARK                            x       y       z     vdW  Elec       q    Type
REMARK                         _______ _______ _______ _____ _____    ______ ____
ROOT
ATOM      1  C   UNL     1      47.252   7.356  12.466  0.00  0.00    +0.000 A 
ATOM      2  C   UNL     1      48.450   7.231  11.760  0.00  0.00    +0.000 A 
ATOM      3  C   UNL     1      49.630   7.641  12.370  0.00  0.00    +0.000 A 
ATOM      4  C   UNL     1      49.591   8.192  13.649  0.00  0.00    +0.000 A 
ATOM      5  C   UNL     1      48.358   8.247  14.292  0.00  0.00    +0.000 A 
ATOM      6  N   UNL     1      47.199   7.840  13.732  0.00  0.00    +0.000 NA
ENDROOT
BRANCH   1   7
ATOM      7  C   UNL     1      45.935   6.967  11.827  0.00  0.00    +0.000 C 
BRANCH   7   9
ATOM      8  C   UNL     1      45.222   4.978  12.999  0.00  0.00    +0.000 C 
ATOM      9  N   UNL     1      45.715   5.504  11.720  0.00  0.00    +0.000 NA
BRANCH   9  10
ATOM     10  C   UNL     1      44.707   5.232  10.665  0.00  0.00    +0.000 C 
BRANCH  10  11
ATOM     11  C   UNL     1      45.162   4.243   9.606  0.00  0.00    +0.000 A 
ATOM     12  C   UNL     1      44.936   2.877   9.769  0.00  0.00    +0.000 A 
ATOM     13  C   UNL     1      45.415   1.996   8.803  0.00  0.00    +0.000 A 
ATOM     14  C   UNL     1      46.100   2.498   7.704  0.00  0.00    +0.000 A 
ATOM     15  C   UNL     1      46.280   3.867   7.614  0.00  0.00    +0.000 A 
ATOM     16  N   UNL     1      45.831   4.747   8.535  0.00  0.00    +0.000 NA
ENDBRANCH  10  11
ENDBRANCH   9  10
ENDBRANCH   7   9
ENDBRANCH   1   7
BRANCH   4  17
ATOM     17  C   UNL     1      50.812   8.771  14.313  0.00  0.00    +0.000 C 
BRANCH  17  18
ATOM     18  N   UNL     1      51.574   7.763  15.082  0.00  0.00    +0.000 NA
ATOM     19  C   UNL     1      53.015   7.856  14.807  0.00  0.00    +0.000 C 
BRANCH  18  20
ATOM     20  C   UNL     1      51.353   7.915  16.537  0.00  0.00    +0.000 C 
BRANCH  20  21
ATOM     21  C   UNL     1      50.814   6.633  17.113  0.00  0.00    +0.000 A 
ATOM     22  C   UNL     1      51.512   5.435  17.125  0.00  0.00    +0.000 A 
ATOM     23  S   UNL     1      50.573   4.118  17.668  0.00  0.00    +0.000 S 
ATOM     24  C   UNL     1      49.240   5.125  17.993  0.00  0.00    +0.000 A 
ATOM     25  N   UNL     1      48.078   4.622  18.491  0.00  0.00    +0.000 NA
ATOM     26  C   UNL     1      47.176   5.513  18.737  0.00  0.00    +0.000 A 
ATOM     27  N   UNL     1      47.326   6.861  18.528  0.00  0.00    +0.000 N 
ATOM     28  C   UNL     1      48.467   7.416  17.996  0.00  0.00    +0.000 A 
ATOM     29  O   UNL     1      48.566   8.624  17.808  0.00  0.00    +0.000 OA
ATOM     30  C   UNL     1      49.513   6.449  17.702  0.00  0.00    +0.000 A 
ATOM     31  H   UNL     1      46.587   7.506  18.763  0.00  0.00    +0.000 HD
ENDBRANCH  20  21
ENDBRANCH  18  20
ENDBRANCH  17  18
ENDBRANCH   4  17
TORSDOF 8
ENDMDL
MODEL 8
REMARK VINA RESULT:    -6.287      2.855      3.853
REMARK INTER + INTRA:         -10.329
REMARK INTER:                  -9.432
REMARK INTRA:                  -0.897
REMARK UNBOUND:                -1.102
REMARK  Name = 
REMARK  10 active torsions:
REMARK  status: ('A' for Active; 'I' for Inactive)
REMARK    1  A    between atoms: C_1  and  N_2
REMARK    2  A    between atoms: N_2  and  C_3
REMARK    3  A    between atoms: N_2  and  C_10
REMARK    4  A    between atoms: C_3  and  C_4
REMARK    5  A    between atoms: C_10  and  C_11
REMARK    6  A    between atoms: C_14  and  C_15
REMARK    7  A    between atoms: C_15  and  N_16
REMARK    8  A    between atoms: N_16  and  C_17
REMARK    9  A    between atoms: N_16  and  C_18
REMARK   10  A    between atoms: C_18  and  C_19
REMARK                            x       y       z     vdW  Elec       q    Type
REMARK                         _______ _______ _______ _____ _____    ______ ____
ROOT
ATOM      1  C   UNL     1      45.415   6.561  11.758  0.00  0.00    +0.000 A 
ATOM      2  C   UNL     1      46.734   6.408  11.326  0.00  0.00    +0.000 A 
ATOM      3  C   UNL     1      47.705   7.264  11.831  0.00  0.00    +0.000 A 
ATOM      4  C   UNL     1      47.343   8.266  12.729  0.00  0.00    +0.000 A 
ATOM      5  C   UNL     1      46.013   8.324  13.131  0.00  0.00    +0.000 A 
ATOM      6  N   UNL     1      45.051   7.496  12.671  0.00  0.00    +0.000 NA
ENDROOT
BRANCH   1   7
ATOM      7  C   UNL     1      44.313   5.684  11.201  0.00  0.00    +0.000 C 
BRANCH   7   9
ATOM      8  C   UNL     1      43.927   3.663  12.467  0.00  0.00    +0.000 C 
ATOM      9  N   UNL     1      44.587   4.228  11.283  0.00  0.00    +0.000 NA
BRANCH   9  10
ATOM     10  C   UNL     1      44.061   3.556  10.069  0.00  0.00    +0.000 C 
BRANCH  10  11
ATOM     11  C   UNL     1      45.124   3.187   9.049  0.00  0.00    +0.000 A 
ATOM     12  C   UNL     1      45.693   4.165   8.234  0.00  0.00    +0.000 A 
ATOM     13  C   UNL     1      46.625   3.780   7.274  0.00  0.00    +0.000 A 
ATOM     14  C   UNL     1      46.966   2.439   7.155  0.00  0.00    +0.000 A 
ATOM     15  C   UNL     1      46.358   1.531   8.005  0.00  0.00    +0.000 A 
ATOM     16  N   UNL     1      45.449   1.872   8.943  0.00  0.00    +0.000 NA
ENDBRANCH  10  11
ENDBRANCH   9  10
ENDBRANCH   7   9
ENDBRANCH   1   7
BRANCH   4  17
ATOM     17  C   UNL     1      48.322   9.303  13.214  0.00  0.00    +0.000 C 
BRANCH  17  18
ATOM     18  N   UNL     1      49.106   8.843  14.380  0.00  0.00    +0.000 NA
ATOM     19  C   UNL     1      50.499   8.556  14.009  0.00  0.00    +0.000 C 
BRANCH  18  20
ATOM     20  C   UNL     1      49.097   9.847  15.466  0.00  0.00    +0.000 C 
BRANCH  20  21
ATOM     21  C   UNL     1      48.671   9.204  16.759  0.00  0.00    +0.000 A 
ATOM     22  C   UNL     1      48.819   7.854  17.039  0.00  0.00    +0.000 A 
ATOM     23  S   UNL     1      48.072   7.387  18.500  0.00  0.00    +0.000 S 
ATOM     24  C   UNL     1      47.614   8.989  18.848  0.00  0.00    +0.000 A 
ATOM     25  N   UNL     1      46.926   9.297  19.981  0.00  0.00    +0.000 NA
ATOM     26  C   UNL     1      46.696  10.559  20.135  0.00  0.00    +0.000 A 
ATOM     27  N   UNL     1      47.087  11.542  19.259  0.00  0.00    +0.000 N 
ATOM     28  C   UNL     1      47.754  11.278  18.085  0.00  0.00    +0.000 A 
ATOM     29  O   UNL     1      48.078  12.177  17.316  0.00  0.00    +0.000 OA
ATOM     30  C   UNL     1      48.035   9.868  17.868  0.00  0.00    +0.000 A 
ATOM     31  H   UNL     1      46.892  12.512  19.452  0.00  0.00    +0.000 HD
ENDBRANCH  20  21
ENDBRANCH  18  20
ENDBRANCH  17  18
ENDBRANCH   4  17
TORSDOF 8
ENDMDL
MODEL 9
REMARK VINA RESULT:    -6.271      3.109      3.766
REMARK INTER + INTRA:         -10.305
REMARK INTER:                  -9.366
REMARK INTRA:                  -0.939
REMARK UNBOUND:                -1.102
REMARK  Name = 
REMARK  10 active torsions:
REMARK  status: ('A' for Active; 'I' for Inactive)
REMARK    1  A    between atoms: C_1  and  N_2
REMARK    2  A    between atoms: N_2  and  C_3
REMARK    3  A    between atoms: N_2  and  C_10
REMARK    4  A    between atoms: C_3  and  C_4
REMARK    5  A    between atoms: C_10  and  C_11
REMARK    6  A    between atoms: C_14  and  C_15
REMARK    7  A    between atoms: C_15  and  N_16
REMARK    8  A    between atoms: N_16  and  C_17
REMARK    9  A    between atoms: N_16  and  C_18
REMARK   10  A    between atoms: C_18  and  C_19
REMARK                            x       y       z     vdW  Elec       q    Type
REMARK                         _______ _______ _______ _____ _____    ______ ____
ROOT
ATOM      1  C   UNL     1      45.953   6.985  12.265  0.00  0.00    +0.000 A 
ATOM      2  C   UNL     1      45.973   8.213  12.931  0.00  0.00    +0.000 A 
ATOM      3  C   UNL     1      47.050   8.504  13.760  0.00  0.00    +0.000 A 
ATOM      4  C   UNL     1      48.063   7.564  13.932  0.00  0.00    +0.000 A 
ATOM      5  C   UNL     1      47.979   6.382  13.204  0.00  0.00    +0.000 A 
ATOM      6  N   UNL     1      46.955   6.078  12.378  0.00  0.00    +0.000 NA
ENDROOT
BRANCH   1   7
ATOM      7  C   UNL     1      44.779   6.601  11.388  0.00  0.00    +0.000 C 
BRANCH   7   9
ATOM      8  C   UNL     1      43.395   5.058  12.628  0.00  0.00    +0.000 C 
ATOM      9  N   UNL     1      44.351   5.187  11.521  0.00  0.00    +0.000 NA
BRANCH   9  10
ATOM     10  C   UNL     1      43.698   4.748  10.263  0.00  0.00    +0.000 C 
BRANCH  10  11
ATOM     11  C   UNL     1      44.572   3.878   9.376  0.00  0.00    +0.000 A 
ATOM     12  C   UNL     1      44.618   2.498   9.561  0.00  0.00    +0.000 A 
ATOM     13  C   UNL     1      45.471   1.740   8.763  0.00  0.00    +0.000 A 
ATOM     14  C   UNL     1      46.250   2.376   7.805  0.00  0.00    +0.000 A 
ATOM     15  C   UNL     1      46.143   3.750   7.681  0.00  0.00    +0.000 A 
ATOM     16  N   UNL     1      45.328   4.512   8.441  0.00  0.00    +0.000 NA
ENDBRANCH  10  11
ENDBRANCH   9  10
ENDBRANCH   7   9
ENDBRANCH   1   7
BRANCH   4  17
ATOM     17  C   UNL     1      49.189   7.766  14.912  0.00  0.00    +0.000 C 
BRANCH  17  18
ATOM     18  N   UNL     1      48.813   7.399  16.294  0.00  0.00    +0.000 NA
ATOM     19  C   UNL     1      49.042   5.970  16.551  0.00  0.00    +0.000 C 
BRANCH  18  20
ATOM     20  C   UNL     1      49.571   8.192  17.287  0.00  0.00    +0.000 C 
BRANCH  20  21
ATOM     21  C   UNL     1      48.652   9.162  17.981  0.00  0.00    +0.000 A 
ATOM     22  C   UNL     1      48.293  10.397  17.462  0.00  0.00    +0.000 A 
ATOM     23  S   UNL     1      47.398  11.350  18.558  0.00  0.00    +0.000 S 
ATOM     24  C   UNL     1      47.382  10.106  19.720  0.00  0.00    +0.000 A 
ATOM     25  N   UNL     1      46.765  10.268  20.922  0.00  0.00    +0.000 NA
ATOM     26  C   UNL     1      46.790   9.221  21.677  0.00  0.00    +0.000 A 
ATOM     27  N   UNL     1      47.378   8.026  21.344  0.00  0.00    +0.000 N 
ATOM     28  C   UNL     1      48.042   7.822  20.157  0.00  0.00    +0.000 A 
ATOM     29  O   UNL     1      48.569   6.745  19.894  0.00  0.00    +0.000 OA
ATOM     30  C   UNL     1      48.041   8.976  19.272  0.00  0.00    +0.000 A 
ATOM     31  H   UNL     1      47.342   7.239  21.974  0.00  0.00    +0.000 HD
ENDBRANCH  20  21
ENDBRANCH  18  20
ENDBRANCH  17  18
ENDBRANCH   4  17
TORSDOF 8
ENDMDL
