MODEL 1
REMARK VINA RESULT:    -6.869      0.000      0.000
REMARK INTER + INTRA:         -10.103
REMARK INTER:                  -9.480
REMARK INTRA:                  -0.623
REMARK UNBOUND:                -0.623
REMARK  Name = 
REMARK  8 active torsions:
REMARK  status: ('A' for Active; 'I' for Inactive)
REMARK    1  A    between atoms: C_1  and  S_2
REMARK    2  A    between atoms: S_2  and  C_3
REMARK    3  A    between atoms: C_5  and  C_6
REMARK    4  A    between atoms: C_11  and  C_12
REMARK    5  A    between atoms: C_13  and  C_14
REMARK    6  A    between atoms: C_14  and  C_15
REMARK    7  A    between atoms: C_19  and  C_20
REMARK    8  A    between atoms: C_20  and  N_21
REMARK                            x       y       z     vdW  Elec       q    Type
REMARK                         _______ _______ _______ _____ _____    ______ ____
ROOT
ATOM      1  C   UNL     1      46.890   5.803  13.299  0.00  0.00    +0.000 A 
ATOM      2  N   UNL     1      47.601   6.508  14.221  0.00  0.00    +0.000 NA
ATOM      3  C   UNL     1      47.703   7.848  14.034  0.00  0.00    +0.000 A 
ATOM      4  C   UNL     1      47.131   8.517  12.963  0.00  0.00    +0.000 A 
ATOM      5  C   UNL     1      46.440   7.771  12.008  0.00  0.00    +0.000 A 
ATOM      6  C   UNL     1      46.309   6.389  12.166  0.00  0.00    +0.000 A 
ENDROOT
BRANCH   3   7
ATOM      7  C   UNL     1      48.481   8.610  15.066  0.00  0.00    +0.000 C 
ATOM      8  N   UNL     1      47.757   9.266  16.029  0.00  0.00    +0.000 N 
ATOM      9  O   UNL     1      49.702   8.646  15.061  0.00  0.00    +0.000 OA
ATOM     10  H   UNL     1      46.748   9.200  16.058  0.00  0.00    +0.000 HD
ATOM     11  H   UNL     1      48.252   9.760  16.757  0.00  0.00    +0.000 HD
ENDBRANCH   3   7
BRANCH   1  13
ATOM     12  C   UNL     1      47.301   4.066  15.371  0.00  0.00    +0.000 C 
ATOM     13  S   UNL     1      46.736   4.053  13.650  0.00  0.00    +0.000 S 
ENDBRANCH   1  13
BRANCH   6  14
ATOM     14  C   UNL     1      45.557   5.651  11.191  0.00  0.00    +0.000 C 
ATOM     15  C   UNL     1      44.947   5.024  10.361  0.00  0.00    +0.000 C 
BRANCH  15  16
ATOM     16  C   UNL     1      44.231   4.280   9.312  0.00  0.00    +0.000 C 
BRANCH  16  17
ATOM     17  C   UNL     1      45.082   3.202   8.683  0.00  0.00    +0.000 A 
ATOM     18  C   UNL     1      44.900   1.855   9.021  0.00  0.00    +0.000 A 
ATOM     19  C   UNL     1      45.718   0.872   8.465  0.00  0.00    +0.000 A 
ATOM     20  C   UNL     1      46.738   1.227   7.580  0.00  0.00    +0.000 A 
ATOM     21  C   UNL     1      46.944   2.567   7.222  0.00  0.00    +0.000 A 
ATOM     22  C   UNL     1      46.105   3.545   7.783  0.00  0.00    +0.000 A 
BRANCH  21  23
ATOM     23  C   UNL     1      48.120   2.932   6.348  0.00  0.00    +0.000 C 
BRANCH  23  24
ATOM     24  N   UNL     1      48.486   1.890   5.394  0.00  0.00    +0.000 NA
ATOM     25  H   UNL     1      47.721   1.220   5.333  0.00  0.00    +0.000 HD
ATOM     26  H   UNL     1      49.288   1.377   5.758  0.00  0.00    +0.000 HD
ENDBRANCH  23  24
ENDBRANCH  21  23
ENDBRANCH  16  17
ENDBRANCH  15  16
ENDBRANCH   6  14
TORSDOF 7
ENDMDL
MODEL 2
REMARK VINA RESULT:    -6.740      1.725      2.581
REMARK INTER + INTRA:          -9.923
REMARK INTER:                  -9.276
REMARK INTRA:                  -0.647
REMARK UNBOUND:                -0.623
REMARK  Name = 
REMARK  8 active torsions:
REMARK  status: ('A' for Active; 'I' for Inactive)
REMARK    1  A    between atoms: C_1  and  S_2
REMARK    2  A    between atoms: S_2  and  C_3
REMARK    3  A    between atoms: C_5  and  C_6
REMARK    4  A    between atoms: C_11  and  C_12
REMARK    5  A    between atoms: C_13  and  C_14
REMARK    6  A    between atoms: C_14  and  C_15
REMARK    7  A    between atoms: C_19  and  C_20
REMARK    8  A    between atoms: C_20  and  N_21
REMARK                            x       y       z     vdW  Elec       q    Type
REMARK                         _______ _______ _______ _____ _____    ______ ____
ROOT
ATOM      1  C   UNL     1      47.804   6.217  13.479  0.00  0.00    +0.000 A 
ATOM      2  N   UNL     1      48.470   6.306  14.663  0.00  0.00    +0.000 NA
ATOM      3  C   UNL     1      48.116   5.435  15.641  0.00  0.00    +0.000 A 
ATOM      4  C   UNL     1      47.121   4.481  15.493  0.00  0.00    +0.000 A 
ATOM      5  C   UNL     1      46.424   4.433  14.286  0.00  0.00    +0.000 A 
ATOM      6  C   UNL     1      46.760   5.310  13.251  0.00  0.00    +0.000 A 
ENDROOT
BRANCH   3   7
ATOM      7  C   UNL     1      48.868   5.540  16.935  0.00  0.00    +0.000 C 
ATOM      8  N   UNL     1      48.207   6.112  17.992  0.00  0.00    +0.000 N 
ATOM      9  O   UNL     1      50.013   5.131  17.054  0.00  0.00    +0.000 OA
ATOM     10  H   UNL     1      47.244   6.410  17.906  0.00  0.00    +0.000 HD
ATOM     11  H   UNL     1      48.674   6.165  18.886  0.00  0.00    +0.000 HD
ENDBRANCH   3   7
BRANCH   1  13
ATOM     12  C   UNL     1      47.246   8.724  12.540  0.00  0.00    +0.000 C 
ATOM     13  S   UNL     1      48.376   7.347  12.212  0.00  0.00    +0.000 S 
ENDBRANCH   1  13
BRANCH   6  14
ATOM     14  C   UNL     1      46.056   5.210  12.006  0.00  0.00    +0.000 C 
ATOM     15  C   UNL     1      45.477   5.106  10.952  0.00  0.00    +0.000 C 
BRANCH  15  16
ATOM     16  C   UNL     1      44.816   4.978   9.643  0.00  0.00    +0.000 C 
BRANCH  16  17
ATOM     17  C   UNL     1      45.285   3.764   8.875  0.00  0.00    +0.000 A 
ATOM     18  C   UNL     1      45.027   2.471   9.350  0.00  0.00    +0.000 A 
ATOM     19  C   UNL     1      45.500   1.358   8.654  0.00  0.00    +0.000 A 
ATOM     20  C   UNL     1      46.250   1.526   7.489  0.00  0.00    +0.000 A 
ATOM     21  C   UNL     1      46.523   2.808   6.989  0.00  0.00    +0.000 A 
ATOM     22  C   UNL     1      46.032   3.919   7.695  0.00  0.00    +0.000 A 
BRANCH  21  23
ATOM     23  C   UNL     1      47.425   2.963   5.788  0.00  0.00    +0.000 C 
BRANCH  23  24
ATOM     24  N   UNL     1      48.452   1.930   5.692  0.00  0.00    +0.000 NA
ATOM     25  H   UNL     1      48.600   1.707   4.709  0.00  0.00    +0.000 HD
ATOM     26  H   UNL     1      48.105   1.078   6.130  0.00  0.00    +0.000 HD
ENDBRANCH  23  24
ENDBRANCH  21  23
ENDBRANCH  16  17
ENDBRANCH  15  16
ENDBRANCH   6  14
TORSDOF 7
ENDMDL
MODEL 3
REMARK VINA RESULT:    -6.413      2.281      3.488
REMARK INTER + INTRA:          -9.473
REMARK INTER:                  -8.857
REMARK INTRA:                  -0.616
REMARK UNBOUND:                -0.623
REMARK  Name = 
REMARK  8 active torsions:
REMARK  status: ('A' for Active; 'I' for Inactive)
REMARK    1  A    between atoms: C_1  and  S_2
REMARK    2  A    between atoms: S_2  and  C_3
REMARK    3  A    between atoms: C_5  and  C_6
REMARK    4  A    between atoms: C_11  and  C_12
REMARK    5  A    between atoms: C_13  and  C_14
REMARK    6  A    between atoms: C_14  and  C_15
REMARK    7  A    between atoms: C_19  and  C_20
REMARK    8  A    between atoms: C_20  and  N_21
REMARK                            x       y       z     vdW  Elec       q    Type
REMARK                         _______ _______ _______ _____ _____    ______ ____
ROOT
ATOM      1  C   UNL     1      48.420   6.174  14.756  0.00  0.00    +0.000 A 
ATOM      2  N   UNL     1      49.046   5.948  15.943  0.00  0.00    +0.000 NA
ATOM      3  C   UNL     1      48.614   4.898  16.683  0.00  0.00    +0.000 A 
ATOM      4  C   UNL     1      47.578   4.062  16.294  0.00  0.00    +0.000 A 
ATOM      5  C   UNL     1      46.923   4.334  15.093  0.00  0.00    +0.000 A 
ATOM      6  C   UNL     1      47.341   5.405  14.299  0.00  0.00    +0.000 A 
ENDROOT
BRANCH   3   7
ATOM      7  C   UNL     1      49.323   4.657  17.983  0.00  0.00    +0.000 C 
ATOM      8  N   UNL     1      49.171   3.419  18.553  0.00  0.00    +0.000 N 
ATOM      9  O   UNL     1      50.011   5.515  18.515  0.00  0.00    +0.000 OA
ATOM     10  H   UNL     1      48.636   2.694  18.091  0.00  0.00    +0.000 HD
ATOM     11  H   UNL     1      49.662   3.214  19.411  0.00  0.00    +0.000 HD
ENDBRANCH   3   7
BRANCH   1  13
ATOM     12  C   UNL     1      50.513   7.932  14.851  0.00  0.00    +0.000 C 
ATOM     13  S   UNL     1      49.093   7.531  13.800  0.00  0.00    +0.000 S 
ENDBRANCH   1  13
BRANCH   6  14
ATOM     14  C   UNL     1      46.678   5.637  13.048  0.00  0.00    +0.000 C 
ATOM     15  C   UNL     1      46.098   5.836  12.009  0.00  0.00    +0.000 C 
BRANCH  15  16
ATOM     16  C   UNL     1      45.355   6.044  10.755  0.00  0.00    +0.000 C 
BRANCH  16  17
ATOM     17  C   UNL     1      45.188   4.769   9.962  0.00  0.00    +0.000 A 
ATOM     18  C   UNL     1      44.504   3.673  10.503  0.00  0.00    +0.000 A 
ATOM     19  C   UNL     1      44.391   2.486   9.779  0.00  0.00    +0.000 A 
ATOM     20  C   UNL     1      44.975   2.377   8.515  0.00  0.00    +0.000 A 
ATOM     21  C   UNL     1      45.664   3.459   7.948  0.00  0.00    +0.000 A 
ATOM     22  C   UNL     1      45.762   4.650   8.686  0.00  0.00    +0.000 A 
BRANCH  21  23
ATOM     23  C   UNL     1      46.376   3.278   6.628  0.00  0.00    +0.000 C 
BRANCH  23  24
ATOM     24  N   UNL     1      47.827   3.173   6.756  0.00  0.00    +0.000 NA
ATOM     25  H   UNL     1      48.141   2.349   6.246  0.00  0.00    +0.000 HD
ATOM     26  H   UNL     1      48.060   3.012   7.735  0.00  0.00    +0.000 HD
ENDBRANCH  23  24
ENDBRANCH  21  23
ENDBRANCH  16  17
ENDBRANCH  15  16
ENDBRANCH   6  14
TORSDOF 7
ENDMDL
MODEL 4
REMARK VINA RESULT:    -6.321      4.072      8.224
REMARK INTER + INTRA:          -9.346
REMARK INTER:                  -8.719
REMARK INTRA:                  -0.627
REMARK UNBOUND:                -0.623
REMARK  Name = 
REMARK  8 active torsions:
REMARK  status: ('A' for Active; 'I' for Inactive)
REMARK    1  A    between atoms: C_1  and  S_2
REMARK    2  A    between atoms: S_2  and  C_3
REMARK    3  A    between atoms: C_5  and  C_6
REMARK    4  A    between atoms: C_11  and  C_12
REMARK    5  A    between atoms: C_13  and  C_14
REMARK    6  A    between atoms: C_14  and  C_15
REMARK    7  A    between atoms: C_19  and  C_20
REMARK    8  A    between atoms: C_20  and  N_21
REMARK                            x       y       z     vdW  Elec       q    Type
REMARK                         _______ _______ _______ _____ _____    ______ ____
ROOT
ATOM      1  C   UNL     1      46.612   5.663  12.714  0.00  0.00    +0.000 A 
ATOM      2  N   UNL     1      46.197   5.779  11.422  0.00  0.00    +0.000 NA
ATOM      3  C   UNL     1      45.568   4.711  10.873  0.00  0.00    +0.000 A 
ATOM      4  C   UNL     1      45.338   3.525  11.554  0.00  0.00    +0.000 A 
ATOM      5  C   UNL     1      45.806   3.411  12.863  0.00  0.00    +0.000 A 
ATOM      6  C   UNL     1      46.456   4.491  13.467  0.00  0.00    +0.000 A 
ENDROOT
BRANCH   3   7
ATOM      7  C   UNL     1      45.108   4.861   9.453  0.00  0.00    +0.000 C 
ATOM      8  N   UNL     1      43.783   4.610   9.200  0.00  0.00    +0.000 N 
ATOM      9  O   UNL     1      45.869   5.196   8.558  0.00  0.00    +0.000 OA
ATOM     10  H   UNL     1      43.144   4.375   9.949  0.00  0.00    +0.000 HD
ATOM     11  H   UNL     1      43.435   4.736   8.261  0.00  0.00    +0.000 HD
ENDBRANCH   3   7
BRANCH   1  13
ATOM     12  C   UNL     1      49.016   6.965  12.666  0.00  0.00    +0.000 C 
ATOM     13  S   UNL     1      47.366   7.137  13.394  0.00  0.00    +0.000 S 
ENDBRANCH   1  13
BRANCH   6  14
ATOM     14  C   UNL     1      46.889   4.362  14.828  0.00  0.00    +0.000 C 
ATOM     15  C   UNL     1      47.230   4.255  15.981  0.00  0.00    +0.000 C 
BRANCH  15  16
ATOM     16  C   UNL     1      47.618   4.167  17.398  0.00  0.00    +0.000 C 
BRANCH  16  17
ATOM     17  C   UNL     1      49.110   4.020  17.581  0.00  0.00    +0.000 A 
ATOM     18  C   UNL     1      49.910   5.134  17.871  0.00  0.00    +0.000 A 
ATOM     19  C   UNL     1      51.292   4.994  17.998  0.00  0.00    +0.000 A 
ATOM     20  C   UNL     1      51.890   3.746  17.819  0.00  0.00    +0.000 A 
ATOM     21  C   UNL     1      51.116   2.613  17.530  0.00  0.00    +0.000 A 
ATOM     22  C   UNL     1      49.724   2.768  17.414  0.00  0.00    +0.000 A 
BRANCH  21  23
ATOM     23  C   UNL     1      51.798   1.299  17.235  0.00  0.00    +0.000 C 
BRANCH  23  24
ATOM     24  N   UNL     1      51.492   0.251  18.205  0.00  0.00    +0.000 NA
ATOM     25  H   UNL     1      52.122  -0.534  18.047  0.00  0.00    +0.000 HD
ATOM     26  H   UNL     1      50.551  -0.096  18.028  0.00  0.00    +0.000 HD
ENDBRANCH  23  24
ENDBRANCH  21  23
ENDBRANCH  16  17
ENDBRANCH  15  16
ENDBRANCH   6  14
TORSDOF 7
ENDMDL
MODEL 5
REMARK VINA RESULT:    -5.656      3.980      8.559
REMARK INTER + INTRA:          -8.428
REMARK INTER:                  -7.810
REMARK INTRA:                  -0.618
REMARK UNBOUND:                -0.623
REMARK  Name = 
REMARK  8 active torsions:
REMARK  status: ('A' for Active; 'I' for Inactive)
REMARK    1  A    between atoms: C_1  and  S_2
REMARK    2  A    between atoms: S_2  and  C_3
REMARK    3  A    between atoms: C_5  and  C_6
REMARK    4  A    between atoms: C_11  and  C_12
REMARK    5  A    between atoms: C_13  and  C_14
REMARK    6  A    between atoms: C_14  and  C_15
REMARK    7  A    between atoms: C_19  and  C_20
REMARK    8  A    between atoms: C_20  and  N_21
REMARK                            x       y       z     vdW  Elec       q    Type
REMARK                         _______ _______ _______ _____ _____    ______ ____
ROOT
ATOM      1  C   UNL     1      46.268   6.251  12.101  0.00  0.00    +0.000 A 
ATOM      2  N   UNL     1      45.382   5.723  11.211  0.00  0.00    +0.000 NA
ATOM      3  C   UNL     1      44.977   4.446  11.421  0.00  0.00    +0.000 A 
ATOM      4  C   UNL     1      45.421   3.667  12.479  0.00  0.00    +0.000 A 
ATOM      5  C   UNL     1      46.358   4.212  13.356  0.00  0.00    +0.000 A 
ATOM      6  C   UNL     1      46.798   5.526  13.177  0.00  0.00    +0.000 A 
ENDROOT
BRANCH   3   7
ATOM      7  C   UNL     1      43.993   3.885  10.438  0.00  0.00    +0.000 C 
ATOM      8  N   UNL     1      43.977   4.446   9.187  0.00  0.00    +0.000 N 
ATOM      9  O   UNL     1      43.241   2.966  10.728  0.00  0.00    +0.000 OA
ATOM     10  H   UNL     1      44.629   5.177   8.934  0.00  0.00    +0.000 HD
ATOM     11  H   UNL     1      43.350   4.067   8.492  0.00  0.00    +0.000 HD
ENDBRANCH   3   7
BRANCH   1  13
ATOM     12  C   UNL     1      45.476   8.749  12.882  0.00  0.00    +0.000 C 
ATOM     13  S   UNL     1      46.699   7.963  11.802  0.00  0.00    +0.000 S 
ENDBRANCH   1  13
BRANCH   6  14
ATOM     14  C   UNL     1      47.731   6.077  14.118  0.00  0.00    +0.000 C 
ATOM     15  C   UNL     1      48.534   6.529  14.896  0.00  0.00    +0.000 C 
BRANCH  15  16
ATOM     16  C   UNL     1      49.535   7.035  15.850  0.00  0.00    +0.000 C 
BRANCH  16  17
ATOM     17  C   UNL     1      49.538   6.263  17.149  0.00  0.00    +0.000 A 
ATOM     18  C   UNL     1      50.302   6.697  18.239  0.00  0.00    +0.000 A 
ATOM     19  C   UNL     1      50.330   5.955  19.420  0.00  0.00    +0.000 A 
ATOM     20  C   UNL     1      49.610   4.763  19.516  0.00  0.00    +0.000 A 
ATOM     21  C   UNL     1      48.835   4.304  18.442  0.00  0.00    +0.000 A 
ATOM     22  C   UNL     1      48.809   5.067  17.262  0.00  0.00    +0.000 A 
BRANCH  21  23
ATOM     23  C   UNL     1      48.153   2.960  18.536  0.00  0.00    +0.000 C 
BRANCH  23  24
ATOM     24  N   UNL     1      46.887   2.894  17.812  0.00  0.00    +0.000 NA
ATOM     25  H   UNL     1      47.062   2.523  16.880  0.00  0.00    +0.000 HD
ATOM     26  H   UNL     1      46.533   3.841  17.682  0.00  0.00    +0.000 HD
ENDBRANCH  23  24
ENDBRANCH  21  23
ENDBRANCH  16  17
ENDBRANCH  15  16
ENDBRANCH   6  14
TORSDOF 7
ENDMDL
MODEL 6
REMARK VINA RESULT:    -5.584      4.679      8.580
REMARK INTER + INTRA:          -8.329
REMARK INTER:                  -7.683
REMARK INTRA:                  -0.646
REMARK UNBOUND:                -0.623
REMARK  Name = 
REMARK  8 active torsions:
REMARK  status: ('A' for Active; 'I' for Inactive)
REMARK    1  A    between atoms: C_1  and  S_2
REMARK    2  A    between atoms: S_2  and  C_3
REMARK    3  A    between atoms: C_5  and  C_6
REMARK    4  A    between atoms: C_11  and  C_12
REMARK    5  A    between atoms: C_13  and  C_14
REMARK    6  A    between atoms: C_14  and  C_15
REMARK    7  A    between atoms: C_19  and  C_20
REMARK    8  A    between atoms: C_20  and  N_21
REMARK                            x       y       z     vdW  Elec       q    Type
REMARK                         _______ _______ _______ _____ _____    ______ ____
ROOT
ATOM      1  C   UNL     1      46.107   7.442  12.591  0.00  0.00    +0.000 A 
ATOM      2  N   UNL     1      44.958   7.179  11.910  0.00  0.00    +0.000 NA
ATOM      3  C   UNL     1      44.490   5.906  11.950  0.00  0.00    +0.000 A 
ATOM      4  C   UNL     1      45.122   4.880  12.636  0.00  0.00    +0.000 A 
ATOM      5  C   UNL     1      46.319   5.162  13.294  0.00  0.00    +0.000 A 
ATOM      6  C   UNL     1      46.832   6.461  13.281  0.00  0.00    +0.000 A 
ENDROOT
BRANCH   3   7
ATOM      7  C   UNL     1      43.218   5.636  11.203  0.00  0.00    +0.000 C 
ATOM      8  N   UNL     1      42.071   6.193  11.709  0.00  0.00    +0.000 N 
ATOM      9  O   UNL     1      43.195   4.958  10.187  0.00  0.00    +0.000 OA
ATOM     10  H   UNL     1      42.098   6.791  12.526  0.00  0.00    +0.000 HD
ATOM     11  H   UNL     1      41.204   6.059  11.210  0.00  0.00    +0.000 HD
ENDBRANCH   3   7
BRANCH   1  13
ATOM     12  C   UNL     1      45.049   9.908  12.063  0.00  0.00    +0.000 C 
ATOM     13  S   UNL     1      46.622   9.157  12.555  0.00  0.00    +0.000 S 
ENDBRANCH   1  13
BRANCH   6  14
ATOM     14  C   UNL     1      48.043   6.733  14.002  0.00  0.00    +0.000 C 
ATOM     15  C   UNL     1      49.057   6.940  14.622  0.00  0.00    +0.000 C 
BRANCH  15  16
ATOM     16  C   UNL     1      50.268   7.186  15.422  0.00  0.00    +0.000 C 
BRANCH  16  17
ATOM     17  C   UNL     1      50.280   6.397  16.710  0.00  0.00    +0.000 A 
ATOM     18  C   UNL     1      51.426   5.698  17.112  0.00  0.00    +0.000 A 
ATOM     19  C   UNL     1      51.414   4.940  18.283  0.00  0.00    +0.000 A 
ATOM     20  C   UNL     1      50.252   4.859  19.054  0.00  0.00    +0.000 A 
ATOM     21  C   UNL     1      49.091   5.549  18.678  0.00  0.00    +0.000 A 
ATOM     22  C   UNL     1      49.122   6.316  17.501  0.00  0.00    +0.000 A 
BRANCH  21  23
ATOM     23  C   UNL     1      47.820   5.358  19.471  0.00  0.00    +0.000 C 
BRANCH  23  24
ATOM     24  N   UNL     1      46.617   5.314  18.645  0.00  0.00    +0.000 NA
ATOM     25  H   UNL     1      46.572   4.409  18.181  0.00  0.00    +0.000 HD
ATOM     26  H   UNL     1      46.700   6.012  17.907  0.00  0.00    +0.000 HD
ENDBRANCH  23  24
ENDBRANCH  21  23
ENDBRANCH  16  17
ENDBRANCH  15  16
ENDBRANCH   6  14
TORSDOF 7
ENDMDL
MODEL 7
REMARK VINA RESULT:    -5.395      3.753      7.760
REMARK INTER + INTRA:          -8.069
REMARK INTER:                  -7.465
REMARK INTRA:                  -0.604
REMARK UNBOUND:                -0.623
REMARK  Name = 
REMARK  8 active torsions:
REMARK  status: ('A' for Active; 'I' for Inactive)
REMARK    1  A    between atoms: C_1  and  S_2
REMARK    2  A    between atoms: S_2  and  C_3
REMARK    3  A    between atoms: C_5  and  C_6
REMARK    4  A    between atoms: C_11  and  C_12
REMARK    5  A    between atoms: C_13  and  C_14
REMARK    6  A    between atoms: C_14  and  C_15
REMARK    7  A    between atoms: C_19  and  C_20
REMARK    8  A    between atoms: C_20  and  N_21
REMARK                            x       y       z     vdW  Elec       q    Type
REMARK                         _______ _______ _______ _____ _____    ______ ____
ROOT
ATOM      1  C   UNL     1      45.022   4.408  11.357  0.00  0.00    +0.000 A 
ATOM      2  N   UNL     1      44.971   3.203  10.726  0.00  0.00    +0.000 NA
ATOM      3  C   UNL     1      45.357   3.165   9.427  0.00  0.00    +0.000 A 
ATOM      4  C   UNL     1      45.786   4.281   8.724  0.00  0.00    +0.000 A 
ATOM      5  C   UNL     1      45.793   5.513   9.376  0.00  0.00    +0.000 A 
ATOM      6  C   UNL     1      45.407   5.594  10.717  0.00  0.00    +0.000 A 
ENDROOT
BRANCH   3   7
ATOM      7  C   UNL     1      45.305   1.827   8.751  0.00  0.00    +0.000 C 
ATOM      8  N   UNL     1      46.403   1.461   8.014  0.00  0.00    +0.000 N 
ATOM      9  O   UNL     1      44.337   1.088   8.851  0.00  0.00    +0.000 OA
ATOM     10  H   UNL     1      47.221   2.055   7.967  0.00  0.00    +0.000 HD
ATOM     11  H   UNL     1      46.413   0.552   7.575  0.00  0.00    +0.000 HD
ENDBRANCH   3   7
BRANCH   1  13
ATOM     12  C   UNL     1      42.882   5.008  12.951  0.00  0.00    +0.000 C 
ATOM     13  S   UNL     1      44.570   4.367  13.090  0.00  0.00    +0.000 S 
ENDBRANCH   1  13
BRANCH   6  14
ATOM     14  C   UNL     1      45.464   6.867  11.376  0.00  0.00    +0.000 C 
ATOM     15  C   UNL     1      45.489   7.943  11.921  0.00  0.00    +0.000 C 
BRANCH  15  16
ATOM     16  C   UNL     1      45.507   9.278  12.541  0.00  0.00    +0.000 C 
BRANCH  16  17
ATOM     17  C   UNL     1      46.389  10.251  11.795  0.00  0.00    +0.000 A 
ATOM     18  C   UNL     1      45.831  11.299  11.051  0.00  0.00    +0.000 A 
ATOM     19  C   UNL     1      46.653  12.168  10.332  0.00  0.00    +0.000 A 
ATOM     20  C   UNL     1      48.037  11.987  10.335  0.00  0.00    +0.000 A 
ATOM     21  C   UNL     1      48.624  10.948  11.072  0.00  0.00    +0.000 A 
ATOM     22  C   UNL     1      47.784  10.087  11.798  0.00  0.00    +0.000 A 
BRANCH  21  23
ATOM     23  C   UNL     1      50.112  10.712  10.971  0.00  0.00    +0.000 C 
BRANCH  23  24
ATOM     24  N   UNL     1      50.600   9.666  11.866  0.00  0.00    +0.000 NA
ATOM     25  H   UNL     1      50.284   9.873  12.812  0.00  0.00    +0.000 HD
ATOM     26  H   UNL     1      51.618   9.701  11.888  0.00  0.00    +0.000 HD
ENDBRANCH  23  24
ENDBRANCH  21  23
ENDBRANCH  16  17
ENDBRANCH  15  16
ENDBRANCH   6  14
TORSDOF 7
ENDMDL
MODEL 8
REMARK VINA RESULT:    -5.390      3.892      9.216
REMARK INTER + INTRA:          -8.061
REMARK INTER:                  -7.413
REMARK INTRA:                  -0.648
REMARK UNBOUND:                -0.623
REMARK  Name = 
REMARK  8 active torsions:
REMARK  status: ('A' for Active; 'I' for Inactive)
REMARK    1  A    between atoms: C_1  and  S_2
REMARK    2  A    between atoms: S_2  and  C_3
REMARK    3  A    between atoms: C_5  and  C_6
REMARK    4  A    between atoms: C_11  and  C_12
REMARK    5  A    between atoms: C_13  and  C_14
REMARK    6  A    between atoms: C_14  and  C_15
REMARK    7  A    between atoms: C_19  and  C_20
REMARK    8  A    between atoms: C_20  and  N_21
REMARK                            x       y       z     vdW  Elec       q    Type
REMARK                         _______ _______ _______ _____ _____    ______ ____
ROOT
ATOM      1  C   UNL     1      45.901   6.237  12.590  0.00  0.00    +0.000 A 
ATOM      2  N   UNL     1      45.024   5.723  11.685  0.00  0.00    +0.000 NA
ATOM      3  C   UNL     1      44.877   4.375  11.658  0.00  0.00    +0.000 A 
ATOM      4  C   UNL     1      45.572   3.513  12.492  0.00  0.00    +0.000 A 
ATOM      5  C   UNL     1      46.496   4.056  13.385  0.00  0.00    +0.000 A 
ATOM      6  C   UNL     1      46.674   5.440  13.447  0.00  0.00    +0.000 A 
ENDROOT
BRANCH   3   7
ATOM      7  C   UNL     1      43.898   3.828  10.662  0.00  0.00    +0.000 C 
ATOM      8  N   UNL     1      43.866   4.428   9.429  0.00  0.00    +0.000 N 
ATOM      9  O   UNL     1      43.164   2.887  10.925  0.00  0.00    +0.000 OA
ATOM     10  H   UNL     1      44.504   5.178   9.196  0.00  0.00    +0.000 HD
ATOM     11  H   UNL     1      43.242   4.060   8.725  0.00  0.00    +0.000 HD
ENDBRANCH   3   7
BRANCH   1  13
ATOM     12  C   UNL     1      44.671   8.384  11.428  0.00  0.00    +0.000 C 
ATOM     13  S   UNL     1      45.987   8.025  12.619  0.00  0.00    +0.000 S 
ENDBRANCH   1  13
BRANCH   6  14
ATOM     14  C   UNL     1      47.599   5.975  14.404  0.00  0.00    +0.000 C 
ATOM     15  C   UNL     1      48.395   6.408  15.201  0.00  0.00    +0.000 C 
BRANCH  15  16
ATOM     16  C   UNL     1      49.376   6.888  16.188  0.00  0.00    +0.000 C 
BRANCH  16  17
ATOM     17  C   UNL     1      48.722   7.558  17.374  0.00  0.00    +0.000 A 
ATOM     18  C   UNL     1      48.284   6.804  18.471  0.00  0.00    +0.000 A 
ATOM     19  C   UNL     1      47.646   7.428  19.543  0.00  0.00    +0.000 A 
ATOM     20  C   UNL     1      47.422   8.805  19.522  0.00  0.00    +0.000 A 
ATOM     21  C   UNL     1      47.851   9.585  18.438  0.00  0.00    +0.000 A 
ATOM     22  C   UNL     1      48.501   8.945  17.370  0.00  0.00    +0.000 A 
BRANCH  21  23
ATOM     23  C   UNL     1      47.501  11.054  18.393  0.00  0.00    +0.000 C 
BRANCH  23  24
ATOM     24  N   UNL     1      47.888  11.709  17.147  0.00  0.00    +0.000 NA
ATOM     25  H   UNL     1      48.905  11.716  17.084  0.00  0.00    +0.000 HD
ATOM     26  H   UNL     1      47.596  12.684  17.183  0.00  0.00    +0.000 HD
ENDBRANCH  23  24
ENDBRANCH  21  23
ENDBRANCH  16  17
ENDBRANCH  15  16
ENDBRANCH   6  14
TORSDOF 7
ENDMDL
MODEL 9
REMARK VINA RESULT:    -5.292      4.670      6.437
REMARK INTER + INTRA:          -7.925
REMARK INTER:                  -7.313
REMARK INTRA:                  -0.613
REMARK UNBOUND:                -0.623
REMARK  Name = 
REMARK  8 active torsions:
REMARK  status: ('A' for Active; 'I' for Inactive)
REMARK    1  A    between atoms: C_1  and  S_2
REMARK    2  A    between atoms: S_2  and  C_3
REMARK    3  A    between atoms: C_5  and  C_6
REMARK    4  A    between atoms: C_11  and  C_12
REMARK    5  A    between atoms: C_13  and  C_14
REMARK    6  A    between atoms: C_14  and  C_15
REMARK    7  A    between atoms: C_19  and  C_20
REMARK    8  A    between atoms: C_20  and  N_21
REMARK                            x       y       z     vdW  Elec       q    Type
REMARK                         _______ _______ _______ _____ _____    ______ ____
ROOT
ATOM      1  C   UNL     1      47.183   6.212  13.404  0.00  0.00    +0.000 A 
ATOM      2  N   UNL     1      46.049   5.514  13.686  0.00  0.00    +0.000 NA
ATOM      3  C   UNL     1      45.182   5.300  12.666  0.00  0.00    +0.000 A 
ATOM      4  C   UNL     1      45.392   5.759  11.374  0.00  0.00    +0.000 A 
ATOM      5  C   UNL     1      46.541   6.507  11.115  0.00  0.00    +0.000 A 
ATOM      6  C   UNL     1      47.462   6.745  12.138  0.00  0.00    +0.000 A 
ENDROOT
BRANCH   3   7
ATOM      7  C   UNL     1      43.943   4.519  12.991  0.00  0.00    +0.000 C 
ATOM      8  N   UNL     1      42.806   5.240  13.252  0.00  0.00    +0.000 N 
ATOM      9  O   UNL     1      43.936   3.298  13.019  0.00  0.00    +0.000 OA
ATOM     10  H   UNL     1      42.801   6.250  13.186  0.00  0.00    +0.000 HD
ATOM     11  H   UNL     1      41.948   4.743  13.441  0.00  0.00    +0.000 HD
ENDBRANCH   3   7
BRANCH   1  13
ATOM     12  C   UNL     1      47.743   4.999  15.791  0.00  0.00    +0.000 C 
ATOM     13  S   UNL     1      48.315   6.390  14.781  0.00  0.00    +0.000 S 
ENDBRANCH   1  13
BRANCH   6  14
ATOM     14  C   UNL     1      48.655   7.481  11.835  0.00  0.00    +0.000 C 
ATOM     15  C   UNL     1      49.661   8.107  11.604  0.00  0.00    +0.000 C 
BRANCH  15  16
ATOM     16  C   UNL     1      50.867   8.911  11.346  0.00  0.00    +0.000 C 
BRANCH  16  17
ATOM     17  C   UNL     1      52.045   8.066  10.922  0.00  0.00    +0.000 A 
ATOM     18  C   UNL     1      53.237   8.077  11.657  0.00  0.00    +0.000 A 
ATOM     19  C   UNL     1      54.333   7.324  11.234  0.00  0.00    +0.000 A 
ATOM     20  C   UNL     1      54.254   6.568  10.063  0.00  0.00    +0.000 A 
ATOM     21  C   UNL     1      53.073   6.536   9.307  0.00  0.00    +0.000 A 
ATOM     22  C   UNL     1      51.975   7.292   9.751  0.00  0.00    +0.000 A 
BRANCH  21  23
ATOM     23  C   UNL     1      53.051   5.796   7.991  0.00  0.00    +0.000 C 
BRANCH  23  24
ATOM     24  N   UNL     1      52.551   6.598   6.878  0.00  0.00    +0.000 NA
ATOM     25  H   UNL     1      52.378   5.983   6.084  0.00  0.00    +0.000 HD
ATOM     26  H   UNL     1      53.282   7.246   6.585  0.00  0.00    +0.000 HD
ENDBRANCH  23  24
ENDBRANCH  21  23
ENDBRANCH  16  17
ENDBRANCH  15  16
ENDBRANCH   6  14
TORSDOF 7
ENDMDL
