MODEL 1
REMARK VINA RESULT:    -8.170      0.000      0.000
REMARK INTER + INTRA:         -12.447
REMARK INTER:                 -11.513
REMARK INTRA:                  -0.933
REMARK UNBOUND:                -0.933
REMARK  Name = 
REMARK  9 active torsions:
REMARK  status: ('A' for Active; 'I' for Inactive)
REMARK    1  A    between atoms: C_1  and  C_2
REMARK    2  A    between atoms: C_2  and  C_3
REMARK    3  A    between atoms: C_2  and  C_14
REMARK    4  A    between atoms: C_3  and  O_4
REMARK    5  A    between atoms: O_4  and  C_5
REMARK    6  A    between atoms: C_8  and  C_9
REMARK    7  A    between atoms: C_18  and  O_19
REMARK    8  A    between atoms: O_19  and  C_20
REMARK    9  A    between atoms: N_22  and  C_23
REMARK                            x       y       z     vdW  Elec       q    Type
REMARK                         _______ _______ _______ _____ _____    ______ ____
ROOT
ATOM      1  C   UNL     1      42.883   4.950  12.949  0.00  0.00    +0.000 C 
ATOM      2  C   UNL     1      43.677   5.766  11.919  0.00  0.00    +0.000 C 
ENDROOT
BRANCH   2   3
ATOM      3  C   UNL     1      45.162   5.851  12.284  0.00  0.00    +0.000 A 
ATOM      4  C   UNL     1      46.036   6.797  11.730  0.00  0.00    +0.000 A 
ATOM      5  C   UNL     1      47.361   6.902  12.165  0.00  0.00    +0.000 A 
ATOM      6  C   UNL     1      47.850   6.046  13.144  0.00  0.00    +0.000 A 
ATOM      7  C   UNL     1      47.010   5.077  13.686  0.00  0.00    +0.000 A 
ATOM      8  C   UNL     1      45.677   4.995  13.272  0.00  0.00    +0.000 A 
BRANCH   7   9
ATOM      9  O   UNL     1      47.379   4.187  14.660  0.00  0.00    +0.000 OA
BRANCH   9  10
ATOM     10  C   UNL     1      47.385   4.627  16.038  0.00  0.00    +0.000 C 
ATOM     11  C   UNL     1      48.718   5.132  16.637  0.00  0.00    +0.000 C 
ATOM     12  N   UNL     1      48.580   4.196  17.770  0.00  0.00    +0.000 NA
ATOM     13  C   UNL     1      48.070   4.883  18.954  0.00  0.00    +0.000 C 
ATOM     14  C   UNL     1      47.491   3.487  17.073  0.00  0.00    +0.000 C 
ENDBRANCH   9  10
ENDBRANCH   7   9
ENDBRANCH   2   3
BRANCH   2  15
ATOM     15  C   UNL     1      43.384   5.213  10.506  0.00  0.00    +0.000 C 
BRANCH  15  16
ATOM     16  O   UNL     1      43.674   3.811  10.504  0.00  0.00    +0.000 OA
BRANCH  16  17
ATOM     17  C   UNL     1      44.589   3.350   9.609  0.00  0.00    +0.000 A 
ATOM     18  C   UNL     1      44.941   2.022   9.394  0.00  0.00    +0.000 A 
ATOM     19  C   UNL     1      45.856   1.711   8.387  0.00  0.00    +0.000 A 
ATOM     20  C   UNL     1      46.391   2.749   7.635  0.00  0.00    +0.000 A 
ATOM     21  N   UNL     1      46.099   4.064   7.838  0.00  0.00    +0.000 NA
ATOM     22  C   UNL     1      45.207   4.321   8.823  0.00  0.00    +0.000 A 
BRANCH  20  23
ATOM     23  C   UNL     1      47.320   2.443   6.503  0.00  0.00    +0.000 C 
ATOM     24  N   UNL     1      47.140   3.200   5.378  0.00  0.00    +0.000 N 
ATOM     25  O   UNL     1      48.174   1.569   6.565  0.00  0.00    +0.000 OA
ATOM     26  H   UNL     1      46.394   3.890   5.356  0.00  0.00    +0.000 HD
ATOM     27  H   UNL     1      47.695   3.016   4.555  0.00  0.00    +0.000 HD
ENDBRANCH  20  23
ENDBRANCH  16  17
ENDBRANCH  15  16
ENDBRANCH   2  15
TORSDOF 7
ENDMDL
MODEL 2
REMARK VINA RESULT:    -6.981      1.540      1.767
REMARK INTER + INTRA:         -10.772
REMARK INTER:                 -10.301
REMARK INTRA:                  -0.470
REMARK UNBOUND:                -0.933
REMARK  Name = 
REMARK  9 active torsions:
REMARK  status: ('A' for Active; 'I' for Inactive)
REMARK    1  A    between atoms: C_1  and  C_2
REMARK    2  A    between atoms: C_2  and  C_3
REMARK    3  A    between atoms: C_2  and  C_14
REMARK    4  A    between atoms: C_3  and  O_4
REMARK    5  A    between atoms: O_4  and  C_5
REMARK    6  A    between atoms: C_8  and  C_9
REMARK    7  A    between atoms: C_18  and  O_19
REMARK    8  A    between atoms: O_19  and  C_20
REMARK    9  A    between atoms: N_22  and  C_23
REMARK                            x       y       z     vdW  Elec       q    Type
REMARK                         _______ _______ _______ _____ _____    ______ ____
ROOT
ATOM      1  C   UNL     1      45.071   3.380  12.513  0.00  0.00    +0.000 C 
ATOM      2  C   UNL     1      44.575   4.809  12.250  0.00  0.00    +0.000 C 
ENDROOT
BRANCH   2   3
ATOM      3  C   UNL     1      45.679   5.845  12.483  0.00  0.00    +0.000 A 
ATOM      4  C   UNL     1      45.661   7.128  11.916  0.00  0.00    +0.000 A 
ATOM      5  C   UNL     1      46.639   8.075  12.235  0.00  0.00    +0.000 A 
ATOM      6  C   UNL     1      47.673   7.753  13.105  0.00  0.00    +0.000 A 
ATOM      7  C   UNL     1      47.730   6.476  13.656  0.00  0.00    +0.000 A 
ATOM      8  C   UNL     1      46.734   5.541  13.360  0.00  0.00    +0.000 A 
BRANCH   7   9
ATOM      9  O   UNL     1      48.695   6.050  14.530  0.00  0.00    +0.000 OA
BRANCH   9  10
ATOM     10  C   UNL     1      48.744   6.636  15.851  0.00  0.00    +0.000 C 
ATOM     11  C   UNL     1      49.872   7.649  16.159  0.00  0.00    +0.000 C 
ATOM     12  N   UNL     1      50.258   6.877  17.356  0.00  0.00    +0.000 NA
ATOM     13  C   UNL     1      49.713   7.488  18.567  0.00  0.00    +0.000 C 
ATOM     14  C   UNL     1      49.415   5.749  16.921  0.00  0.00    +0.000 C 
ENDBRANCH   9  10
ENDBRANCH   7   9
ENDBRANCH   2   3
BRANCH   2  15
ATOM     15  C   UNL     1      43.915   4.864  10.854  0.00  0.00    +0.000 C 
BRANCH  15  16
ATOM     16  O   UNL     1      43.865   3.533  10.329  0.00  0.00    +0.000 OA
BRANCH  16  17
ATOM     17  C   UNL     1      44.770   3.190   9.373  0.00  0.00    +0.000 A 
ATOM     18  C   UNL     1      45.255   1.913   9.111  0.00  0.00    +0.000 A 
ATOM     19  C   UNL     1      46.137   1.722   8.046  0.00  0.00    +0.000 A 
ATOM     20  C   UNL     1      46.506   2.824   7.285  0.00  0.00    +0.000 A 
ATOM     21  N   UNL     1      46.080   4.094   7.532  0.00  0.00    +0.000 NA
ATOM     22  C   UNL     1      45.226   4.235   8.572  0.00  0.00    +0.000 A 
BRANCH  20  23
ATOM     23  C   UNL     1      47.392   2.641   6.095  0.00  0.00    +0.000 C 
ATOM     24  N   UNL     1      48.629   2.120   6.360  0.00  0.00    +0.000 N 
ATOM     25  O   UNL     1      47.051   2.947   4.960  0.00  0.00    +0.000 OA
ATOM     26  H   UNL     1      48.887   1.914   7.322  0.00  0.00    +0.000 HD
ATOM     27  H   UNL     1      49.302   2.015   5.615  0.00  0.00    +0.000 HD
ENDBRANCH  20  23
ENDBRANCH  16  17
ENDBRANCH  15  16
ENDBRANCH   2  15
TORSDOF 7
ENDMDL
MODEL 3
REMARK VINA RESULT:    -6.752      1.692      7.890
REMARK INTER + INTRA:         -10.448
REMARK INTER:                  -9.629
REMARK INTRA:                  -0.819
REMARK UNBOUND:                -0.933
REMARK  Name = 
REMARK  9 active torsions:
REMARK  status: ('A' for Active; 'I' for Inactive)
REMARK    1  A    between atoms: C_1  and  C_2
REMARK    2  A    between atoms: C_2  and  C_3
REMARK    3  A    between atoms: C_2  and  C_14
REMARK    4  A    between atoms: C_3  and  O_4
REMARK    5  A    between atoms: O_4  and  C_5
REMARK    6  A    between atoms: C_8  and  C_9
REMARK    7  A    between atoms: C_18  and  O_19
REMARK    8  A    between atoms: O_19  and  C_20
REMARK    9  A    between atoms: N_22  and  C_23
REMARK                            x       y       z     vdW  Elec       q    Type
REMARK                         _______ _______ _______ _____ _____    ______ ____
ROOT
ATOM      1  C   UNL     1      47.360   6.773  11.076  0.00  0.00    +0.000 C 
ATOM      2  C   UNL     1      46.105   7.075  11.907  0.00  0.00    +0.000 C 
ENDROOT
BRANCH   2   3
ATOM      3  C   UNL     1      45.086   5.934  11.834  0.00  0.00    +0.000 A 
ATOM      4  C   UNL     1      44.101   5.718  12.809  0.00  0.00    +0.000 A 
ATOM      5  C   UNL     1      43.131   4.724  12.652  0.00  0.00    +0.000 A 
ATOM      6  C   UNL     1      43.139   3.904  11.530  0.00  0.00    +0.000 A 
ATOM      7  C   UNL     1      44.125   4.078  10.563  0.00  0.00    +0.000 A 
ATOM      8  C   UNL     1      45.076   5.093  10.707  0.00  0.00    +0.000 A 
BRANCH   7   9
ATOM      9  O   UNL     1      44.226   3.337   9.415  0.00  0.00    +0.000 OA
BRANCH   9  10
ATOM     10  C   UNL     1      45.531   3.153   8.819  0.00  0.00    +0.000 C 
ATOM     11  C   UNL     1      45.699   3.475   7.316  0.00  0.00    +0.000 C 
ATOM     12  N   UNL     1      46.283   2.140   7.080  0.00  0.00    +0.000 NA
ATOM     13  C   UNL     1      47.740   2.215   7.008  0.00  0.00    +0.000 C 
ATOM     14  C   UNL     1      45.852   1.697   8.418  0.00  0.00    +0.000 C 
ENDBRANCH   9  10
ENDBRANCH   7   9
ENDBRANCH   2   3
BRANCH   2  15
ATOM     15  C   UNL     1      46.532   7.476  13.337  0.00  0.00    +0.000 C 
BRANCH  15  16
ATOM     16  O   UNL     1      47.786   6.846  13.623  0.00  0.00    +0.000 OA
BRANCH  16  17
ATOM     17  C   UNL     1      47.846   5.998  14.685  0.00  0.00    +0.000 A 
ATOM     18  C   UNL     1      48.583   6.179  15.850  0.00  0.00    +0.000 A 
ATOM     19  C   UNL     1      48.484   5.238  16.875  0.00  0.00    +0.000 A 
ATOM     20  C   UNL     1      47.652   4.142  16.691  0.00  0.00    +0.000 A 
ATOM     21  N   UNL     1      46.941   3.911  15.551  0.00  0.00    +0.000 NA
ATOM     22  C   UNL     1      47.065   4.848  14.583  0.00  0.00    +0.000 A 
BRANCH  20  23
ATOM     23  C   UNL     1      47.469   3.154  17.798  0.00  0.00    +0.000 C 
ATOM     24  N   UNL     1      48.403   3.213  18.796  0.00  0.00    +0.000 N 
ATOM     25  O   UNL     1      46.561   2.334  17.811  0.00  0.00    +0.000 OA
ATOM     26  H   UNL     1      49.163   3.884  18.727  0.00  0.00    +0.000 HD
ATOM     27  H   UNL     1      48.376   2.544  19.552  0.00  0.00    +0.000 HD
ENDBRANCH  20  23
ENDBRANCH  16  17
ENDBRANCH  15  16
ENDBRANCH   2  15
TORSDOF 7
ENDMDL
MODEL 4
REMARK VINA RESULT:    -6.514      2.249      2.671
REMARK INTER + INTRA:         -10.113
REMARK INTER:                  -9.413
REMARK INTRA:                  -0.700
REMARK UNBOUND:                -0.933
REMARK  Name = 
REMARK  9 active torsions:
REMARK  status: ('A' for Active; 'I' for Inactive)
REMARK    1  A    between atoms: C_1  and  C_2
REMARK    2  A    between atoms: C_2  and  C_3
REMARK    3  A    between atoms: C_2  and  C_14
REMARK    4  A    between atoms: C_3  and  O_4
REMARK    5  A    between atoms: O_4  and  C_5
REMARK    6  A    between atoms: C_8  and  C_9
REMARK    7  A    between atoms: C_18  and  O_19
REMARK    8  A    between atoms: O_19  and  C_20
REMARK    9  A    between atoms: N_22  and  C_23
REMARK                            x       y       z     vdW  Elec       q    Type
REMARK                         _______ _______ _______ _____ _____    ______ ____
ROOT
ATOM      1  C   UNL     1      43.547   3.850  13.872  0.00  0.00    +0.000 C 
ATOM      2  C   UNL     1      43.478   4.349  12.422  0.00  0.00    +0.000 C 
ENDROOT
BRANCH   2   3
ATOM      3  C   UNL     1      44.457   5.500  12.170  0.00  0.00    +0.000 A 
ATOM      4  C   UNL     1      44.095   6.690  11.522  0.00  0.00    +0.000 A 
ATOM      5  C   UNL     1      44.995   7.753  11.401  0.00  0.00    +0.000 A 
ATOM      6  C   UNL     1      46.287   7.641  11.900  0.00  0.00    +0.000 A 
ATOM      7  C   UNL     1      46.680   6.458  12.520  0.00  0.00    +0.000 A 
ATOM      8  C   UNL     1      45.768   5.408  12.668  0.00  0.00    +0.000 A 
BRANCH   7   9
ATOM      9  O   UNL     1      47.922   6.238  13.057  0.00  0.00    +0.000 OA
BRANCH   9  10
ATOM     10  C   UNL     1      48.674   7.368  13.554  0.00  0.00    +0.000 C 
ATOM     11  C   UNL     1      49.689   7.124  14.695  0.00  0.00    +0.000 C 
ATOM     12  N   UNL     1      49.072   8.200  15.494  0.00  0.00    +0.000 NA
ATOM     13  C   UNL     1      49.849   9.433  15.396  0.00  0.00    +0.000 C 
ATOM     14  C   UNL     1      47.918   8.241  14.577  0.00  0.00    +0.000 C 
ENDBRANCH   9  10
ENDBRANCH   7   9
ENDBRANCH   2   3
BRANCH   2  15
ATOM     15  C   UNL     1      43.629   3.144  11.467  0.00  0.00    +0.000 C 
BRANCH  15  16
ATOM     16  O   UNL     1      43.481   3.616  10.124  0.00  0.00    +0.000 OA
BRANCH  16  17
ATOM     17  C   UNL     1      44.473   3.337   9.236  0.00  0.00    +0.000 A 
ATOM     18  C   UNL     1      45.101   4.239   8.384  0.00  0.00    +0.000 A 
ATOM     19  C   UNL     1      46.151   3.800   7.576  0.00  0.00    +0.000 A 
ATOM     20  C   UNL     1      46.529   2.466   7.648  0.00  0.00    +0.000 A 
ATOM     21  N   UNL     1      45.916   1.544   8.443  0.00  0.00    +0.000 NA
ATOM     22  C   UNL     1      44.904   2.012   9.210  0.00  0.00    +0.000 A 
BRANCH  20  23
ATOM     23  C   UNL     1      47.695   1.981   6.848  0.00  0.00    +0.000 C 
ATOM     24  N   UNL     1      48.596   2.944   6.482  0.00  0.00    +0.000 N 
ATOM     25  O   UNL     1      47.836   0.809   6.524  0.00  0.00    +0.000 OA
ATOM     26  H   UNL     1      48.422   3.911   6.739  0.00  0.00    +0.000 HD
ATOM     27  H   UNL     1      49.382   2.701   5.897  0.00  0.00    +0.000 HD
ENDBRANCH  20  23
ENDBRANCH  16  17
ENDBRANCH  15  16
ENDBRANCH   2  15
TORSDOF 7
ENDMDL
MODEL 5
REMARK VINA RESULT:    -6.257      1.835      2.410
REMARK INTER + INTRA:          -9.751
REMARK INTER:                  -8.866
REMARK INTRA:                  -0.885
REMARK UNBOUND:                -0.933
REMARK  Name = 
REMARK  9 active torsions:
REMARK  status: ('A' for Active; 'I' for Inactive)
REMARK    1  A    between atoms: C_1  and  C_2
REMARK    2  A    between atoms: C_2  and  C_3
REMARK    3  A    between atoms: C_2  and  C_14
REMARK    4  A    between atoms: C_3  and  O_4
REMARK    5  A    between atoms: O_4  and  C_5
REMARK    6  A    between atoms: C_8  and  C_9
REMARK    7  A    between atoms: C_18  and  O_19
REMARK    8  A    between atoms: O_19  and  C_20
REMARK    9  A    between atoms: N_22  and  C_23
REMARK                            x       y       z     vdW  Elec       q    Type
REMARK                         _______ _______ _______ _____ _____    ______ ____
ROOT
ATOM      1  C   UNL     1      45.031   7.609  11.665  0.00  0.00    +0.000 C 
ATOM      2  C   UNL     1      45.357   6.121  11.476  0.00  0.00    +0.000 C 
ENDROOT
BRANCH   2   3
ATOM      3  C   UNL     1      46.078   5.538  12.695  0.00  0.00    +0.000 A 
ATOM      4  C   UNL     1      45.788   4.273  13.227  0.00  0.00    +0.000 A 
ATOM      5  C   UNL     1      46.539   3.740  14.279  0.00  0.00    +0.000 A 
ATOM      6  C   UNL     1      47.579   4.470  14.842  0.00  0.00    +0.000 A 
ATOM      7  C   UNL     1      47.865   5.741  14.352  0.00  0.00    +0.000 A 
ATOM      8  C   UNL     1      47.133   6.259  13.278  0.00  0.00    +0.000 A 
BRANCH   7   9
ATOM      9  O   UNL     1      48.870   6.546  14.821  0.00  0.00    +0.000 OA
BRANCH   9  10
ATOM     10  C   UNL     1      49.185   6.513  16.232  0.00  0.00    +0.000 C 
ATOM     11  C   UNL     1      49.309   7.859  16.984  0.00  0.00    +0.000 C 
ATOM     12  N   UNL     1      50.639   7.470  17.491  0.00  0.00    +0.000 NA
ATOM     13  C   UNL     1      50.551   6.989  18.867  0.00  0.00    +0.000 C 
ATOM     14  C   UNL     1      50.686   6.338  16.549  0.00  0.00    +0.000 C 
ENDBRANCH   9  10
ENDBRANCH   7   9
ENDBRANCH   2   3
BRANCH   2  15
ATOM     15  C   UNL     1      44.070   5.373  11.061  0.00  0.00    +0.000 C 
BRANCH  15  16
ATOM     16  O   UNL     1      44.118   5.146   9.648  0.00  0.00    +0.000 OA
BRANCH  16  17
ATOM     17  C   UNL     1      44.825   4.074   9.198  0.00  0.00    +0.000 A 
ATOM     18  C   UNL     1      44.677   2.753   9.607  0.00  0.00    +0.000 A 
ATOM     19  C   UNL     1      45.441   1.759   8.996  0.00  0.00    +0.000 A 
ATOM     20  C   UNL     1      46.332   2.127   7.997  0.00  0.00    +0.000 A 
ATOM     21  N   UNL     1      46.531   3.414   7.592  0.00  0.00    +0.000 NA
ATOM     22  C   UNL     1      45.770   4.347   8.211  0.00  0.00    +0.000 A 
BRANCH  20  23
ATOM     23  C   UNL     1      47.113   1.077   7.273  0.00  0.00    +0.000 C 
ATOM     24  N   UNL     1      46.703  -0.210   7.489  0.00  0.00    +0.000 N 
ATOM     25  O   UNL     1      48.065   1.339   6.549  0.00  0.00    +0.000 OA
ATOM     26  H   UNL     1      45.933  -0.387   8.127  0.00  0.00    +0.000 HD
ATOM     27  H   UNL     1      47.214  -0.977   7.075  0.00  0.00    +0.000 HD
ENDBRANCH  20  23
ENDBRANCH  16  17
ENDBRANCH  15  16
ENDBRANCH   2  15
TORSDOF 7
ENDMDL
MODEL 6
REMARK VINA RESULT:    -5.968      2.699      7.803
REMARK INTER + INTRA:          -9.344
REMARK INTER:                  -8.483
REMARK INTRA:                  -0.861
REMARK UNBOUND:                -0.933
REMARK  Name = 
REMARK  9 active torsions:
REMARK  status: ('A' for Active; 'I' for Inactive)
REMARK    1  A    between atoms: C_1  and  C_2
REMARK    2  A    between atoms: C_2  and  C_3
REMARK    3  A    between atoms: C_2  and  C_14
REMARK    4  A    between atoms: C_3  and  O_4
REMARK    5  A    between atoms: O_4  and  C_5
REMARK    6  A    between atoms: C_8  and  C_9
REMARK    7  A    between atoms: C_18  and  O_19
REMARK    8  A    between atoms: O_19  and  C_20
REMARK    9  A    between atoms: N_22  and  C_23
REMARK                            x       y       z     vdW  Elec       q    Type
REMARK                         _______ _______ _______ _____ _____    ______ ____
ROOT
ATOM      1  C   UNL     1      49.161   8.076  12.083  0.00  0.00    +0.000 C 
ATOM      2  C   UNL     1      48.114   8.868  12.879  0.00  0.00    +0.000 C 
ENDROOT
BRANCH   2   3
ATOM      3  C   UNL     1      46.690   8.564  12.403  0.00  0.00    +0.000 A 
ATOM      4  C   UNL     1      45.851   9.527  11.824  0.00  0.00    +0.000 A 
ATOM      5  C   UNL     1      44.595   9.182  11.315  0.00  0.00    +0.000 A 
ATOM      6  C   UNL     1      44.137   7.872  11.398  0.00  0.00    +0.000 A 
ATOM      7  C   UNL     1      44.939   6.905  11.998  0.00  0.00    +0.000 A 
ATOM      8  C   UNL     1      46.207   7.246  12.478  0.00  0.00    +0.000 A 
BRANCH   7   9
ATOM      9  O   UNL     1      44.597   5.585  12.127  0.00  0.00    +0.000 OA
BRANCH   9  10
ATOM     10  C   UNL     1      44.938   4.670  11.061  0.00  0.00    +0.000 C 
ATOM     11  C   UNL     1      43.896   4.430   9.943  0.00  0.00    +0.000 C 
ATOM     12  N   UNL     1      43.991   2.971  10.148  0.00  0.00    +0.000 NA
ATOM     13  C   UNL     1      44.852   2.359   9.139  0.00  0.00    +0.000 C 
ATOM     14  C   UNL     1      44.733   3.179  11.405  0.00  0.00    +0.000 C 
ENDBRANCH   9  10
ENDBRANCH   7   9
ENDBRANCH   2   3
BRANCH   2  15
ATOM     15  C   UNL     1      48.357   8.649  14.389  0.00  0.00    +0.000 C 
BRANCH  15  16
ATOM     16  O   UNL     1      49.344   7.623  14.540  0.00  0.00    +0.000 OA
BRANCH  16  17
ATOM     17  C   UNL     1      49.078   6.604  15.401  0.00  0.00    +0.000 A 
ATOM     18  C   UNL     1      49.717   6.353  16.610  0.00  0.00    +0.000 A 
ATOM     19  C   UNL     1      49.278   5.296  17.409  0.00  0.00    +0.000 A 
ATOM     20  C   UNL     1      48.215   4.524  16.961  0.00  0.00    +0.000 A 
ATOM     21  N   UNL     1      47.587   4.715  15.767  0.00  0.00    +0.000 NA
ATOM     22  C   UNL     1      48.043   5.750  15.024  0.00  0.00    +0.000 A 
BRANCH  20  23
ATOM     23  C   UNL     1      47.676   3.429  17.826  0.00  0.00    +0.000 C 
ATOM     24  N   UNL     1      48.375   3.195  18.978  0.00  0.00    +0.000 N 
ATOM     25  O   UNL     1      46.688   2.773  17.525  0.00  0.00    +0.000 OA
ATOM     26  H   UNL     1      49.212   3.738  19.172  0.00  0.00    +0.000 HD
ATOM     27  H   UNL     1      48.101   2.438  19.588  0.00  0.00    +0.000 HD
ENDBRANCH  20  23
ENDBRANCH  16  17
ENDBRANCH  15  16
ENDBRANCH   2  15
TORSDOF 7
ENDMDL
MODEL 7
REMARK VINA RESULT:    -5.923      2.931      4.757
REMARK INTER + INTRA:          -9.281
REMARK INTER:                  -8.547
REMARK INTRA:                  -0.734
REMARK UNBOUND:                -0.933
REMARK  Name = 
REMARK  9 active torsions:
REMARK  status: ('A' for Active; 'I' for Inactive)
REMARK    1  A    between atoms: C_1  and  C_2
REMARK    2  A    between atoms: C_2  and  C_3
REMARK    3  A    between atoms: C_2  and  C_14
REMARK    4  A    between atoms: C_3  and  O_4
REMARK    5  A    between atoms: O_4  and  C_5
REMARK    6  A    between atoms: C_8  and  C_9
REMARK    7  A    between atoms: C_18  and  O_19
REMARK    8  A    between atoms: O_19  and  C_20
REMARK    9  A    between atoms: N_22  and  C_23
REMARK                            x       y       z     vdW  Elec       q    Type
REMARK                         _______ _______ _______ _____ _____    ______ ____
ROOT
ATOM      1  C   UNL     1      49.997   7.636  12.667  0.00  0.00    +0.000 C 
ATOM      2  C   UNL     1      48.734   7.023  13.289  0.00  0.00    +0.000 C 
ENDROOT
BRANCH   2   3
ATOM      3  C   UNL     1      48.819   6.976  14.817  0.00  0.00    +0.000 A 
ATOM      4  C   UNL     1      49.231   8.066  15.598  0.00  0.00    +0.000 A 
ATOM      5  C   UNL     1      49.198   8.009  16.995  0.00  0.00    +0.000 A 
ATOM      6  C   UNL     1      48.781   6.853  17.644  0.00  0.00    +0.000 A 
ATOM      7  C   UNL     1      48.398   5.748  16.890  0.00  0.00    +0.000 A 
ATOM      8  C   UNL     1      48.400   5.817  15.493  0.00  0.00    +0.000 A 
BRANCH   7   9
ATOM      9  O   UNL     1      47.961   4.561  17.418  0.00  0.00    +0.000 OA
BRANCH   9  10
ATOM     10  C   UNL     1      48.938   3.561  17.783  0.00  0.00    +0.000 C 
ATOM     11  C   UNL     1      50.420   3.823  17.426  0.00  0.00    +0.000 C 
ATOM     12  N   UNL     1      50.505   2.513  16.752  0.00  0.00    +0.000 NA
ATOM     13  C   UNL     1      51.143   1.524  17.617  0.00  0.00    +0.000 C 
ATOM     14  C   UNL     1      49.038   2.374  16.801  0.00  0.00    +0.000 C 
ENDBRANCH   9  10
ENDBRANCH   7   9
ENDBRANCH   2   3
BRANCH   2  15
ATOM     15  C   UNL     1      47.492   7.752  12.728  0.00  0.00    +0.000 C 
BRANCH  15  16
ATOM     16  O   UNL     1      46.330   7.208  13.361  0.00  0.00    +0.000 OA
BRANCH  16  17
ATOM     17  C   UNL     1      45.664   6.208  12.721  0.00  0.00    +0.000 A 
ATOM     18  C   UNL     1      45.131   6.256  11.438  0.00  0.00    +0.000 A 
ATOM     19  C   UNL     1      44.531   5.115  10.904  0.00  0.00    +0.000 A 
ATOM     20  C   UNL     1      44.482   3.966  11.682  0.00  0.00    +0.000 A 
ATOM     21  N   UNL     1      44.961   3.890  12.955  0.00  0.00    +0.000 NA
ATOM     22  C   UNL     1      45.535   5.018  13.434  0.00  0.00    +0.000 A 
BRANCH  20  23
ATOM     23  C   UNL     1      43.909   2.707  11.112  0.00  0.00    +0.000 C 
ATOM     24  N   UNL     1      44.554   2.217  10.010  0.00  0.00    +0.000 N 
ATOM     25  O   UNL     1      42.923   2.156  11.582  0.00  0.00    +0.000 OA
ATOM     26  H   UNL     1      45.347   2.727   9.629  0.00  0.00    +0.000 HD
ATOM     27  H   UNL     1      44.195   1.399   9.539  0.00  0.00    +0.000 HD
ENDBRANCH  20  23
ENDBRANCH  16  17
ENDBRANCH  15  16
ENDBRANCH   2  15
TORSDOF 7
ENDMDL
MODEL 8
REMARK VINA RESULT:    -5.701      3.767      8.118
REMARK INTER + INTRA:          -8.967
REMARK INTER:                  -7.783
REMARK INTRA:                  -1.184
REMARK UNBOUND:                -0.933
REMARK  Name = 
REMARK  9 active torsions:
REMARK  status: ('A' for Active; 'I' for Inactive)
REMARK    1  A    between atoms: C_1  and  C_2
REMARK    2  A    between atoms: C_2  and  C_3
REMARK    3  A    between atoms: C_2  and  C_14
REMARK    4  A    between atoms: C_3  and  O_4
REMARK    5  A    between atoms: O_4  and  C_5
REMARK    6  A    between atoms: C_8  and  C_9
REMARK    7  A    between atoms: C_18  and  O_19
REMARK    8  A    between atoms: O_19  and  C_20
REMARK    9  A    between atoms: N_22  and  C_23
REMARK                            x       y       z     vdW  Elec       q    Type
REMARK                         _______ _______ _______ _____ _____    ______ ____
ROOT
ATOM      1  C   UNL     1      48.141  10.018  17.501  0.00  0.00    +0.000 C 
ATOM      2  C   UNL     1      48.513   8.552  17.241  0.00  0.00    +0.000 C 
ENDROOT
BRANCH   2   3
ATOM      3  C   UNL     1      48.978   8.330  15.799  0.00  0.00    +0.000 A 
ATOM      4  C   UNL     1      49.976   9.102  15.186  0.00  0.00    +0.000 A 
ATOM      5  C   UNL     1      50.438   8.801  13.901  0.00  0.00    +0.000 A 
ATOM      6  C   UNL     1      49.895   7.739  13.188  0.00  0.00    +0.000 A 
ATOM      7  C   UNL     1      48.881   6.978  13.763  0.00  0.00    +0.000 A 
ATOM      8  C   UNL     1      48.443   7.261  15.061  0.00  0.00    +0.000 A 
BRANCH   7   9
ATOM      9  O   UNL     1      48.279   5.905  13.160  0.00  0.00    +0.000 OA
BRANCH   9  10
ATOM     10  C   UNL     1      46.849   5.742  13.298  0.00  0.00    +0.000 C 
ATOM     11  C   UNL     1      46.294   4.314  13.511  0.00  0.00    +0.000 C 
ATOM     12  N   UNL     1      45.362   4.492  12.381  0.00  0.00    +0.000 NA
ATOM     13  C   UNL     1      44.021   4.821  12.859  0.00  0.00    +0.000 C 
ATOM     14  C   UNL     1      46.076   5.712  11.963  0.00  0.00    +0.000 C 
ENDBRANCH   9  10
ENDBRANCH   7   9
ENDBRANCH   2   3
BRANCH   2  15
ATOM     15  C   UNL     1      49.509   8.085  18.326  0.00  0.00    +0.000 C 
BRANCH  15  16
ATOM     16  O   UNL     1      48.897   7.029  19.073  0.00  0.00    +0.000 OA
BRANCH  16  17
ATOM     17  C   UNL     1      49.063   5.754  18.629  0.00  0.00    +0.000 A 
ATOM     18  C   UNL     1      48.082   4.772  18.543  0.00  0.00    +0.000 A 
ATOM     19  C   UNL     1      48.406   3.527  18.002  0.00  0.00    +0.000 A 
ATOM     20  C   UNL     1      49.708   3.310  17.572  0.00  0.00    +0.000 A 
ATOM     21  N   UNL     1      50.705   4.234  17.672  0.00  0.00    +0.000 NA
ATOM     22  C   UNL     1      50.348   5.427  18.201  0.00  0.00    +0.000 A 
BRANCH  20  23
ATOM     23  C   UNL     1      50.070   2.012  16.923  0.00  0.00    +0.000 C 
ATOM     24  N   UNL     1      51.010   1.270  17.583  0.00  0.00    +0.000 N 
ATOM     25  O   UNL     1      49.576   1.639  15.867  0.00  0.00    +0.000 OA
ATOM     26  H   UNL     1      51.423   1.634  18.437  0.00  0.00    +0.000 HD
ATOM     27  H   UNL     1      51.342   0.406  17.179  0.00  0.00    +0.000 HD
ENDBRANCH  20  23
ENDBRANCH  16  17
ENDBRANCH  15  16
ENDBRANCH   2  15
TORSDOF 7
ENDMDL
MODEL 9
REMARK VINA RESULT:    -5.696      3.501      6.085
REMARK INTER + INTRA:          -8.961
REMARK INTER:                  -7.935
REMARK INTRA:                  -1.026
REMARK UNBOUND:                -0.933
REMARK  Name = 
REMARK  9 active torsions:
REMARK  status: ('A' for Active; 'I' for Inactive)
REMARK    1  A    between atoms: C_1  and  C_2
REMARK    2  A    between atoms: C_2  and  C_3
REMARK    3  A    between atoms: C_2  and  C_14
REMARK    4  A    between atoms: C_3  and  O_4
REMARK    5  A    between atoms: O_4  and  C_5
REMARK    6  A    between atoms: C_8  and  C_9
REMARK    7  A    between atoms: C_18  and  O_19
REMARK    8  A    between atoms: O_19  and  C_20
REMARK    9  A    between atoms: N_22  and  C_23
REMARK                            x       y       z     vdW  Elec       q    Type
REMARK                         _______ _______ _______ _____ _____    ______ ____
ROOT
ATOM      1  C   UNL     1      48.882   2.212  16.656  0.00  0.00    +0.000 C 
ATOM      2  C   UNL     1      48.353   3.599  17.050  0.00  0.00    +0.000 C 
ENDROOT
BRANCH   2   3
ATOM      3  C   UNL     1      49.467   4.649  17.066  0.00  0.00    +0.000 A 
ATOM      4  C   UNL     1      50.779   4.371  17.477  0.00  0.00    +0.000 A 
ATOM      5  C   UNL     1      51.788   5.335  17.382  0.00  0.00    +0.000 A 
ATOM      6  C   UNL     1      51.503   6.607  16.901  0.00  0.00    +0.000 A 
ATOM      7  C   UNL     1      50.201   6.916  16.516  0.00  0.00    +0.000 A 
ATOM      8  C   UNL     1      49.201   5.941  16.582  0.00  0.00    +0.000 A 
BRANCH   7   9
ATOM      9  O   UNL     1      49.806   8.131  16.019  0.00  0.00    +0.000 OA
BRANCH   9  10
ATOM     10  C   UNL     1      48.970   8.161  14.840  0.00  0.00    +0.000 C 
ATOM     11  C   UNL     1      49.590   7.718  13.494  0.00  0.00    +0.000 C 
ATOM     12  N   UNL     1      49.155   8.978  12.861  0.00  0.00    +0.000 NA
ATOM     13  C   UNL     1      47.934   8.776  12.085  0.00  0.00    +0.000 C 
ATOM     14  C   UNL     1      48.839   9.551  14.182  0.00  0.00    +0.000 C 
ENDBRANCH   9  10
ENDBRANCH   7   9
ENDBRANCH   2   3
BRANCH   2  15
ATOM     15  C   UNL     1      47.142   3.947  16.155  0.00  0.00    +0.000 C 
BRANCH  15  16
ATOM     16  O   UNL     1      47.463   3.590  14.807  0.00  0.00    +0.000 OA
BRANCH  16  17
ATOM     17  C   UNL     1      46.609   3.980  13.822  0.00  0.00    +0.000 A 
ATOM     18  C   UNL     1      45.954   3.152  12.916  0.00  0.00    +0.000 A 
ATOM     19  C   UNL     1      45.057   3.710  12.005  0.00  0.00    +0.000 A 
ATOM     20  C   UNL     1      44.852   5.083  12.032  0.00  0.00    +0.000 A 
ATOM     21  N   UNL     1      45.500   5.931  12.880  0.00  0.00    +0.000 NA
ATOM     22  C   UNL     1      46.360   5.349  13.747  0.00  0.00    +0.000 A 
BRANCH  20  23
ATOM     23  C   UNL     1      43.845   5.703  11.117  0.00  0.00    +0.000 C 
ATOM     24  N   UNL     1      43.630   7.041  11.302  0.00  0.00    +0.000 N 
ATOM     25  O   UNL     1      43.238   5.062  10.269  0.00  0.00    +0.000 OA
ATOM     26  H   UNL     1      44.128   7.527  12.042  0.00  0.00    +0.000 HD
ATOM     27  H   UNL     1      42.927   7.518  10.756  0.00  0.00    +0.000 HD
ENDBRANCH  20  23
ENDBRANCH  16  17
ENDBRANCH  15  16
ENDBRANCH   2  15
TORSDOF 7
ENDMDL
