MODEL 1
REMARK VINA RESULT:    -7.695      0.000      0.000
REMARK INTER + INTRA:         -13.814
REMARK INTER:                 -12.419
REMARK INTRA:                  -1.395
REMARK UNBOUND:                -1.395
REMARK  Name = 
REMARK  12 active torsions:
REMARK  status: ('A' for Active; 'I' for Inactive)
REMARK    1  A    between atoms: C_1  and  O_2
REMARK    2  A    between atoms: O_2  and  C_3
REMARK    3  A    between atoms: C_8  and  C_9
REMARK    4  A    between atoms: N_11  and  C_12
REMARK    5  A    between atoms: C_12  and  C_13
REMARK    6  A    between atoms: C_12  and  C_16
REMARK    7  A    between atoms: C_13  and  C_14
REMARK    8  A    between atoms: C_14  and  O_15
REMARK    9  A    between atoms: C_19  and  C_20
REMARK   10  A    between atoms: C_20  and  O_21
REMARK   11  A    between atoms: O_21  and  C_22
REMARK   12  A    between atoms: C_22  and  C_23
REMARK                            x       y       z     vdW  Elec       q    Type
REMARK                         _______ _______ _______ _____ _____    ______ ____
ROOT
ATOM      1  C   UNL     1      46.622   7.998  13.020  0.00  0.00    +0.000 C 
ENDROOT
BRANCH   1   2
ATOM      2  C   UNL     1      45.766   6.856  12.463  0.00  0.00    +0.000 A 
ATOM      3  C   UNL     1      44.800   6.194  13.239  0.00  0.00    +0.000 A 
ATOM      4  C   UNL     1      44.091   5.099  12.736  0.00  0.00    +0.000 A 
ATOM      5  C   UNL     1      44.311   4.642  11.433  0.00  0.00    +0.000 A 
ATOM      6  C   UNL     1      45.216   5.339  10.625  0.00  0.00    +0.000 A 
ATOM      7  C   UNL     1      45.926   6.437  11.131  0.00  0.00    +0.000 A 
BRANCH   5   8
ATOM      8  C   UNL     1      43.613   3.404  10.934  0.00  0.00    +0.000 C 
BRANCH   8   9
ATOM      9  O   UNL     1      43.947   3.207   9.567  0.00  0.00    +0.000 OA
BRANCH   9  10
ATOM     10  C   UNL     1      44.618   1.962   9.356  0.00  0.00    +0.000 C 
BRANCH  10  11
ATOM     11  C   UNL     1      45.674   2.113   8.285  0.00  0.00    +0.000 A 
ATOM     12  C   UNL     1      45.795   3.306   7.573  0.00  0.00    +0.000 A 
ATOM     13  C   UNL     1      46.757   3.406   6.574  0.00  0.00    +0.000 A 
ATOM     14  C   UNL     1      47.587   2.322   6.323  0.00  0.00    +0.000 A 
ATOM     15  C   UNL     1      47.427   1.184   7.094  0.00  0.00    +0.000 A 
ATOM     16  N   UNL     1      46.498   1.056   8.069  0.00  0.00    +0.000 NA
ENDBRANCH  10  11
ENDBRANCH   9  10
ENDBRANCH   8   9
ENDBRANCH   5   8
ENDBRANCH   1   2
BRANCH   1  19
ATOM     17  C   UNL     1      48.356   6.685  14.261  0.00  0.00    +0.000 C 
ATOM     18  O   UNL     1      48.816   6.158  13.253  0.00  0.00    +0.000 OA
ATOM     19  N   UNL     1      47.332   7.602  14.228  0.00  0.00    +0.000 N 
ATOM     20  H   UNL     1      46.797   7.713  15.079  0.00  0.00    +0.000 HD
BRANCH  17  26
ATOM     21  C   UNL     1      48.984   4.481  18.706  0.00  0.00    +0.000 A 
ATOM     22  N   UNL     1      48.124   3.447  18.567  0.00  0.00    +0.000 NA
ATOM     23  C   UNL     1      47.444   3.322  17.406  0.00  0.00    +0.000 A 
ATOM     24  C   UNL     1      47.548   4.188  16.323  0.00  0.00    +0.000 A 
ATOM     25  C   UNL     1      48.437   5.267  16.454  0.00  0.00    +0.000 A 
ATOM     26  C   UNL     1      48.835   6.369  15.615  0.00  0.00    +0.000 A 
ATOM     27  C   UNL     1      49.791   7.072  16.335  0.00  0.00    +0.000 A 
ATOM     28  N   UNL     1      49.957   6.472  17.553  0.00  0.00    +0.000 N 
ATOM     29  C   UNL     1      49.142   5.374  17.653  0.00  0.00    +0.000 A 
ATOM     30  H   UNL     1      50.591   6.771  18.284  0.00  0.00    +0.000 HD
BRANCH  21  32
ATOM     31  C   UNL     1      48.963   5.352  20.870  0.00  0.00    +0.000 C 
ATOM     32  O   UNL     1      49.704   4.665  19.868  0.00  0.00    +0.000 OA
ENDBRANCH  21  32
ENDBRANCH  17  26
ENDBRANCH   1  19
BRANCH   1  33
ATOM     33  C   UNL     1      47.636   8.545  11.983  0.00  0.00    +0.000 C 
BRANCH  33  34
ATOM     34  C   UNL     1      48.117   9.972  12.259  0.00  0.00    +0.000 C 
BRANCH  34  35
ATOM     35  O   UNL     1      49.029  10.009  13.353  0.00  0.00    +0.000 OA
ATOM     36  H   UNL     1      49.158  10.947  13.582  0.00  0.00    +0.000 HD
ENDBRANCH  34  35
ENDBRANCH  33  34
ENDBRANCH   1  33
TORSDOF 11
ENDMDL
MODEL 2
REMARK VINA RESULT:    -7.440      2.728      3.879
REMARK INTER + INTRA:         -13.403
REMARK INTER:                 -12.029
REMARK INTRA:                  -1.374
REMARK UNBOUND:                -1.395
REMARK  Name = 
REMARK  12 active torsions:
REMARK  status: ('A' for Active; 'I' for Inactive)
REMARK    1  A    between atoms: C_1  and  O_2
REMARK    2  A    between atoms: O_2  and  C_3
REMARK    3  A    between atoms: C_8  and  C_9
REMARK    4  A    between atoms: N_11  and  C_12
REMARK    5  A    between atoms: C_12  and  C_13
REMARK    6  A    between atoms: C_12  and  C_16
REMARK    7  A    between atoms: C_13  and  C_14
REMARK    8  A    between atoms: C_14  and  O_15
REMARK    9  A    between atoms: C_19  and  C_20
REMARK   10  A    between atoms: C_20  and  O_21
REMARK   11  A    between atoms: O_21  and  C_22
REMARK   12  A    between atoms: C_22  and  C_23
REMARK                            x       y       z     vdW  Elec       q    Type
REMARK                         _______ _______ _______ _____ _____    ______ ____
ROOT
ATOM      1  C   UNL     1      47.835   4.772  14.782  0.00  0.00    +0.000 C 
ENDROOT
BRANCH   1   2
ATOM      2  C   UNL     1      46.822   4.735  13.633  0.00  0.00    +0.000 A 
ATOM      3  C   UNL     1      46.446   5.890  12.927  0.00  0.00    +0.000 A 
ATOM      4  C   UNL     1      45.456   5.846  11.940  0.00  0.00    +0.000 A 
ATOM      5  C   UNL     1      44.824   4.642  11.614  0.00  0.00    +0.000 A 
ATOM      6  C   UNL     1      45.243   3.473  12.257  0.00  0.00    +0.000 A 
ATOM      7  C   UNL     1      46.235   3.518  13.246  0.00  0.00    +0.000 A 
BRANCH   5   8
ATOM      8  C   UNL     1      43.693   4.624  10.618  0.00  0.00    +0.000 C 
BRANCH   8   9
ATOM      9  O   UNL     1      44.015   3.715   9.575  0.00  0.00    +0.000 OA
BRANCH   9  10
ATOM     10  C   UNL     1      44.882   4.304   8.602  0.00  0.00    +0.000 C 
BRANCH  10  11
ATOM     11  C   UNL     1      45.762   3.245   7.979  0.00  0.00    +0.000 A 
ATOM     12  C   UNL     1      46.587   3.555   6.898  0.00  0.00    +0.000 A 
ATOM     13  C   UNL     1      47.364   2.553   6.328  0.00  0.00    +0.000 A 
ATOM     14  C   UNL     1      47.315   1.273   6.860  0.00  0.00    +0.000 A 
ATOM     15  C   UNL     1      46.496   1.050   7.954  0.00  0.00    +0.000 A 
ATOM     16  N   UNL     1      45.726   2.003   8.528  0.00  0.00    +0.000 NA
ENDBRANCH  10  11
ENDBRANCH   9  10
ENDBRANCH   8   9
ENDBRANCH   5   8
ENDBRANCH   1   2
BRANCH   1  19
ATOM     17  C   UNL     1      48.827   6.864  15.734  0.00  0.00    +0.000 C 
ATOM     18  O   UNL     1      49.937   6.673  15.247  0.00  0.00    +0.000 OA
ATOM     19  N   UNL     1      47.762   6.020  15.528  0.00  0.00    +0.000 N 
ATOM     20  H   UNL     1      47.021   6.050  16.215  0.00  0.00    +0.000 HD
BRANCH  17  26
ATOM     21  C   UNL     1      47.620   9.617  19.731  0.00  0.00    +0.000 A 
ATOM     22  N   UNL     1      47.481   8.633  20.647  0.00  0.00    +0.000 NA
ATOM     23  C   UNL     1      47.698   7.356  20.263  0.00  0.00    +0.000 A 
ATOM     24  C   UNL     1      48.049   6.956  18.979  0.00  0.00    +0.000 A 
ATOM     25  C   UNL     1      48.195   7.969  18.016  0.00  0.00    +0.000 A 
ATOM     26  C   UNL     1      48.528   8.003  16.614  0.00  0.00    +0.000 A 
ATOM     27  C   UNL     1      48.535   9.345  16.257  0.00  0.00    +0.000 A 
ATOM     28  N   UNL     1      48.198  10.096  17.348  0.00  0.00    +0.000 N 
ATOM     29  C   UNL     1      47.982   9.283  18.432  0.00  0.00    +0.000 A 
ATOM     30  H   UNL     1      48.124  11.105  17.378  0.00  0.00    +0.000 HD
BRANCH  21  32
ATOM     31  C   UNL     1      46.037  11.231  20.309  0.00  0.00    +0.000 C 
ATOM     32  O   UNL     1      47.408  10.940  20.059  0.00  0.00    +0.000 OA
ENDBRANCH  21  32
ENDBRANCH  17  26
ENDBRANCH   1  19
BRANCH   1  33
ATOM     33  C   UNL     1      47.673   3.578  15.758  0.00  0.00    +0.000 C 
BRANCH  33  34
ATOM     34  C   UNL     1      47.023   3.937  17.097  0.00  0.00    +0.000 C 
BRANCH  34  35
ATOM     35  O   UNL     1      46.547   2.776  17.770  0.00  0.00    +0.000 OA
ATOM     36  H   UNL     1      45.766   3.047  18.285  0.00  0.00    +0.000 HD
ENDBRANCH  34  35
ENDBRANCH  33  34
ENDBRANCH   1  33
TORSDOF 11
ENDMDL
MODEL 3
REMARK VINA RESULT:    -7.152      3.468      6.593
REMARK INTER + INTRA:         -12.937
REMARK INTER:                 -11.270
REMARK INTRA:                  -1.666
REMARK UNBOUND:                -1.395
REMARK  Name = 
REMARK  12 active torsions:
REMARK  status: ('A' for Active; 'I' for Inactive)
REMARK    1  A    between atoms: C_1  and  O_2
REMARK    2  A    between atoms: O_2  and  C_3
REMARK    3  A    between atoms: C_8  and  C_9
REMARK    4  A    between atoms: N_11  and  C_12
REMARK    5  A    between atoms: C_12  and  C_13
REMARK    6  A    between atoms: C_12  and  C_16
REMARK    7  A    between atoms: C_13  and  C_14
REMARK    8  A    between atoms: C_14  and  O_15
REMARK    9  A    between atoms: C_19  and  C_20
REMARK   10  A    between atoms: C_20  and  O_21
REMARK   11  A    between atoms: O_21  and  C_22
REMARK   12  A    between atoms: C_22  and  C_23
REMARK                            x       y       z     vdW  Elec       q    Type
REMARK                         _______ _______ _______ _____ _____    ______ ____
ROOT
ATOM      1  C   UNL     1      45.613   5.229  13.204  0.00  0.00    +0.000 C 
ENDROOT
BRANCH   1   2
ATOM      2  C   UNL     1      45.670   6.684  12.728  0.00  0.00    +0.000 A 
ATOM      3  C   UNL     1      46.619   7.597  13.217  0.00  0.00    +0.000 A 
ATOM      4  C   UNL     1      46.597   8.941  12.832  0.00  0.00    +0.000 A 
ATOM      5  C   UNL     1      45.636   9.412  11.931  0.00  0.00    +0.000 A 
ATOM      6  C   UNL     1      44.733   8.497  11.380  0.00  0.00    +0.000 A 
ATOM      7  C   UNL     1      44.756   7.150  11.766  0.00  0.00    +0.000 A 
BRANCH   5   8
ATOM      8  C   UNL     1      45.562  10.880  11.599  0.00  0.00    +0.000 C 
BRANCH   8   9
ATOM      9  O   UNL     1      44.358  11.411  12.135  0.00  0.00    +0.000 OA
BRANCH   9  10
ATOM     10  C   UNL     1      43.493  11.912  11.113  0.00  0.00    +0.000 C 
BRANCH  10  11
ATOM     11  C   UNL     1      42.058  11.547  11.418  0.00  0.00    +0.000 A 
ATOM     12  C   UNL     1      41.399  10.574  10.668  0.00  0.00    +0.000 A 
ATOM     13  C   UNL     1      40.070  10.280  10.954  0.00  0.00    +0.000 A 
ATOM     14  C   UNL     1      39.438  10.949  11.993  0.00  0.00    +0.000 A 
ATOM     15  C   UNL     1      40.169  11.878  12.713  0.00  0.00    +0.000 A 
ATOM     16  N   UNL     1      41.460  12.188  12.456  0.00  0.00    +0.000 NA
ENDBRANCH  10  11
ENDBRANCH   9  10
ENDBRANCH   8   9
ENDBRANCH   5   8
ENDBRANCH   1   2
BRANCH   1  19
ATOM     17  C   UNL     1      47.039   4.003  14.857  0.00  0.00    +0.000 C 
ATOM     18  O   UNL     1      47.365   3.122  14.068  0.00  0.00    +0.000 OA
ATOM     19  N   UNL     1      46.234   5.062  14.510  0.00  0.00    +0.000 N 
ATOM     20  H   UNL     1      45.744   5.525  15.264  0.00  0.00    +0.000 HD
BRANCH  17  26
ATOM     21  C   UNL     1      49.191   5.239  19.199  0.00  0.00    +0.000 A 
ATOM     22  N   UNL     1      49.833   6.366  18.819  0.00  0.00    +0.000 NA
ATOM     23  C   UNL     1      49.707   6.782  17.539  0.00  0.00    +0.000 A 
ATOM     24  C   UNL     1      48.966   6.133  16.558  0.00  0.00    +0.000 A 
ATOM     25  C   UNL     1      48.295   4.960  16.939  0.00  0.00    +0.000 A 
ATOM     26  C   UNL     1      47.452   4.002  16.268  0.00  0.00    +0.000 A 
ATOM     27  C   UNL     1      47.083   3.076  17.235  0.00  0.00    +0.000 A 
ATOM     28  N   UNL     1      47.678   3.411  18.419  0.00  0.00    +0.000 N 
ATOM     29  C   UNL     1      48.424   4.551  18.267  0.00  0.00    +0.000 A 
ATOM     30  H   UNL     1      47.585   2.912  19.295  0.00  0.00    +0.000 HD
BRANCH  21  32
ATOM     31  C   UNL     1      48.568   5.558  21.425  0.00  0.00    +0.000 C 
ATOM     32  O   UNL     1      49.285   4.759  20.490  0.00  0.00    +0.000 OA
ENDBRANCH  21  32
ENDBRANCH  17  26
ENDBRANCH   1  19
BRANCH   1  33
ATOM     33  C   UNL     1      44.168   4.670  13.244  0.00  0.00    +0.000 C 
BRANCH  33  34
ATOM     34  C   UNL     1      43.906   3.519  12.270  0.00  0.00    +0.000 C 
BRANCH  34  35
ATOM     35  O   UNL     1      44.786   2.425  12.511  0.00  0.00    +0.000 OA
ATOM     36  H   UNL     1      44.231   1.629  12.601  0.00  0.00    +0.000 HD
ENDBRANCH  34  35
ENDBRANCH  33  34
ENDBRANCH   1  33
TORSDOF 11
ENDMDL
MODEL 4
REMARK VINA RESULT:    -6.640      3.149      6.336
REMARK INTER + INTRA:         -12.111
REMARK INTER:                 -10.708
REMARK INTRA:                  -1.403
REMARK UNBOUND:                -1.395
REMARK  Name = 
REMARK  12 active torsions:
REMARK  status: ('A' for Active; 'I' for Inactive)
REMARK    1  A    between atoms: C_1  and  O_2
REMARK    2  A    between atoms: O_2  and  C_3
REMARK    3  A    between atoms: C_8  and  C_9
REMARK    4  A    between atoms: N_11  and  C_12
REMARK    5  A    between atoms: C_12  and  C_13
REMARK    6  A    between atoms: C_12  and  C_16
REMARK    7  A    between atoms: C_13  and  C_14
REMARK    8  A    between atoms: C_14  and  O_15
REMARK    9  A    between atoms: C_19  and  C_20
REMARK   10  A    between atoms: C_20  and  O_21
REMARK   11  A    between atoms: O_21  and  C_22
REMARK   12  A    between atoms: C_22  and  C_23
REMARK                            x       y       z     vdW  Elec       q    Type
REMARK                         _______ _______ _______ _____ _____    ______ ____
ROOT
ATOM      1  C   UNL     1      46.414   5.609  13.287  0.00  0.00    +0.000 C 
ENDROOT
BRANCH   1   2
ATOM      2  C   UNL     1      46.531   7.097  12.943  0.00  0.00    +0.000 A 
ATOM      3  C   UNL     1      45.410   7.941  12.873  0.00  0.00    +0.000 A 
ATOM      4  C   UNL     1      45.531   9.276  12.473  0.00  0.00    +0.000 A 
ATOM      5  C   UNL     1      46.781   9.815  12.149  0.00  0.00    +0.000 A 
ATOM      6  C   UNL     1      47.913   9.005  12.287  0.00  0.00    +0.000 A 
ATOM      7  C   UNL     1      47.790   7.668  12.688  0.00  0.00    +0.000 A 
BRANCH   5   8
ATOM      8  C   UNL     1      46.887  11.224  11.627  0.00  0.00    +0.000 C 
BRANCH   8   9
ATOM      9  O   UNL     1      45.982  11.382  10.543  0.00  0.00    +0.000 OA
BRANCH   9  10
ATOM     10  C   UNL     1      45.069  12.461  10.762  0.00  0.00    +0.000 C 
BRANCH  10  11
ATOM     11  C   UNL     1      43.644  11.962  10.686  0.00  0.00    +0.000 A 
ATOM     12  C   UNL     1      43.039  11.732   9.451  0.00  0.00    +0.000 A 
ATOM     13  C   UNL     1      41.718  11.300   9.413  0.00  0.00    +0.000 A 
ATOM     14  C   UNL     1      41.039  11.092  10.605  0.00  0.00    +0.000 A 
ATOM     15  C   UNL     1      41.718  11.312  11.791  0.00  0.00    +0.000 A 
ATOM     16  N   UNL     1      43.000  11.735  11.861  0.00  0.00    +0.000 NA
ENDBRANCH  10  11
ENDBRANCH   9  10
ENDBRANCH   8   9
ENDBRANCH   5   8
ENDBRANCH   1   2
BRANCH   1  19
ATOM     17  C   UNL     1      47.306   4.106  15.080  0.00  0.00    +0.000 C 
ATOM     18  O   UNL     1      47.438   3.139  14.338  0.00  0.00    +0.000 OA
ATOM     19  N   UNL     1      46.856   5.331  14.645  0.00  0.00    +0.000 N 
ATOM     20  H   UNL     1      46.455   5.940  15.345  0.00  0.00    +0.000 HD
BRANCH  17  26
ATOM     21  C   UNL     1      48.918   5.242  19.677  0.00  0.00    +0.000 A 
ATOM     22  N   UNL     1      49.474   6.449  19.427  0.00  0.00    +0.000 NA
ATOM     23  C   UNL     1      49.423   6.937  18.168  0.00  0.00    +0.000 A 
ATOM     24  C   UNL     1      48.844   6.289  17.083  0.00  0.00    +0.000 A 
ATOM     25  C   UNL     1      48.264   5.034  17.328  0.00  0.00    +0.000 A 
ATOM     26  C   UNL     1      47.587   4.048  16.522  0.00  0.00    +0.000 A 
ATOM     27  C   UNL     1      47.226   3.028  17.392  0.00  0.00    +0.000 A 
ATOM     28  N   UNL     1      47.674   3.336  18.647  0.00  0.00    +0.000 N 
ATOM     29  C   UNL     1      48.312   4.550  18.635  0.00  0.00    +0.000 A 
ATOM     30  H   UNL     1      47.553   2.772  19.479  0.00  0.00    +0.000 HD
BRANCH  21  32
ATOM     31  C   UNL     1      49.322   5.622  21.943  0.00  0.00    +0.000 C 
ATOM     32  O   UNL     1      48.941   4.687  20.940  0.00  0.00    +0.000 OA
ENDBRANCH  21  32
ENDBRANCH  17  26
ENDBRANCH   1  19
BRANCH   1  33
ATOM     33  C   UNL     1      44.977   5.062  13.090  0.00  0.00    +0.000 C 
BRANCH  33  34
ATOM     34  C   UNL     1      44.855   3.968  12.026  0.00  0.00    +0.000 C 
BRANCH  34  35
ATOM     35  O   UNL     1      45.253   2.700  12.538  0.00  0.00    +0.000 OA
ATOM     36  H   UNL     1      44.439   2.185  12.683  0.00  0.00    +0.000 HD
ENDBRANCH  34  35
ENDBRANCH  33  34
ENDBRANCH   1  33
TORSDOF 11
ENDMDL
MODEL 5
REMARK VINA RESULT:    -6.567      3.276      5.146
REMARK INTER + INTRA:         -11.994
REMARK INTER:                 -10.642
REMARK INTRA:                  -1.352
REMARK UNBOUND:                -1.395
REMARK  Name = 
REMARK  12 active torsions:
REMARK  status: ('A' for Active; 'I' for Inactive)
REMARK    1  A    between atoms: C_1  and  O_2
REMARK    2  A    between atoms: O_2  and  C_3
REMARK    3  A    between atoms: C_8  and  C_9
REMARK    4  A    between atoms: N_11  and  C_12
REMARK    5  A    between atoms: C_12  and  C_13
REMARK    6  A    between atoms: C_12  and  C_16
REMARK    7  A    between atoms: C_13  and  C_14
REMARK    8  A    between atoms: C_14  and  O_15
REMARK    9  A    between atoms: C_19  and  C_20
REMARK   10  A    between atoms: C_20  and  O_21
REMARK   11  A    between atoms: O_21  and  C_22
REMARK   12  A    between atoms: C_22  and  C_23
REMARK                            x       y       z     vdW  Elec       q    Type
REMARK                         _______ _______ _______ _____ _____    ______ ____
ROOT
ATOM      1  C   UNL     1      48.024   4.939  16.592  0.00  0.00    +0.000 C 
ENDROOT
BRANCH   1   2
ATOM      2  C   UNL     1      47.514   5.066  15.152  0.00  0.00    +0.000 A 
ATOM      3  C   UNL     1      47.636   6.256  14.416  0.00  0.00    +0.000 A 
ATOM      4  C   UNL     1      47.087   6.376  13.135  0.00  0.00    +0.000 A 
ATOM      5  C   UNL     1      46.415   5.303  12.542  0.00  0.00    +0.000 A 
ATOM      6  C   UNL     1      46.351   4.089  13.236  0.00  0.00    +0.000 A 
ATOM      7  C   UNL     1      46.902   3.971  14.518  0.00  0.00    +0.000 A 
BRANCH   5   8
ATOM      8  C   UNL     1      45.744   5.473  11.204  0.00  0.00    +0.000 C 
BRANCH   8   9
ATOM      9  O   UNL     1      44.517   4.756  11.210  0.00  0.00    +0.000 OA
BRANCH   9  10
ATOM     10  C   UNL     1      43.977   4.611   9.894  0.00  0.00    +0.000 C 
BRANCH  10  11
ATOM     11  C   UNL     1      44.904   3.778   9.038  0.00  0.00    +0.000 A 
ATOM     12  C   UNL     1      45.009   2.402   9.239  0.00  0.00    +0.000 A 
ATOM     13  C   UNL     1      45.892   1.668   8.455  0.00  0.00    +0.000 A 
ATOM     14  C   UNL     1      46.633   2.318   7.479  0.00  0.00    +0.000 A 
ATOM     15  C   UNL     1      46.449   3.681   7.319  0.00  0.00    +0.000 A 
ATOM     16  N   UNL     1      45.602   4.423   8.067  0.00  0.00    +0.000 NA
ENDBRANCH  10  11
ENDBRANCH   9  10
ENDBRANCH   8   9
ENDBRANCH   5   8
ENDBRANCH   1   2
BRANCH   1  19
ATOM     17  C   UNL     1      48.554   6.560  18.424  0.00  0.00    +0.000 C 
ATOM     18  O   UNL     1      49.562   5.964  18.791  0.00  0.00    +0.000 OA
ATOM     19  N   UNL     1      47.786   6.152  17.359  0.00  0.00    +0.000 N 
ATOM     20  H   UNL     1      46.826   6.471  17.345  0.00  0.00    +0.000 HD
BRANCH  17  26
ATOM     21  C   UNL     1      47.218  11.274  19.427  0.00  0.00    +0.000 A 
ATOM     22  N   UNL     1      47.530  11.852  18.246  0.00  0.00    +0.000 NA
ATOM     23  C   UNL     1      48.035  11.077  17.260  0.00  0.00    +0.000 A 
ATOM     24  C   UNL     1      48.274   9.711  17.361  0.00  0.00    +0.000 A 
ATOM     25  C   UNL     1      47.956   9.099  18.583  0.00  0.00    +0.000 A 
ATOM     26  C   UNL     1      48.045   7.758  19.107  0.00  0.00    +0.000 A 
ATOM     27  C   UNL     1      47.527   7.816  20.394  0.00  0.00    +0.000 A 
ATOM     28  N   UNL     1      47.169   9.107  20.670  0.00  0.00    +0.000 N 
ATOM     29  C   UNL     1      47.423   9.909  19.586  0.00  0.00    +0.000 A 
ATOM     30  H   UNL     1      46.763   9.442  21.535  0.00  0.00    +0.000 HD
BRANCH  21  32
ATOM     31  C   UNL     1      47.708  12.725  21.188  0.00  0.00    +0.000 C 
ATOM     32  O   UNL     1      46.704  12.011  20.474  0.00  0.00    +0.000 OA
ENDBRANCH  21  32
ENDBRANCH  17  26
ENDBRANCH   1  19
BRANCH   1  33
ATOM     33  C   UNL     1      47.407   3.728  17.338  0.00  0.00    +0.000 C 
BRANCH  33  34
ATOM     34  C   UNL     1      48.427   2.840  18.057  0.00  0.00    +0.000 C 
BRANCH  34  35
ATOM     35  O   UNL     1      48.483   3.138  19.448  0.00  0.00    +0.000 OA
ATOM     36  H   UNL     1      47.834   2.560  19.888  0.00  0.00    +0.000 HD
ENDBRANCH  34  35
ENDBRANCH  33  34
ENDBRANCH   1  33
TORSDOF 11
ENDMDL
MODEL 6
REMARK VINA RESULT:    -6.289      3.102      7.085
REMARK INTER + INTRA:         -11.544
REMARK INTER:                  -9.536
REMARK INTRA:                  -2.008
REMARK UNBOUND:                -1.395
REMARK  Name = 
REMARK  12 active torsions:
REMARK  status: ('A' for Active; 'I' for Inactive)
REMARK    1  A    between atoms: C_1  and  O_2
REMARK    2  A    between atoms: O_2  and  C_3
REMARK    3  A    between atoms: C_8  and  C_9
REMARK    4  A    between atoms: N_11  and  C_12
REMARK    5  A    between atoms: C_12  and  C_13
REMARK    6  A    between atoms: C_12  and  C_16
REMARK    7  A    between atoms: C_13  and  C_14
REMARK    8  A    between atoms: C_14  and  O_15
REMARK    9  A    between atoms: C_19  and  C_20
REMARK   10  A    between atoms: C_20  and  O_21
REMARK   11  A    between atoms: O_21  and  C_22
REMARK   12  A    between atoms: C_22  and  C_23
REMARK                            x       y       z     vdW  Elec       q    Type
REMARK                         _______ _______ _______ _____ _____    ______ ____
ROOT
ATOM      1  C   UNL     1      46.496   5.571  13.274  0.00  0.00    +0.000 C 
ENDROOT
BRANCH   1   2
ATOM      2  C   UNL     1      46.905   6.976  12.821  0.00  0.00    +0.000 A 
ATOM      3  C   UNL     1      46.049   8.083  12.943  0.00  0.00    +0.000 A 
ATOM      4  C   UNL     1      46.411   9.338  12.444  0.00  0.00    +0.000 A 
ATOM      5  C   UNL     1      47.648   9.531  11.823  0.00  0.00    +0.000 A 
ATOM      6  C   UNL     1      48.539   8.455  11.762  0.00  0.00    +0.000 A 
ATOM      7  C   UNL     1      48.176   7.198  12.262  0.00  0.00    +0.000 A 
BRANCH   5   8
ATOM      8  C   UNL     1      47.988  10.862  11.203  0.00  0.00    +0.000 C 
BRANCH   8   9
ATOM      9  O   UNL     1      47.924  11.865  12.208  0.00  0.00    +0.000 OA
BRANCH   9  10
ATOM     10  C   UNL     1      49.206  12.128  12.783  0.00  0.00    +0.000 C 
BRANCH  10  11
ATOM     11  C   UNL     1      49.209  11.752  14.247  0.00  0.00    +0.000 A 
ATOM     12  C   UNL     1      49.596  10.474  14.650  0.00  0.00    +0.000 A 
ATOM     13  C   UNL     1      49.561  10.149  16.002  0.00  0.00    +0.000 A 
ATOM     14  C   UNL     1      49.158  11.110  16.918  0.00  0.00    +0.000 A 
ATOM     15  C   UNL     1      48.820  12.366  16.444  0.00  0.00    +0.000 A 
ATOM     16  N   UNL     1      48.841  12.710  15.136  0.00  0.00    +0.000 NA
ENDBRANCH  10  11
ENDBRANCH   9  10
ENDBRANCH   8   9
ENDBRANCH   5   8
ENDBRANCH   1   2
BRANCH   1  19
ATOM     17  C   UNL     1      47.313   4.060  15.096  0.00  0.00    +0.000 C 
ATOM     18  O   UNL     1      47.400   3.074  14.371  0.00  0.00    +0.000 OA
ATOM     19  N   UNL     1      46.922   5.297  14.638  0.00  0.00    +0.000 N 
ATOM     20  H   UNL     1      46.549   5.937  15.326  0.00  0.00    +0.000 HD
BRANCH  17  26
ATOM     21  C   UNL     1      48.857   5.263  19.698  0.00  0.00    +0.000 A 
ATOM     22  N   UNL     1      49.367   6.490  19.450  0.00  0.00    +0.000 NA
ATOM     23  C   UNL     1      49.304   6.975  18.191  0.00  0.00    +0.000 A 
ATOM     24  C   UNL     1      48.756   6.304  17.103  0.00  0.00    +0.000 A 
ATOM     25  C   UNL     1      48.224   5.027  17.347  0.00  0.00    +0.000 A 
ATOM     26  C   UNL     1      47.589   4.015  16.540  0.00  0.00    +0.000 A 
ATOM     27  C   UNL     1      47.264   2.982  17.409  0.00  0.00    +0.000 A 
ATOM     28  N   UNL     1      47.693   3.309  18.665  0.00  0.00    +0.000 N 
ATOM     29  C   UNL     1      48.284   4.547  18.655  0.00  0.00    +0.000 A 
ATOM     30  H   UNL     1      47.590   2.742  19.497  0.00  0.00    +0.000 HD
BRANCH  21  32
ATOM     31  C   UNL     1      50.096   5.023  21.661  0.00  0.00    +0.000 C 
ATOM     32  O   UNL     1      48.896   4.711  20.962  0.00  0.00    +0.000 OA
ENDBRANCH  21  32
ENDBRANCH  17  26
ENDBRANCH   1  19
BRANCH   1  33
ATOM     33  C   UNL     1      44.970   5.325  13.152  0.00  0.00    +0.000 C 
BRANCH  33  34
ATOM     34  C   UNL     1      44.585   4.191  12.198  0.00  0.00    +0.000 C 
BRANCH  34  35
ATOM     35  O   UNL     1      45.087   2.938  12.653  0.00  0.00    +0.000 OA
ATOM     36  H   UNL     1      45.571   3.110  13.481  0.00  0.00    +0.000 HD
ENDBRANCH  34  35
ENDBRANCH  33  34
ENDBRANCH   1  33
TORSDOF 11
ENDMDL
MODEL 7
REMARK VINA RESULT:    -6.040      3.797      8.758
REMARK INTER + INTRA:         -11.143
REMARK INTER:                 -10.549
REMARK INTRA:                  -0.595
REMARK UNBOUND:                -1.395
REMARK  Name = 
REMARK  12 active torsions:
REMARK  status: ('A' for Active; 'I' for Inactive)
REMARK    1  A    between atoms: C_1  and  O_2
REMARK    2  A    between atoms: O_2  and  C_3
REMARK    3  A    between atoms: C_8  and  C_9
REMARK    4  A    between atoms: N_11  and  C_12
REMARK    5  A    between atoms: C_12  and  C_13
REMARK    6  A    between atoms: C_12  and  C_16
REMARK    7  A    between atoms: C_13  and  C_14
REMARK    8  A    between atoms: C_14  and  O_15
REMARK    9  A    between atoms: C_19  and  C_20
REMARK   10  A    between atoms: C_20  and  O_21
REMARK   11  A    between atoms: O_21  and  C_22
REMARK   12  A    between atoms: C_22  and  C_23
REMARK                            x       y       z     vdW  Elec       q    Type
REMARK                         _______ _______ _______ _____ _____    ______ ____
ROOT
ATOM      1  C   UNL     1      45.066   6.307  11.787  0.00  0.00    +0.000 C 
ENDROOT
BRANCH   1   2
ATOM      2  C   UNL     1      46.207   7.330  11.795  0.00  0.00    +0.000 A 
ATOM      3  C   UNL     1      47.538   6.972  11.522  0.00  0.00    +0.000 A 
ATOM      4  C   UNL     1      48.574   7.906  11.620  0.00  0.00    +0.000 A 
ATOM      5  C   UNL     1      48.310   9.233  11.974  0.00  0.00    +0.000 A 
ATOM      6  C   UNL     1      46.981   9.618  12.175  0.00  0.00    +0.000 A 
ATOM      7  C   UNL     1      45.943   8.682  12.077  0.00  0.00    +0.000 A 
BRANCH   5   8
ATOM      8  C   UNL     1      49.444  10.205  12.170  0.00  0.00    +0.000 C 
BRANCH   8   9
ATOM      9  O   UNL     1      50.320  10.120  11.054  0.00  0.00    +0.000 OA
BRANCH   9  10
ATOM     10  C   UNL     1      51.692  10.079  11.454  0.00  0.00    +0.000 C 
BRANCH  10  11
ATOM     11  C   UNL     1      52.446   9.062  10.628  0.00  0.00    +0.000 A 
ATOM     12  C   UNL     1      51.891   7.811  10.365  0.00  0.00    +0.000 A 
ATOM     13  C   UNL     1      52.621   6.886   9.626  0.00  0.00    +0.000 A 
ATOM     14  C   UNL     1      53.876   7.238   9.152  0.00  0.00    +0.000 A 
ATOM     15  C   UNL     1      54.346   8.511   9.427  0.00  0.00    +0.000 A 
ATOM     16  N   UNL     1      53.662   9.430  10.145  0.00  0.00    +0.000 NA
ENDBRANCH  10  11
ENDBRANCH   9  10
ENDBRANCH   8   9
ENDBRANCH   5   8
ENDBRANCH   1   2
BRANCH   1  19
ATOM     17  C   UNL     1      44.400   4.542  10.142  0.00  0.00    +0.000 C 
ATOM     18  O   UNL     1      43.226   4.892  10.095  0.00  0.00    +0.000 OA
ATOM     19  N   UNL     1      45.348   5.189  10.900  0.00  0.00    +0.000 N 
ATOM     20  H   UNL     1      46.167   4.654  11.154  0.00  0.00    +0.000 HD
BRANCH  17  26
ATOM     21  C   UNL     1      46.885   1.645   6.909  0.00  0.00    +0.000 A 
ATOM     22  N   UNL     1      47.584   2.594   6.249  0.00  0.00    +0.000 NA
ATOM     23  C   UNL     1      47.434   3.885   6.621  0.00  0.00    +0.000 A 
ATOM     24  C   UNL     1      46.599   4.331   7.639  0.00  0.00    +0.000 A 
ATOM     25  C   UNL     1      45.866   3.354   8.333  0.00  0.00    +0.000 A 
ATOM     26  C   UNL     1      44.912   3.371   9.414  0.00  0.00    +0.000 A 
ATOM     27  C   UNL     1      44.583   2.044   9.653  0.00  0.00    +0.000 A 
ATOM     28  N   UNL     1      45.257   1.253   8.763  0.00  0.00    +0.000 N 
ATOM     29  C   UNL     1      46.043   2.026   7.947  0.00  0.00    +0.000 A 
ATOM     30  H   UNL     1      45.208   0.243   8.706  0.00  0.00    +0.000 HD
BRANCH  21  32
ATOM     31  C   UNL     1      46.739  -0.554   7.676  0.00  0.00    +0.000 C 
ATOM     32  O   UNL     1      46.990   0.311   6.574  0.00  0.00    +0.000 OA
ENDBRANCH  21  32
ENDBRANCH  17  26
ENDBRANCH   1  19
BRANCH   1  33
ATOM     33  C   UNL     1      44.736   5.771  13.204  0.00  0.00    +0.000 C 
BRANCH  33  34
ATOM     34  C   UNL     1      45.794   4.830  13.787  0.00  0.00    +0.000 C 
BRANCH  34  35
ATOM     35  O   UNL     1      45.672   3.516  13.250  0.00  0.00    +0.000 OA
ATOM     36  H   UNL     1      44.726   3.372  13.066  0.00  0.00    +0.000 HD
ENDBRANCH  34  35
ENDBRANCH  33  34
ENDBRANCH   1  33
TORSDOF 11
ENDMDL
MODEL 8
REMARK VINA RESULT:    -5.969      2.814      9.184
REMARK INTER + INTRA:         -11.029
REMARK INTER:                 -10.019
REMARK INTRA:                  -1.009
REMARK UNBOUND:                -1.395
REMARK  Name = 
REMARK  12 active torsions:
REMARK  status: ('A' for Active; 'I' for Inactive)
REMARK    1  A    between atoms: C_1  and  O_2
REMARK    2  A    between atoms: O_2  and  C_3
REMARK    3  A    between atoms: C_8  and  C_9
REMARK    4  A    between atoms: N_11  and  C_12
REMARK    5  A    between atoms: C_12  and  C_13
REMARK    6  A    between atoms: C_12  and  C_16
REMARK    7  A    between atoms: C_13  and  C_14
REMARK    8  A    between atoms: C_14  and  O_15
REMARK    9  A    between atoms: C_19  and  C_20
REMARK   10  A    between atoms: C_20  and  O_21
REMARK   11  A    between atoms: O_21  and  C_22
REMARK   12  A    between atoms: C_22  and  C_23
REMARK                            x       y       z     vdW  Elec       q    Type
REMARK                         _______ _______ _______ _____ _____    ______ ____
ROOT
ATOM      1  C   UNL     1      44.888   6.170  11.850  0.00  0.00    +0.000 C 
ENDROOT
BRANCH   1   2
ATOM      2  C   UNL     1      46.027   7.194  11.906  0.00  0.00    +0.000 A 
ATOM      3  C   UNL     1      47.367   6.840  11.673  0.00  0.00    +0.000 A 
ATOM      4  C   UNL     1      48.398   7.773  11.815  0.00  0.00    +0.000 A 
ATOM      5  C   UNL     1      48.122   9.096  12.175  0.00  0.00    +0.000 A 
ATOM      6  C   UNL     1      46.786   9.478  12.337  0.00  0.00    +0.000 A 
ATOM      7  C   UNL     1      45.753   8.542  12.194  0.00  0.00    +0.000 A 
BRANCH   5   8
ATOM      8  C   UNL     1      49.247  10.067  12.419  0.00  0.00    +0.000 C 
BRANCH   8   9
ATOM      9  O   UNL     1      50.454   9.337  12.592  0.00  0.00    +0.000 OA
BRANCH   9  10
ATOM     10  C   UNL     1      51.044   9.577  13.872  0.00  0.00    +0.000 C 
BRANCH  10  11
ATOM     11  C   UNL     1      50.286   8.829  14.945  0.00  0.00    +0.000 A 
ATOM     12  C   UNL     1      50.251   7.435  14.947  0.00  0.00    +0.000 A 
ATOM     13  C   UNL     1      49.521   6.776  15.930  0.00  0.00    +0.000 A 
ATOM     14  C   UNL     1      48.861   7.521  16.897  0.00  0.00    +0.000 A 
ATOM     15  C   UNL     1      48.970   8.900  16.847  0.00  0.00    +0.000 A 
ATOM     16  N   UNL     1      49.668   9.569  15.902  0.00  0.00    +0.000 NA
ENDBRANCH  10  11
ENDBRANCH   9  10
ENDBRANCH   8   9
ENDBRANCH   5   8
ENDBRANCH   1   2
BRANCH   1  19
ATOM     17  C   UNL     1      44.351   4.554  10.015  0.00  0.00    +0.000 C 
ATOM     18  O   UNL     1      43.254   5.045   9.772  0.00  0.00    +0.000 OA
ATOM     19  N   UNL     1      45.205   5.056  10.968  0.00  0.00    +0.000 N 
ATOM     20  H   UNL     1      45.897   4.418  11.338  0.00  0.00    +0.000 HD
BRANCH  17  26
ATOM     21  C   UNL     1      46.877   1.524   6.939  0.00  0.00    +0.000 A 
ATOM     22  N   UNL     1      47.631   2.440   6.292  0.00  0.00    +0.000 NA
ATOM     23  C   UNL     1      47.506   3.741   6.635  0.00  0.00    +0.000 A 
ATOM     24  C   UNL     1      46.644   4.231   7.610  0.00  0.00    +0.000 A 
ATOM     25  C   UNL     1      45.853   3.290   8.289  0.00  0.00    +0.000 A 
ATOM     26  C   UNL     1      44.856   3.355   9.329  0.00  0.00    +0.000 A 
ATOM     27  C   UNL     1      44.477   2.043   9.577  0.00  0.00    +0.000 A 
ATOM     28  N   UNL     1      45.163   1.216   8.730  0.00  0.00    +0.000 N 
ATOM     29  C   UNL     1      46.004   1.950   7.934  0.00  0.00    +0.000 A 
ATOM     30  H   UNL     1      45.085   0.207   8.689  0.00  0.00    +0.000 HD
BRANCH  21  32
ATOM     31  C   UNL     1      46.898  -0.650   7.785  0.00  0.00    +0.000 C 
ATOM     32  O   UNL     1      46.955   0.182   6.632  0.00  0.00    +0.000 OA
ENDBRANCH  21  32
ENDBRANCH  17  26
ENDBRANCH   1  19
BRANCH   1  33
ATOM     33  C   UNL     1      44.505   5.627  13.250  0.00  0.00    +0.000 C 
BRANCH  33  34
ATOM     34  C   UNL     1      43.135   4.946  13.312  0.00  0.00    +0.000 C 
BRANCH  34  35
ATOM     35  O   UNL     1      42.205   5.571  12.433  0.00  0.00    +0.000 OA
ATOM     36  H   UNL     1      41.821   6.325  12.916  0.00  0.00    +0.000 HD
ENDBRANCH  34  35
ENDBRANCH  33  34
ENDBRANCH   1  33
TORSDOF 11
ENDMDL
MODEL 9
REMARK VINA RESULT:    -5.943      3.586      6.542
REMARK INTER + INTRA:         -10.986
REMARK INTER:                  -9.374
REMARK INTRA:                  -1.611
REMARK UNBOUND:                -1.395
REMARK  Name = 
REMARK  12 active torsions:
REMARK  status: ('A' for Active; 'I' for Inactive)
REMARK    1  A    between atoms: C_1  and  O_2
REMARK    2  A    between atoms: O_2  and  C_3
REMARK    3  A    between atoms: C_8  and  C_9
REMARK    4  A    between atoms: N_11  and  C_12
REMARK    5  A    between atoms: C_12  and  C_13
REMARK    6  A    between atoms: C_12  and  C_16
REMARK    7  A    between atoms: C_13  and  C_14
REMARK    8  A    between atoms: C_14  and  O_15
REMARK    9  A    between atoms: C_19  and  C_20
REMARK   10  A    between atoms: C_20  and  O_21
REMARK   11  A    between atoms: O_21  and  C_22
REMARK   12  A    between atoms: C_22  and  C_23
REMARK                            x       y       z     vdW  Elec       q    Type
REMARK                         _______ _______ _______ _____ _____    ______ ____
ROOT
ATOM      1  C   UNL     1      47.493   6.180  13.342  0.00  0.00    +0.000 C 
ENDROOT
BRANCH   1   2
ATOM      2  C   UNL     1      47.112   7.606  12.934  0.00  0.00    +0.000 A 
ATOM      3  C   UNL     1      45.775   8.031  12.852  0.00  0.00    +0.000 A 
ATOM      4  C   UNL     1      45.448   9.311  12.394  0.00  0.00    +0.000 A 
ATOM      5  C   UNL     1      46.449  10.214  12.020  0.00  0.00    +0.000 A 
ATOM      6  C   UNL     1      47.785   9.829  12.168  0.00  0.00    +0.000 A 
ATOM      7  C   UNL     1      48.111   8.546  12.627  0.00  0.00    +0.000 A 
BRANCH   5   8
ATOM      8  C   UNL     1      46.082  11.555  11.437  0.00  0.00    +0.000 C 
BRANCH   8   9
ATOM      9  O   UNL     1      44.857  11.427  10.728  0.00  0.00    +0.000 OA
BRANCH   9  10
ATOM     10  C   UNL     1      43.916  12.436  11.104  0.00  0.00    +0.000 C 
BRANCH  10  11
ATOM     11  C   UNL     1      42.559  11.817  11.351  0.00  0.00    +0.000 A 
ATOM     12  C   UNL     1      42.120  10.740  10.581  0.00  0.00    +0.000 A 
ATOM     13  C   UNL     1      40.855  10.210  10.814  0.00  0.00    +0.000 A 
ATOM     14  C   UNL     1      40.069  10.753  11.820  0.00  0.00    +0.000 A 
ATOM     15  C   UNL     1      40.587  11.800  12.563  0.00  0.00    +0.000 A 
ATOM     16  N   UNL     1      41.811  12.338  12.358  0.00  0.00    +0.000 NA
ENDBRANCH  10  11
ENDBRANCH   9  10
ENDBRANCH   8   9
ENDBRANCH   5   8
ENDBRANCH   1   2
BRANCH   1  19
ATOM     17  C   UNL     1      48.513   6.116  15.628  0.00  0.00    +0.000 C 
ATOM     18  O   UNL     1      49.628   6.456  15.245  0.00  0.00    +0.000 OA
ATOM     19  N   UNL     1      47.434   5.996  14.785  0.00  0.00    +0.000 N 
ATOM     20  H   UNL     1      46.681   5.397  15.096  0.00  0.00    +0.000 HD
BRANCH  17  26
ATOM     21  C   UNL     1      47.663   6.448  20.545  0.00  0.00    +0.000 A 
ATOM     22  N   UNL     1      47.746   7.788  20.697  0.00  0.00    +0.000 NA
ATOM     23  C   UNL     1      47.990   8.549  19.608  0.00  0.00    +0.000 A 
ATOM     24  C   UNL     1      48.175   8.062  18.319  0.00  0.00    +0.000 A 
ATOM     25  C   UNL     1      48.093   6.671  18.147  0.00  0.00    +0.000 A 
ATOM     26  C   UNL     1      48.222   5.772  17.028  0.00  0.00    +0.000 A 
ATOM     27  C   UNL     1      47.993   4.499  17.533  0.00  0.00    +0.000 A 
ATOM     28  N   UNL     1      47.768   4.590  18.879  0.00  0.00    +0.000 N 
ATOM     29  C   UNL     1      47.826   5.901  19.279  0.00  0.00    +0.000 A 
ATOM     30  H   UNL     1      47.573   3.818  19.504  0.00  0.00    +0.000 HD
BRANCH  21  32
ATOM     31  C   UNL     1      48.614   5.218  22.285  0.00  0.00    +0.000 C 
ATOM     32  O   UNL     1      47.421   5.616  21.620  0.00  0.00    +0.000 OA
ENDBRANCH  21  32
ENDBRANCH  17  26
ENDBRANCH   1  19
BRANCH   1  33
ATOM     33  C   UNL     1      46.617   5.105  12.649  0.00  0.00    +0.000 C 
BRANCH  33  34
ATOM     34  C   UNL     1      46.179   3.958  13.563  0.00  0.00    +0.000 C 
BRANCH  34  35
ATOM     35  O   UNL     1      47.295   3.192  14.005  0.00  0.00    +0.000 OA
ATOM     36  H   UNL     1      47.091   2.888  14.908  0.00  0.00    +0.000 HD
ENDBRANCH  34  35
ENDBRANCH  33  34
ENDBRANCH   1  33
TORSDOF 11
ENDMDL
