MODEL 1
REMARK VINA RESULT:    -8.158      0.000      0.000
REMARK INTER + INTRA:         -12.623
REMARK INTER:                 -11.974
REMARK INTRA:                  -0.649
REMARK UNBOUND:                -0.649
REMARK  Name = 
REMARK  8 active torsions:
REMARK  status: ('A' for Active; 'I' for Inactive)
REMARK    1  A    between atoms: C_2  and  C_12
REMARK    2  A    between atoms: N_3  and  C_4
REMARK    3  A    between atoms: C_4  and  C_5
REMARK    4  A    between atoms: C_5  and  C_6
REMARK    5  A    between atoms: C_15  and  C_16
REMARK    6  A    between atoms: C_16  and  N_17
REMARK    7  A    between atoms: N_17  and  C_18
REMARK    8  A    between atoms: C_18  and  C_19
REMARK                            x       y       z     vdW  Elec       q    Type
REMARK                         _______ _______ _______ _____ _____    ______ ____
ROOT
ATOM      1  C   UNL     1      46.931   5.878  12.981  0.00  0.00    +0.000 A 
ATOM      2  C   UNL     1      46.050   4.863  13.357  0.00  0.00    +0.000 A 
ATOM      3  C   UNL     1      45.004   4.495  12.506  0.00  0.00    +0.000 A 
ATOM      4  C   UNL     1      44.830   5.133  11.271  0.00  0.00    +0.000 A 
ATOM      5  C   UNL     1      45.732   6.139  10.893  0.00  0.00    +0.000 A 
ATOM      6  C   UNL     1      46.779   6.511  11.742  0.00  0.00    +0.000 A 
ENDROOT
BRANCH   1   8
ATOM      7  O   UNL     1      49.119   6.584  13.482  0.00  0.00    +0.000 OA
ATOM      8  C   UNL     1      48.025   6.243  13.917  0.00  0.00    +0.000 C 
ATOM      9  N   UNL     1      47.733   6.125  15.256  0.00  0.00    +0.000 N 
ATOM     10  H   UNL     1      46.871   5.680  15.541  0.00  0.00    +0.000 HD
BRANCH   9  11
ATOM     11  C   UNL     1      48.737   6.370  16.264  0.00  0.00    +0.000 C 
BRANCH  11  12
ATOM     12  C   UNL     1      48.385   5.703  17.595  0.00  0.00    +0.000 C 
BRANCH  12  13
ATOM     13  C   UNL     1      48.871   4.244  17.656  0.00  0.00    +0.000 C 
ATOM     14  C   UNL     1      50.396   4.141  17.501  0.00  0.00    +0.000 C 
ATOM     15  C   UNL     1      50.845   2.691  17.418  0.00  0.00    +0.000 C 
ATOM     16  O   UNL     1      50.176   2.017  16.356  0.00  0.00    +0.000 OA
ATOM     17  C   UNL     1      48.764   1.979  16.554  0.00  0.00    +0.000 C 
ATOM     18  C   UNL     1      48.185   3.389  16.579  0.00  0.00    +0.000 C 
ENDBRANCH  12  13
ENDBRANCH  11  12
ENDBRANCH   9  11
ENDBRANCH   1   8
BRANCH   4  19
ATOM     19  C   UNL     1      43.701   4.727  10.347  0.00  0.00    +0.000 C 
BRANCH  19  20
ATOM     20  N   UNL     1      44.224   4.188   9.095  0.00  0.00    +0.000 NA
ATOM     21  H   UNL     1      45.080   4.692   8.856  0.00  0.00    +0.000 HD
BRANCH  20  22
ATOM     22  C   UNL     1      44.555   2.763   9.222  0.00  0.00    +0.000 C 
BRANCH  22  23
ATOM     23  C   UNL     1      45.727   2.377   8.339  0.00  0.00    +0.000 A 
ATOM     24  C   UNL     1      46.403   3.345   7.614  0.00  0.00    +0.000 A 
ATOM     25  C   UNL     1      47.456   2.909   6.843  0.00  0.00    +0.000 A 
ATOM     26  N   UNL     1      47.838   1.622   6.768  0.00  0.00    +0.000 NA
ATOM     27  C   UNL     1      47.123   0.763   7.511  0.00  0.00    +0.000 A 
ATOM     28  N   UNL     1      46.082   1.072   8.299  0.00  0.00    +0.000 NA
ENDBRANCH  22  23
ENDBRANCH  20  22
ENDBRANCH  19  20
ENDBRANCH   4  19
TORSDOF 8
ENDMDL
MODEL 2
REMARK VINA RESULT:    -7.975      0.769      1.304
REMARK INTER + INTRA:         -12.354
REMARK INTER:                 -11.533
REMARK INTRA:                  -0.821
REMARK UNBOUND:                -0.649
REMARK  Name = 
REMARK  8 active torsions:
REMARK  status: ('A' for Active; 'I' for Inactive)
REMARK    1  A    between atoms: C_2  and  C_12
REMARK    2  A    between atoms: N_3  and  C_4
REMARK    3  A    between atoms: C_4  and  C_5
REMARK    4  A    between atoms: C_5  and  C_6
REMARK    5  A    between atoms: C_15  and  C_16
REMARK    6  A    between atoms: C_16  and  N_17
REMARK    7  A    between atoms: N_17  and  C_18
REMARK    8  A    between atoms: C_18  and  C_19
REMARK                            x       y       z     vdW  Elec       q    Type
REMARK                         _______ _______ _______ _____ _____    ______ ____
ROOT
ATOM      1  C   UNL     1      46.631   5.547  13.202  0.00  0.00    +0.000 A 
ATOM      2  C   UNL     1      46.776   6.076  11.919  0.00  0.00    +0.000 A 
ATOM      3  C   UNL     1      45.807   5.821  10.945  0.00  0.00    +0.000 A 
ATOM      4  C   UNL     1      44.682   5.041  11.243  0.00  0.00    +0.000 A 
ATOM      5  C   UNL     1      44.535   4.530  12.542  0.00  0.00    +0.000 A 
ATOM      6  C   UNL     1      45.502   4.781  13.519  0.00  0.00    +0.000 A 
ENDROOT
BRANCH   1   8
ATOM      7  O   UNL     1      48.682   6.476  13.886  0.00  0.00    +0.000 OA
ATOM      8  C   UNL     1      47.687   5.836  14.206  0.00  0.00    +0.000 C 
ATOM      9  N   UNL     1      47.483   5.307  15.459  0.00  0.00    +0.000 N 
ATOM     10  H   UNL     1      46.727   4.652  15.608  0.00  0.00    +0.000 HD
BRANCH   9  11
ATOM     11  C   UNL     1      48.475   5.447  16.500  0.00  0.00    +0.000 C 
BRANCH  11  12
ATOM     12  C   UNL     1      48.184   4.537  17.693  0.00  0.00    +0.000 C 
BRANCH  12  13
ATOM     13  C   UNL     1      49.392   3.657  18.058  0.00  0.00    +0.000 C 
ATOM     14  C   UNL     1      50.694   4.471  18.127  0.00  0.00    +0.000 C 
ATOM     15  C   UNL     1      51.898   3.569  18.344  0.00  0.00    +0.000 C 
ATOM     16  O   UNL     1      51.971   2.573  17.329  0.00  0.00    +0.000 OA
ATOM     17  C   UNL     1      50.831   1.716  17.339  0.00  0.00    +0.000 C 
ATOM     18  C   UNL     1      49.558   2.506  17.055  0.00  0.00    +0.000 C 
ENDBRANCH  12  13
ENDBRANCH  11  12
ENDBRANCH   9  11
ENDBRANCH   1   8
BRANCH   4  19
ATOM     19  C   UNL     1      43.629   4.773  10.188  0.00  0.00    +0.000 C 
BRANCH  19  20
ATOM     20  N   UNL     1      44.235   4.225   8.977  0.00  0.00    +0.000 NA
ATOM     21  H   UNL     1      45.133   4.687   8.825  0.00  0.00    +0.000 HD
BRANCH  20  22
ATOM     22  C   UNL     1      44.480   2.783   9.106  0.00  0.00    +0.000 C 
BRANCH  22  23
ATOM     23  C   UNL     1      45.684   2.342   8.295  0.00  0.00    +0.000 A 
ATOM     24  C   UNL     1      46.400   3.266   7.551  0.00  0.00    +0.000 A 
ATOM     25  C   UNL     1      47.480   2.783   6.849  0.00  0.00    +0.000 A 
ATOM     26  N   UNL     1      47.852   1.490   6.857  0.00  0.00    +0.000 NA
ATOM     27  C   UNL     1      47.097   0.677   7.611  0.00  0.00    +0.000 A 
ATOM     28  N   UNL     1      46.027   1.035   8.337  0.00  0.00    +0.000 NA
ENDBRANCH  22  23
ENDBRANCH  20  22
ENDBRANCH  19  20
ENDBRANCH   4  19
TORSDOF 8
ENDMDL
MODEL 3
REMARK VINA RESULT:    -7.350      2.028      2.777
REMARK INTER + INTRA:         -11.436
REMARK INTER:                 -10.728
REMARK INTRA:                  -0.708
REMARK UNBOUND:                -0.649
REMARK  Name = 
REMARK  8 active torsions:
REMARK  status: ('A' for Active; 'I' for Inactive)
REMARK    1  A    between atoms: C_2  and  C_12
REMARK    2  A    between atoms: N_3  and  C_4
REMARK    3  A    between atoms: C_4  and  C_5
REMARK    4  A    between atoms: C_5  and  C_6
REMARK    5  A    between atoms: C_15  and  C_16
REMARK    6  A    between atoms: C_16  and  N_17
REMARK    7  A    between atoms: N_17  and  C_18
REMARK    8  A    between atoms: C_18  and  C_19
REMARK                            x       y       z     vdW  Elec       q    Type
REMARK                         _______ _______ _______ _____ _____    ______ ____
ROOT
ATOM      1  C   UNL     1      46.603   5.280  13.311  0.00  0.00    +0.000 A 
ATOM      2  C   UNL     1      46.062   3.998  13.213  0.00  0.00    +0.000 A 
ATOM      3  C   UNL     1      45.114   3.714  12.226  0.00  0.00    +0.000 A 
ATOM      4  C   UNL     1      44.700   4.705  11.326  0.00  0.00    +0.000 A 
ATOM      5  C   UNL     1      45.265   5.986  11.420  0.00  0.00    +0.000 A 
ATOM      6  C   UNL     1      46.213   6.274  12.406  0.00  0.00    +0.000 A 
ENDROOT
BRANCH   1   8
ATOM      7  O   UNL     1      48.641   6.140  14.116  0.00  0.00    +0.000 OA
ATOM      8  C   UNL     1      47.604   5.542  14.378  0.00  0.00    +0.000 C 
ATOM      9  N   UNL     1      47.299   5.037  15.621  0.00  0.00    +0.000 N 
ATOM     10  H   UNL     1      46.511   4.413  15.727  0.00  0.00    +0.000 HD
BRANCH   9  11
ATOM     11  C   UNL     1      48.228   5.153  16.721  0.00  0.00    +0.000 C 
BRANCH  11  12
ATOM     12  C   UNL     1      47.648   4.589  18.019  0.00  0.00    +0.000 C 
BRANCH  12  13
ATOM     13  C   UNL     1      48.308   5.208  19.263  0.00  0.00    +0.000 C 
ATOM     14  C   UNL     1      47.346   6.138  20.019  0.00  0.00    +0.000 C 
ATOM     15  C   UNL     1      48.052   6.853  21.159  0.00  0.00    +0.000 C 
ATOM     16  O   UNL     1      49.185   7.570  20.679  0.00  0.00    +0.000 OA
ATOM     17  C   UNL     1      50.158   6.704  20.097  0.00  0.00    +0.000 C 
ATOM     18  C   UNL     1      49.580   5.981  18.885  0.00  0.00    +0.000 C 
ENDBRANCH  12  13
ENDBRANCH  11  12
ENDBRANCH   9  11
ENDBRANCH   1   8
BRANCH   4  19
ATOM     19  C   UNL     1      43.679   4.392  10.252  0.00  0.00    +0.000 C 
BRANCH  19  20
ATOM     20  N   UNL     1      44.171   3.348   9.357  0.00  0.00    +0.000 NA
ATOM     21  H   UNL     1      43.368   2.859   8.957  0.00  0.00    +0.000 HD
BRANCH  20  22
ATOM     22  C   UNL     1      44.957   3.913   8.254  0.00  0.00    +0.000 C 
BRANCH  22  23
ATOM     23  C   UNL     1      46.024   2.948   7.771  0.00  0.00    +0.000 A 
ATOM     24  C   UNL     1      45.975   1.613   8.139  0.00  0.00    +0.000 A 
ATOM     25  C   UNL     1      46.979   0.807   7.653  0.00  0.00    +0.000 A 
ATOM     26  N   UNL     1      47.973   1.252   6.865  0.00  0.00    +0.000 NA
ATOM     27  C   UNL     1      47.928   2.559   6.563  0.00  0.00    +0.000 A 
ATOM     28  N   UNL     1      47.001   3.437   6.974  0.00  0.00    +0.000 NA
ENDBRANCH  22  23
ENDBRANCH  20  22
ENDBRANCH  19  20
ENDBRANCH   4  19
TORSDOF 8
ENDMDL
MODEL 4
REMARK VINA RESULT:    -7.278      1.731      2.591
REMARK INTER + INTRA:         -11.330
REMARK INTER:                 -10.544
REMARK INTRA:                  -0.786
REMARK UNBOUND:                -0.649
REMARK  Name = 
REMARK  8 active torsions:
REMARK  status: ('A' for Active; 'I' for Inactive)
REMARK    1  A    between atoms: C_2  and  C_12
REMARK    2  A    between atoms: N_3  and  C_4
REMARK    3  A    between atoms: C_4  and  C_5
REMARK    4  A    between atoms: C_5  and  C_6
REMARK    5  A    between atoms: C_15  and  C_16
REMARK    6  A    between atoms: C_16  and  N_17
REMARK    7  A    between atoms: N_17  and  C_18
REMARK    8  A    between atoms: C_18  and  C_19
REMARK                            x       y       z     vdW  Elec       q    Type
REMARK                         _______ _______ _______ _____ _____    ______ ____
ROOT
ATOM      1  C   UNL     1      46.898   5.768  13.046  0.00  0.00    +0.000 A 
ATOM      2  C   UNL     1      46.637   6.441  11.852  0.00  0.00    +0.000 A 
ATOM      3  C   UNL     1      45.569   6.042  11.044  0.00  0.00    +0.000 A 
ATOM      4  C   UNL     1      44.748   4.972  11.423  0.00  0.00    +0.000 A 
ATOM      5  C   UNL     1      45.006   4.314  12.635  0.00  0.00    +0.000 A 
ATOM      6  C   UNL     1      46.075   4.709  13.445  0.00  0.00    +0.000 A 
ENDROOT
BRANCH   1   8
ATOM      7  O   UNL     1      49.099   6.550  13.335  0.00  0.00    +0.000 OA
ATOM      8  C   UNL     1      48.048   6.219  13.872  0.00  0.00    +0.000 C 
ATOM      9  N   UNL     1      47.855   6.191  15.233  0.00  0.00    +0.000 N 
ATOM     10  H   UNL     1      47.027   5.751  15.612  0.00  0.00    +0.000 HD
BRANCH   9  11
ATOM     11  C   UNL     1      48.923   6.526  16.146  0.00  0.00    +0.000 C 
BRANCH  11  12
ATOM     12  C   UNL     1      49.333   5.332  17.009  0.00  0.00    +0.000 C 
BRANCH  12  13
ATOM     13  C   UNL     1      48.559   5.288  18.339  0.00  0.00    +0.000 C 
ATOM     14  C   UNL     1      48.225   6.697  18.855  0.00  0.00    +0.000 C 
ATOM     15  C   UNL     1      47.592   6.642  20.236  0.00  0.00    +0.000 C 
ATOM     16  O   UNL     1      48.436   5.949  21.150  0.00  0.00    +0.000 OA
ATOM     17  C   UNL     1      48.644   4.593  20.760  0.00  0.00    +0.000 C 
ATOM     18  C   UNL     1      49.349   4.521  19.410  0.00  0.00    +0.000 C 
ENDBRANCH  12  13
ENDBRANCH  11  12
ENDBRANCH   9  11
ENDBRANCH   1   8
BRANCH   4  19
ATOM     19  C   UNL     1      43.585   4.547  10.551  0.00  0.00    +0.000 C 
BRANCH  19  20
ATOM     20  N   UNL     1      44.036   4.252   9.193  0.00  0.00    +0.000 NA
ATOM     21  H   UNL     1      44.849   4.835   8.986  0.00  0.00    +0.000 HD
BRANCH  20  22
ATOM     22  C   UNL     1      44.436   2.846   9.055  0.00  0.00    +0.000 C 
BRANCH  22  23
ATOM     23  C   UNL     1      45.684   2.697   8.204  0.00  0.00    +0.000 A 
ATOM     24  C   UNL     1      46.288   1.458   8.063  0.00  0.00    +0.000 A 
ATOM     25  C   UNL     1      47.412   1.412   7.271  0.00  0.00    +0.000 A 
ATOM     26  N   UNL     1      47.930   2.488   6.653  0.00  0.00    +0.000 NA
ATOM     27  C   UNL     1      47.269   3.639   6.849  0.00  0.00    +0.000 A 
ATOM     28  N   UNL     1      46.166   3.804   7.595  0.00  0.00    +0.000 NA
ENDBRANCH  22  23
ENDBRANCH  20  22
ENDBRANCH  19  20
ENDBRANCH   4  19
TORSDOF 8
ENDMDL
MODEL 5
REMARK VINA RESULT:    -7.231      2.635      8.580
REMARK INTER + INTRA:         -11.262
REMARK INTER:                 -10.400
REMARK INTRA:                  -0.862
REMARK UNBOUND:                -0.649
REMARK  Name = 
REMARK  8 active torsions:
REMARK  status: ('A' for Active; 'I' for Inactive)
REMARK    1  A    between atoms: C_2  and  C_12
REMARK    2  A    between atoms: N_3  and  C_4
REMARK    3  A    between atoms: C_4  and  C_5
REMARK    4  A    between atoms: C_5  and  C_6
REMARK    5  A    between atoms: C_15  and  C_16
REMARK    6  A    between atoms: C_16  and  N_17
REMARK    7  A    between atoms: N_17  and  C_18
REMARK    8  A    between atoms: C_18  and  C_19
REMARK                            x       y       z     vdW  Elec       q    Type
REMARK                         _______ _______ _______ _____ _____    ______ ____
ROOT
ATOM      1  C   UNL     1      46.075   5.574  12.383  0.00  0.00    +0.000 A 
ATOM      2  C   UNL     1      46.615   5.018  13.544  0.00  0.00    +0.000 A 
ATOM      3  C   UNL     1      47.614   5.697  14.244  0.00  0.00    +0.000 A 
ATOM      4  C   UNL     1      48.083   6.940  13.796  0.00  0.00    +0.000 A 
ATOM      5  C   UNL     1      47.520   7.500  12.639  0.00  0.00    +0.000 A 
ATOM      6  C   UNL     1      46.520   6.823  11.935  0.00  0.00    +0.000 A 
ENDROOT
BRANCH   1   8
ATOM      7  O   UNL     1      44.061   4.362  12.280  0.00  0.00    +0.000 OA
ATOM      8  C   UNL     1      45.018   4.816  11.664  0.00  0.00    +0.000 C 
ATOM      9  N   UNL     1      45.222   4.637  10.316  0.00  0.00    +0.000 N 
ATOM     10  H   UNL     1      46.110   4.892   9.907  0.00  0.00    +0.000 HD
BRANCH   9  11
ATOM     11  C   UNL     1      44.310   3.847   9.522  0.00  0.00    +0.000 C 
BRANCH  11  12
ATOM     12  C   UNL     1      44.708   3.828   8.046  0.00  0.00    +0.000 C 
BRANCH  12  13
ATOM     13  C   UNL     1      46.001   3.028   7.807  0.00  0.00    +0.000 C 
ATOM     14  C   UNL     1      46.541   3.224   6.382  0.00  0.00    +0.000 C 
ATOM     15  C   UNL     1      47.732   2.319   6.114  0.00  0.00    +0.000 C 
ATOM     16  O   UNL     1      47.392   0.956   6.348  0.00  0.00    +0.000 OA
ATOM     17  C   UNL     1      47.021   0.725   7.706  0.00  0.00    +0.000 C 
ATOM     18  C   UNL     1      45.780   1.531   8.071  0.00  0.00    +0.000 C 
ENDBRANCH  12  13
ENDBRANCH  11  12
ENDBRANCH   9  11
ENDBRANCH   1   8
BRANCH   4  19
ATOM     19  C   UNL     1      49.160   7.678  14.562  0.00  0.00    +0.000 C 
BRANCH  19  20
ATOM     20  N   UNL     1      50.231   6.767  14.959  0.00  0.00    +0.000 NA
ATOM     21  H   UNL     1      51.094   7.059  14.497  0.00  0.00    +0.000 HD
BRANCH  20  22
ATOM     22  C   UNL     1      50.456   6.804  16.409  0.00  0.00    +0.000 C 
BRANCH  22  23
ATOM     23  C   UNL     1      49.741   5.669  17.119  0.00  0.00    +0.000 A 
ATOM     24  C   UNL     1      48.597   5.921  17.859  0.00  0.00    +0.000 A 
ATOM     25  C   UNL     1      48.009   4.834  18.465  0.00  0.00    +0.000 A 
ATOM     26  N   UNL     1      48.490   3.582  18.372  0.00  0.00    +0.000 NA
ATOM     27  C   UNL     1      49.598   3.443  17.629  0.00  0.00    +0.000 A 
ATOM     28  N   UNL     1      50.255   4.425  16.991  0.00  0.00    +0.000 NA
ENDBRANCH  22  23
ENDBRANCH  20  22
ENDBRANCH  19  20
ENDBRANCH   4  19
TORSDOF 8
ENDMDL
MODEL 6
REMARK VINA RESULT:    -6.948      1.616      2.873
REMARK INTER + INTRA:         -10.847
REMARK INTER:                 -10.385
REMARK INTRA:                  -0.461
REMARK UNBOUND:                -0.649
REMARK  Name = 
REMARK  8 active torsions:
REMARK  status: ('A' for Active; 'I' for Inactive)
REMARK    1  A    between atoms: C_2  and  C_12
REMARK    2  A    between atoms: N_3  and  C_4
REMARK    3  A    between atoms: C_4  and  C_5
REMARK    4  A    between atoms: C_5  and  C_6
REMARK    5  A    between atoms: C_15  and  C_16
REMARK    6  A    between atoms: C_16  and  N_17
REMARK    7  A    between atoms: N_17  and  C_18
REMARK    8  A    between atoms: C_18  and  C_19
REMARK                            x       y       z     vdW  Elec       q    Type
REMARK                         _______ _______ _______ _____ _____    ______ ____
ROOT
ATOM      1  C   UNL     1      46.693   4.646  13.811  0.00  0.00    +0.000 A 
ATOM      2  C   UNL     1      47.097   5.816  13.167  0.00  0.00    +0.000 A 
ATOM      3  C   UNL     1      46.528   6.171  11.941  0.00  0.00    +0.000 A 
ATOM      4  C   UNL     1      45.547   5.365  11.349  0.00  0.00    +0.000 A 
ATOM      5  C   UNL     1      45.132   4.201  12.013  0.00  0.00    +0.000 A 
ATOM      6  C   UNL     1      45.700   3.842  13.239  0.00  0.00    +0.000 A 
ENDROOT
BRANCH   1   8
ATOM      7  O   UNL     1      47.603   3.136  15.370  0.00  0.00    +0.000 OA
ATOM      8  C   UNL     1      47.328   4.302  15.110  0.00  0.00    +0.000 C 
ATOM      9  N   UNL     1      47.528   5.351  15.975  0.00  0.00    +0.000 N 
ATOM     10  H   UNL     1      47.127   6.255  15.766  0.00  0.00    +0.000 HD
BRANCH   9  11
ATOM     11  C   UNL     1      48.061   5.135  17.300  0.00  0.00    +0.000 C 
BRANCH  11  12
ATOM     12  C   UNL     1      48.411   6.450  17.996  0.00  0.00    +0.000 C 
BRANCH  12  13
ATOM     13  C   UNL     1      49.615   7.149  17.341  0.00  0.00    +0.000 C 
ATOM     14  C   UNL     1      49.184   8.086  16.202  0.00  0.00    +0.000 C 
ATOM     15  C   UNL     1      50.389   8.655  15.470  0.00  0.00    +0.000 C 
ATOM     16  O   UNL     1      51.224   7.608  14.983  0.00  0.00    +0.000 OA
ATOM     17  C   UNL     1      51.749   6.809  16.041  0.00  0.00    +0.000 C 
ATOM     18  C   UNL     1      50.624   6.120  16.807  0.00  0.00    +0.000 C 
ENDBRANCH  12  13
ENDBRANCH  11  12
ENDBRANCH   9  11
ENDBRANCH   1   8
BRANCH   4  19
ATOM     19  C   UNL     1      44.926   5.757  10.025  0.00  0.00    +0.000 C 
BRANCH  19  20
ATOM     20  N   UNL     1      45.685   5.197   8.909  0.00  0.00    +0.000 NA
ATOM     21  H   UNL     1      46.590   4.877   9.260  0.00  0.00    +0.000 HD
BRANCH  20  22
ATOM     22  C   UNL     1      44.994   4.047   8.314  0.00  0.00    +0.000 C 
BRANCH  22  23
ATOM     23  C   UNL     1      45.971   3.059   7.703  0.00  0.00    +0.000 A 
ATOM     24  C   UNL     1      46.687   3.398   6.567  0.00  0.00    +0.000 A 
ATOM     25  C   UNL     1      47.553   2.445   6.082  0.00  0.00    +0.000 A 
ATOM     26  N   UNL     1      47.722   1.238   6.649  0.00  0.00    +0.000 NA
ATOM     27  C   UNL     1      46.985   1.008   7.746  0.00  0.00    +0.000 A 
ATOM     28  N   UNL     1      46.114   1.859   8.310  0.00  0.00    +0.000 NA
ENDBRANCH  22  23
ENDBRANCH  20  22
ENDBRANCH  19  20
ENDBRANCH   4  19
TORSDOF 8
ENDMDL
MODEL 7
REMARK VINA RESULT:    -6.822      2.185      2.785
REMARK INTER + INTRA:         -10.662
REMARK INTER:                  -9.940
REMARK INTRA:                  -0.723
REMARK UNBOUND:                -0.649
REMARK  Name = 
REMARK  8 active torsions:
REMARK  status: ('A' for Active; 'I' for Inactive)
REMARK    1  A    between atoms: C_2  and  C_12
REMARK    2  A    between atoms: N_3  and  C_4
REMARK    3  A    between atoms: C_4  and  C_5
REMARK    4  A    between atoms: C_5  and  C_6
REMARK    5  A    between atoms: C_15  and  C_16
REMARK    6  A    between atoms: C_16  and  N_17
REMARK    7  A    between atoms: N_17  and  C_18
REMARK    8  A    between atoms: C_18  and  C_19
REMARK                            x       y       z     vdW  Elec       q    Type
REMARK                         _______ _______ _______ _____ _____    ______ ____
ROOT
ATOM      1  C   UNL     1      46.921   5.671  12.870  0.00  0.00    +0.000 A 
ATOM      2  C   UNL     1      46.595   6.426  11.742  0.00  0.00    +0.000 A 
ATOM      3  C   UNL     1      45.549   6.021  10.909  0.00  0.00    +0.000 A 
ATOM      4  C   UNL     1      44.814   4.862  11.196  0.00  0.00    +0.000 A 
ATOM      5  C   UNL     1      45.136   4.121  12.344  0.00  0.00    +0.000 A 
ATOM      6  C   UNL     1      46.183   4.523  13.179  0.00  0.00    +0.000 A 
ENDROOT
BRANCH   1   8
ATOM      7  O   UNL     1      48.192   5.671  14.851  0.00  0.00    +0.000 OA
ATOM      8  C   UNL     1      48.045   6.133  13.725  0.00  0.00    +0.000 C 
ATOM      9  N   UNL     1      48.843   7.115  13.186  0.00  0.00    +0.000 N 
ATOM     10  H   UNL     1      48.566   7.567  12.325  0.00  0.00    +0.000 HD
BRANCH   9  11
ATOM     11  C   UNL     1      49.917   7.706  13.949  0.00  0.00    +0.000 C 
BRANCH  11  12
ATOM     12  C   UNL     1      49.399   8.700  14.989  0.00  0.00    +0.000 C 
BRANCH  12  13
ATOM     13  C   UNL     1      49.936   8.394  16.398  0.00  0.00    +0.000 C 
ATOM     14  C   UNL     1      50.836   7.148  16.411  0.00  0.00    +0.000 C 
ATOM     15  C   UNL     1      51.240   6.774  17.828  0.00  0.00    +0.000 C 
ATOM     16  O   UNL     1      50.089   6.583  18.646  0.00  0.00    +0.000 OA
ATOM     17  C   UNL     1      49.312   7.773  18.761  0.00  0.00    +0.000 C 
ATOM     18  C   UNL     1      48.785   8.207  17.398  0.00  0.00    +0.000 C 
ENDBRANCH  12  13
ENDBRANCH  11  12
ENDBRANCH   9  11
ENDBRANCH   1   8
BRANCH   4  19
ATOM     19  C   UNL     1      43.675   4.430  10.297  0.00  0.00    +0.000 C 
BRANCH  19  20
ATOM     20  N   UNL     1      44.114   3.395   9.365  0.00  0.00    +0.000 NA
ATOM     21  H   UNL     1      43.288   2.932   8.981  0.00  0.00    +0.000 HD
BRANCH  20  22
ATOM     22  C   UNL     1      44.877   3.967   8.249  0.00  0.00    +0.000 C 
BRANCH  22  23
ATOM     23  C   UNL     1      45.948   3.014   7.751  0.00  0.00    +0.000 A 
ATOM     24  C   UNL     1      46.883   3.439   6.823  0.00  0.00    +0.000 A 
ATOM     25  C   UNL     1      47.821   2.512   6.429  0.00  0.00    +0.000 A 
ATOM     26  N   UNL     1      47.859   1.251   6.895  0.00  0.00    +0.000 NA
ATOM     27  C   UNL     1      46.912   0.939   7.793  0.00  0.00    +0.000 A 
ATOM     28  N   UNL     1      45.952   1.757   8.252  0.00  0.00    +0.000 NA
ENDBRANCH  22  23
ENDBRANCH  20  22
ENDBRANCH  19  20
ENDBRANCH   4  19
TORSDOF 8
ENDMDL
MODEL 8
REMARK VINA RESULT:    -6.591      1.863      2.492
REMARK INTER + INTRA:         -10.323
REMARK INTER:                  -9.715
REMARK INTRA:                  -0.607
REMARK UNBOUND:                -0.649
REMARK  Name = 
REMARK  8 active torsions:
REMARK  status: ('A' for Active; 'I' for Inactive)
REMARK    1  A    between atoms: C_2  and  C_12
REMARK    2  A    between atoms: N_3  and  C_4
REMARK    3  A    between atoms: C_4  and  C_5
REMARK    4  A    between atoms: C_5  and  C_6
REMARK    5  A    between atoms: C_15  and  C_16
REMARK    6  A    between atoms: C_16  and  N_17
REMARK    7  A    between atoms: N_17  and  C_18
REMARK    8  A    between atoms: C_18  and  C_19
REMARK                            x       y       z     vdW  Elec       q    Type
REMARK                         _______ _______ _______ _____ _____    ______ ____
ROOT
ATOM      1  C   UNL     1      46.999   7.935  13.104  0.00  0.00    +0.000 A 
ATOM      2  C   UNL     1      47.395   6.610  12.909  0.00  0.00    +0.000 A 
ATOM      3  C   UNL     1      46.632   5.767  12.097  0.00  0.00    +0.000 A 
ATOM      4  C   UNL     1      45.471   6.237  11.469  0.00  0.00    +0.000 A 
ATOM      5  C   UNL     1      45.093   7.576  11.655  0.00  0.00    +0.000 A 
ATOM      6  C   UNL     1      45.852   8.423  12.468  0.00  0.00    +0.000 A 
ENDROOT
BRANCH   1   8
ATOM      7  O   UNL     1      48.746   9.460  13.502  0.00  0.00    +0.000 OA
ATOM      8  C   UNL     1      47.835   8.796  13.981  0.00  0.00    +0.000 C 
ATOM      9  N   UNL     1      47.539   8.751  15.323  0.00  0.00    +0.000 N 
ATOM     10  H   UNL     1      46.888   8.058  15.668  0.00  0.00    +0.000 HD
BRANCH   9  11
ATOM     11  C   UNL     1      48.331   9.478  16.287  0.00  0.00    +0.000 C 
BRANCH  11  12
ATOM     12  C   UNL     1      48.155   8.927  17.703  0.00  0.00    +0.000 C 
BRANCH  12  13
ATOM     13  C   UNL     1      48.313   7.397  17.751  0.00  0.00    +0.000 C 
ATOM     14  C   UNL     1      47.962   6.828  19.134  0.00  0.00    +0.000 C 
ATOM     15  C   UNL     1      48.261   5.339  19.210  0.00  0.00    +0.000 C 
ATOM     16  O   UNL     1      49.622   5.081  18.881  0.00  0.00    +0.000 OA
ATOM     17  C   UNL     1      49.932   5.476  17.546  0.00  0.00    +0.000 C 
ATOM     18  C   UNL     1      49.740   6.978  17.369  0.00  0.00    +0.000 C 
ENDBRANCH  12  13
ENDBRANCH  11  12
ENDBRANCH   9  11
ENDBRANCH   1   8
BRANCH   4  19
ATOM     19  C   UNL     1      44.651   5.324  10.582  0.00  0.00    +0.000 C 
BRANCH  19  20
ATOM     20  N   UNL     1      45.388   4.980   9.369  0.00  0.00    +0.000 NA
ATOM     21  H   UNL     1      46.356   4.777   9.623  0.00  0.00    +0.000 HD
BRANCH  20  22
ATOM     22  C   UNL     1      44.828   3.788   8.721  0.00  0.00    +0.000 C 
BRANCH  22  23
ATOM     23  C   UNL     1      45.906   2.946   8.063  0.00  0.00    +0.000 A 
ATOM     24  C   UNL     1      46.850   3.539   7.242  0.00  0.00    +0.000 A 
ATOM     25  C   UNL     1      47.793   2.703   6.690  0.00  0.00    +0.000 A 
ATOM     26  N   UNL     1      47.829   1.377   6.909  0.00  0.00    +0.000 NA
ATOM     27  C   UNL     1      46.874   0.901   7.722  0.00  0.00    +0.000 A 
ATOM     28  N   UNL     1      45.908   1.617   8.317  0.00  0.00    +0.000 NA
ENDBRANCH  22  23
ENDBRANCH  20  22
ENDBRANCH  19  20
ENDBRANCH   4  19
TORSDOF 8
ENDMDL
MODEL 9
REMARK VINA RESULT:    -6.561      1.769      2.473
REMARK INTER + INTRA:         -10.278
REMARK INTER:                  -9.719
REMARK INTRA:                  -0.559
REMARK UNBOUND:                -0.649
REMARK  Name = 
REMARK  8 active torsions:
REMARK  status: ('A' for Active; 'I' for Inactive)
REMARK    1  A    between atoms: C_2  and  C_12
REMARK    2  A    between atoms: N_3  and  C_4
REMARK    3  A    between atoms: C_4  and  C_5
REMARK    4  A    between atoms: C_5  and  C_6
REMARK    5  A    between atoms: C_15  and  C_16
REMARK    6  A    between atoms: C_16  and  N_17
REMARK    7  A    between atoms: N_17  and  C_18
REMARK    8  A    between atoms: C_18  and  C_19
REMARK                            x       y       z     vdW  Elec       q    Type
REMARK                         _______ _______ _______ _____ _____    ______ ____
ROOT
ATOM      1  C   UNL     1      46.487   6.159  12.912  0.00  0.00    +0.000 A 
ATOM      2  C   UNL     1      46.534   6.517  11.564  0.00  0.00    +0.000 A 
ATOM      3  C   UNL     1      45.608   5.979  10.666  0.00  0.00    +0.000 A 
ATOM      4  C   UNL     1      44.624   5.083  11.105  0.00  0.00    +0.000 A 
ATOM      5  C   UNL     1      44.572   4.745  12.467  0.00  0.00    +0.000 A 
ATOM      6  C   UNL     1      45.498   5.280  13.368  0.00  0.00    +0.000 A 
ENDROOT
BRANCH   1   8
ATOM      7  O   UNL     1      48.009   7.829  13.569  0.00  0.00    +0.000 OA
ATOM      8  C   UNL     1      47.494   6.749  13.832  0.00  0.00    +0.000 C 
ATOM      9  N   UNL     1      47.818   5.989  14.932  0.00  0.00    +0.000 N 
ATOM     10  H   UNL     1      47.481   5.038  14.999  0.00  0.00    +0.000 HD
BRANCH   9  11
ATOM     11  C   UNL     1      48.842   6.414  15.857  0.00  0.00    +0.000 C 
BRANCH  11  12
ATOM     12  C   UNL     1      48.970   5.459  17.045  0.00  0.00    +0.000 C 
BRANCH  12  13
ATOM     13  C   UNL     1      50.031   5.932  18.054  0.00  0.00    +0.000 C 
ATOM     14  C   UNL     1      50.427   7.399  17.825  0.00  0.00    +0.000 C 
ATOM     15  C   UNL     1      51.577   7.808  18.732  0.00  0.00    +0.000 C 
ATOM     16  O   UNL     1      52.693   6.942  18.551  0.00  0.00    +0.000 OA
ATOM     17  C   UNL     1      52.384   5.593  18.893  0.00  0.00    +0.000 C 
ATOM     18  C   UNL     1      51.284   5.045  17.991  0.00  0.00    +0.000 C 
ENDBRANCH  12  13
ENDBRANCH  11  12
ENDBRANCH   9  11
ENDBRANCH   1   8
BRANCH   4  19
ATOM     19  C   UNL     1      43.616   4.508  10.133  0.00  0.00    +0.000 C 
BRANCH  19  20
ATOM     20  N   UNL     1      44.179   3.365   9.417  0.00  0.00    +0.000 NA
ATOM     21  H   UNL     1      43.436   2.682   9.260  0.00  0.00    +0.000 HD
BRANCH  20  22
ATOM     22  C   UNL     1      44.718   3.763   8.111  0.00  0.00    +0.000 C 
BRANCH  22  23
ATOM     23  C   UNL     1      45.876   2.878   7.687  0.00  0.00    +0.000 A 
ATOM     24  C   UNL     1      46.893   3.392   6.899  0.00  0.00    +0.000 A 
ATOM     25  C   UNL     1      47.906   2.522   6.564  0.00  0.00    +0.000 A 
ATOM     26  N   UNL     1      47.942   1.237   6.958  0.00  0.00    +0.000 NA
ATOM     27  C   UNL     1      46.913   0.839   7.721  0.00  0.00    +0.000 A 
ATOM     28  N   UNL     1      45.875   1.594   8.112  0.00  0.00    +0.000 NA
ENDBRANCH  22  23
ENDBRANCH  20  22
ENDBRANCH  19  20
ENDBRANCH   4  19
TORSDOF 8
ENDMDL
