MODEL 1
REMARK VINA RESULT:    -7.122      0.000      0.000
REMARK INTER + INTRA:         -11.461
REMARK INTER:                 -10.661
REMARK INTRA:                  -0.799
REMARK UNBOUND:                -0.799
REMARK  Name = 
REMARK  10 active torsions:
REMARK  status: ('A' for Active; 'I' for Inactive)
REMARK    1  A    between atoms: C_1  and  C_2
REMARK    2  A    between atoms: C_2  and  N_3
REMARK    3  A    between atoms: N_3  and  C_4
REMARK    4  A    between atoms: C_7  and  C_8
REMARK    5  A    between atoms: C_8  and  C_9
REMARK    6  A    between atoms: C_9  and  C_10
REMARK    7  A    between atoms: C_14  and  C_15
REMARK    8  A    between atoms: C_15  and  N_16
REMARK    9  A    between atoms: C_19  and  C_20
REMARK   10  A    between atoms: C_21  and  C_22
REMARK                            x       y       z     vdW  Elec       q    Type
REMARK                         _______ _______ _______ _____ _____    ______ ____
ROOT
ATOM      1  C   UNL     1      46.601   5.125  13.668  0.00  0.00    +0.000 A 
ATOM      2  C   UNL     1      45.878   3.929  13.612  0.00  0.00    +0.000 A 
ATOM      3  N   UNL     1      45.033   3.551  12.615  0.00  0.00    +0.000 NA
ATOM      4  C   UNL     1      44.832   4.424  11.608  0.00  0.00    +0.000 A 
ATOM      5  C   UNL     1      45.437   5.673  11.603  0.00  0.00    +0.000 A 
ATOM      6  C   UNL     1      46.330   6.027  12.625  0.00  0.00    +0.000 A 
ENDROOT
BRANCH   1   7
ATOM      7  N   UNL     1      47.433   5.480  14.746  0.00  0.00    +0.000 N 
ATOM      8  H   UNL     1      48.356   5.754  14.416  0.00  0.00    +0.000 HD
BRANCH   7  10
ATOM      9  C   UNL     1      48.533   5.045  16.880  0.00  0.00    +0.000 C 
ATOM     10  C   UNL     1      47.481   4.574  15.892  0.00  0.00    +0.000 C 
ENDBRANCH   7  10
ENDBRANCH   1   7
BRANCH   6  11
ATOM     11  C   UNL     1      46.952   7.351  12.479  0.00  0.00    +0.000 C 
ATOM     12  C   UNL     1      48.151   7.515  11.902  0.00  0.00    +0.000 C 
BRANCH  12  13
ATOM     13  C   UNL     1      48.931   8.790  11.944  0.00  0.00    +0.000 C 
ATOM     14  F   UNL     1      49.996   8.753  11.095  0.00  0.00    +0.000 F 
ENDBRANCH  12  13
ENDBRANCH   6  11
BRANCH   4  15
ATOM     15  C   UNL     1      43.870   3.994  10.528  0.00  0.00    +0.000 C 
BRANCH  15  16
ATOM     16  C   UNL     1      44.300   4.363   9.105  0.00  0.00    +0.000 C 
BRANCH  16  17
ATOM     17  C   UNL     1      45.144   3.279   8.487  0.00  0.00    +0.000 A 
ATOM     18  C   UNL     1      45.160   1.991   9.023  0.00  0.00    +0.000 A 
ATOM     19  C   UNL     1      45.918   0.990   8.417  0.00  0.00    +0.000 A 
ATOM     20  C   UNL     1      46.662   1.269   7.267  0.00  0.00    +0.000 A 
ATOM     21  C   UNL     1      46.656   2.553   6.712  0.00  0.00    +0.000 A 
ATOM     22  C   UNL     1      45.900   3.554   7.338  0.00  0.00    +0.000 A 
BRANCH  21  23
ATOM     23  C   UNL     1      47.450   2.872   5.470  0.00  0.00    +0.000 C 
BRANCH  23  24
ATOM     24  N   UNL     1      48.524   1.905   5.260  0.00  0.00    +0.000 NA
ATOM     25  H   UNL     1      48.620   1.338   6.101  0.00  0.00    +0.000 HD
ATOM     26  H   UNL     1      49.404   2.400   5.139  0.00  0.00    +0.000 HD
ENDBRANCH  23  24
ENDBRANCH  21  23
ENDBRANCH  16  17
ENDBRANCH  15  16
ENDBRANCH   4  15
TORSDOF 9
ENDMDL
MODEL 2
REMARK VINA RESULT:    -7.096      1.918      2.752
REMARK INTER + INTRA:         -11.421
REMARK INTER:                 -10.342
REMARK INTRA:                  -1.079
REMARK UNBOUND:                -0.799
REMARK  Name = 
REMARK  10 active torsions:
REMARK  status: ('A' for Active; 'I' for Inactive)
REMARK    1  A    between atoms: C_1  and  C_2
REMARK    2  A    between atoms: C_2  and  N_3
REMARK    3  A    between atoms: N_3  and  C_4
REMARK    4  A    between atoms: C_7  and  C_8
REMARK    5  A    between atoms: C_8  and  C_9
REMARK    6  A    between atoms: C_9  and  C_10
REMARK    7  A    between atoms: C_14  and  C_15
REMARK    8  A    between atoms: C_15  and  N_16
REMARK    9  A    between atoms: C_19  and  C_20
REMARK   10  A    between atoms: C_21  and  C_22
REMARK                            x       y       z     vdW  Elec       q    Type
REMARK                         _______ _______ _______ _____ _____    ______ ____
ROOT
ATOM      1  C   UNL     1      46.905   5.913  13.697  0.00  0.00    +0.000 A 
ATOM      2  C   UNL     1      47.046   4.542  13.935  0.00  0.00    +0.000 A 
ATOM      3  N   UNL     1      46.290   3.552  13.387  0.00  0.00    +0.000 NA
ATOM      4  C   UNL     1      45.280   3.921  12.575  0.00  0.00    +0.000 A 
ATOM      5  C   UNL     1      45.000   5.258  12.331  0.00  0.00    +0.000 A 
ATOM      6  C   UNL     1      45.814   6.259  12.883  0.00  0.00    +0.000 A 
ENDROOT
BRANCH   1   7
ATOM      7  N   UNL     1      47.693   6.894  14.324  0.00  0.00    +0.000 N 
ATOM      8  H   UNL     1      47.222   7.797  14.316  0.00  0.00    +0.000 HD
BRANCH   7  10
ATOM      9  C   UNL     1      49.218   7.406  12.490  0.00  0.00    +0.000 C 
ATOM     10  C   UNL     1      49.101   6.980  13.943  0.00  0.00    +0.000 C 
ENDBRANCH   7  10
ENDBRANCH   1   7
BRANCH   6  11
ATOM     11  C   UNL     1      45.452   7.634  12.506  0.00  0.00    +0.000 C 
ATOM     12  C   UNL     1      44.483   7.898  11.617  0.00  0.00    +0.000 C 
BRANCH  12  13
ATOM     13  C   UNL     1      44.241   9.248  11.022  0.00  0.00    +0.000 C 
ATOM     14  F   UNL     1      44.218  10.219  11.977  0.00  0.00    +0.000 F 
ENDBRANCH  12  13
ENDBRANCH   6  11
BRANCH   4  15
ATOM     15  C   UNL     1      44.439   2.808  12.000  0.00  0.00    +0.000 C 
BRANCH  15  16
ATOM     16  C   UNL     1      43.726   3.157  10.690  0.00  0.00    +0.000 C 
BRANCH  16  17
ATOM     17  C   UNL     1      44.697   3.244   9.541  0.00  0.00    +0.000 A 
ATOM     18  C   UNL     1      45.038   4.477   8.984  0.00  0.00    +0.000 A 
ATOM     19  C   UNL     1      45.967   4.543   7.947  0.00  0.00    +0.000 A 
ATOM     20  C   UNL     1      46.566   3.377   7.463  0.00  0.00    +0.000 A 
ATOM     21  C   UNL     1      46.242   2.131   8.011  0.00  0.00    +0.000 A 
ATOM     22  C   UNL     1      45.296   2.077   9.045  0.00  0.00    +0.000 A 
BRANCH  21  23
ATOM     23  C   UNL     1      46.880   0.863   7.503  0.00  0.00    +0.000 C 
BRANCH  23  24
ATOM     24  N   UNL     1      47.974   1.148   6.579  0.00  0.00    +0.000 NA
ATOM     25  H   UNL     1      48.582   0.333   6.534  0.00  0.00    +0.000 HD
ATOM     26  H   UNL     1      48.535   1.912   6.948  0.00  0.00    +0.000 HD
ENDBRANCH  23  24
ENDBRANCH  21  23
ENDBRANCH  16  17
ENDBRANCH  15  16
ENDBRANCH   4  15
TORSDOF 9
ENDMDL
MODEL 3
REMARK VINA RESULT:    -7.089      2.182      3.323
REMARK INTER + INTRA:         -11.412
REMARK INTER:                 -10.614
REMARK INTRA:                  -0.798
REMARK UNBOUND:                -0.799
REMARK  Name = 
REMARK  10 active torsions:
REMARK  status: ('A' for Active; 'I' for Inactive)
REMARK    1  A    between atoms: C_1  and  C_2
REMARK    2  A    between atoms: C_2  and  N_3
REMARK    3  A    between atoms: N_3  and  C_4
REMARK    4  A    between atoms: C_7  and  C_8
REMARK    5  A    between atoms: C_8  and  C_9
REMARK    6  A    between atoms: C_9  and  C_10
REMARK    7  A    between atoms: C_14  and  C_15
REMARK    8  A    between atoms: C_15  and  N_16
REMARK    9  A    between atoms: C_19  and  C_20
REMARK   10  A    between atoms: C_21  and  C_22
REMARK                            x       y       z     vdW  Elec       q    Type
REMARK                         _______ _______ _______ _____ _____    ______ ____
ROOT
ATOM      1  C   UNL     1      46.153   7.108  13.002  0.00  0.00    +0.000 A 
ATOM      2  C   UNL     1      45.288   7.400  11.944  0.00  0.00    +0.000 A 
ATOM      3  N   UNL     1      44.604   6.493  11.195  0.00  0.00    +0.000 NA
ATOM      4  C   UNL     1      44.811   5.189  11.461  0.00  0.00    +0.000 A 
ATOM      5  C   UNL     1      45.709   4.784  12.437  0.00  0.00    +0.000 A 
ATOM      6  C   UNL     1      46.378   5.738  13.218  0.00  0.00    +0.000 A 
ENDROOT
BRANCH   1   7
ATOM      7  N   UNL     1      46.864   8.089  13.717  0.00  0.00    +0.000 N 
ATOM      8  H   UNL     1      46.235   8.642  14.296  0.00  0.00    +0.000 HD
BRANCH   7  10
ATOM      9  C   UNL     1      48.777   8.007  12.204  0.00  0.00    +0.000 C 
ATOM     10  C   UNL     1      47.826   8.904  12.978  0.00  0.00    +0.000 C 
ENDBRANCH   7  10
ENDBRANCH   1   7
BRANCH   6  11
ATOM     11  C   UNL     1      47.259   5.187  14.258  0.00  0.00    +0.000 C 
ATOM     12  C   UNL     1      46.859   4.212  15.087  0.00  0.00    +0.000 C 
BRANCH  12  13
ATOM     13  C   UNL     1      47.616   3.787  16.304  0.00  0.00    +0.000 C 
ATOM     14  F   UNL     1      46.780   3.339  17.282  0.00  0.00    +0.000 F 
ENDBRANCH  12  13
ENDBRANCH   6  11
BRANCH   4  15
ATOM     15  C   UNL     1      44.063   4.200  10.599  0.00  0.00    +0.000 C 
BRANCH  15  16
ATOM     16  C   UNL     1      44.246   4.400   9.091  0.00  0.00    +0.000 C 
BRANCH  16  17
ATOM     17  C   UNL     1      45.105   3.316   8.493  0.00  0.00    +0.000 A 
ATOM     18  C   UNL     1      45.127   2.034   9.044  0.00  0.00    +0.000 A 
ATOM     19  C   UNL     1      45.897   1.032   8.456  0.00  0.00    +0.000 A 
ATOM     20  C   UNL     1      46.648   1.304   7.309  0.00  0.00    +0.000 A 
ATOM     21  C   UNL     1      46.637   2.581   6.738  0.00  0.00    +0.000 A 
ATOM     22  C   UNL     1      45.867   3.583   7.347  0.00  0.00    +0.000 A 
BRANCH  21  23
ATOM     23  C   UNL     1      47.438   2.892   5.499  0.00  0.00    +0.000 C 
BRANCH  23  24
ATOM     24  N   UNL     1      48.519   1.929   5.307  0.00  0.00    +0.000 NA
ATOM     25  H   UNL     1      48.118   1.054   4.974  0.00  0.00    +0.000 HD
ATOM     26  H   UNL     1      48.955   1.730   6.203  0.00  0.00    +0.000 HD
ENDBRANCH  23  24
ENDBRANCH  21  23
ENDBRANCH  16  17
ENDBRANCH  15  16
ENDBRANCH   4  15
TORSDOF 9
ENDMDL
MODEL 4
REMARK VINA RESULT:    -6.694      2.046      3.299
REMARK INTER + INTRA:         -10.820
REMARK INTER:                 -10.229
REMARK INTRA:                  -0.591
REMARK UNBOUND:                -0.799
REMARK  Name = 
REMARK  10 active torsions:
REMARK  status: ('A' for Active; 'I' for Inactive)
REMARK    1  A    between atoms: C_1  and  C_2
REMARK    2  A    between atoms: C_2  and  N_3
REMARK    3  A    between atoms: N_3  and  C_4
REMARK    4  A    between atoms: C_7  and  C_8
REMARK    5  A    between atoms: C_8  and  C_9
REMARK    6  A    between atoms: C_9  and  C_10
REMARK    7  A    between atoms: C_14  and  C_15
REMARK    8  A    between atoms: C_15  and  N_16
REMARK    9  A    between atoms: C_19  and  C_20
REMARK   10  A    between atoms: C_21  and  C_22
REMARK                            x       y       z     vdW  Elec       q    Type
REMARK                         _______ _______ _______ _____ _____    ______ ____
ROOT
ATOM      1  C   UNL     1      44.722   7.347  12.030  0.00  0.00    +0.000 A 
ATOM      2  C   UNL     1      43.602   6.616  11.621  0.00  0.00    +0.000 A 
ATOM      3  N   UNL     1      43.530   5.263  11.500  0.00  0.00    +0.000 NA
ATOM      4  C   UNL     1      44.650   4.558  11.750  0.00  0.00    +0.000 A 
ATOM      5  C   UNL     1      45.840   5.187  12.087  0.00  0.00    +0.000 A 
ATOM      6  C   UNL     1      45.881   6.581  12.237  0.00  0.00    +0.000 A 
ENDROOT
BRANCH   1   7
ATOM      7  N   UNL     1      44.749   8.752  12.100  0.00  0.00    +0.000 N 
ATOM      8  H   UNL     1      44.576   9.071  13.051  0.00  0.00    +0.000 HD
BRANCH   7  10
ATOM      9  C   UNL     1      44.459  10.938  11.056  0.00  0.00    +0.000 C 
ATOM     10  C   UNL     1      43.987   9.495  11.098  0.00  0.00    +0.000 C 
ENDBRANCH   7  10
ENDBRANCH   1   7
BRANCH   6  11
ATOM     11  C   UNL     1      47.182   7.125  12.652  0.00  0.00    +0.000 C 
ATOM     12  C   UNL     1      48.142   7.430  11.767  0.00  0.00    +0.000 C 
BRANCH  12  13
ATOM     13  C   UNL     1      49.553   7.753  12.143  0.00  0.00    +0.000 C 
ATOM     14  F   UNL     1      50.420   7.455  11.135  0.00  0.00    +0.000 F 
ENDBRANCH  12  13
ENDBRANCH   6  11
BRANCH   4  15
ATOM     15  C   UNL     1      44.553   3.061  11.583  0.00  0.00    +0.000 C 
BRANCH  15  16
ATOM     16  C   UNL     1      44.041   2.602  10.215  0.00  0.00    +0.000 C 
BRANCH  16  17
ATOM     17  C   UNL     1      45.020   2.938   9.120  0.00  0.00    +0.000 A 
ATOM     18  C   UNL     1      45.196   4.255   8.695  0.00  0.00    +0.000 A 
ATOM     19  C   UNL     1      46.133   4.553   7.707  0.00  0.00    +0.000 A 
ATOM     20  C   UNL     1      46.905   3.535   7.140  0.00  0.00    +0.000 A 
ATOM     21  C   UNL     1      46.747   2.209   7.554  0.00  0.00    +0.000 A 
ATOM     22  C   UNL     1      45.792   1.921   8.540  0.00  0.00    +0.000 A 
BRANCH  21  23
ATOM     23  C   UNL     1      47.574   1.098   6.956  0.00  0.00    +0.000 C 
BRANCH  23  24
ATOM     24  N   UNL     1      48.412   1.586   5.864  0.00  0.00    +0.000 NA
ATOM     25  H   UNL     1      48.212   2.574   5.717  0.00  0.00    +0.000 HD
ATOM     26  H   UNL     1      48.158   1.105   5.005  0.00  0.00    +0.000 HD
ENDBRANCH  23  24
ENDBRANCH  21  23
ENDBRANCH  16  17
ENDBRANCH  15  16
ENDBRANCH   4  15
TORSDOF 9
ENDMDL
MODEL 5
REMARK VINA RESULT:    -6.329      2.590      3.062
REMARK INTER + INTRA:         -10.273
REMARK INTER:                  -9.557
REMARK INTRA:                  -0.716
REMARK UNBOUND:                -0.799
REMARK  Name = 
REMARK  10 active torsions:
REMARK  status: ('A' for Active; 'I' for Inactive)
REMARK    1  A    between atoms: C_1  and  C_2
REMARK    2  A    between atoms: C_2  and  N_3
REMARK    3  A    between atoms: N_3  and  C_4
REMARK    4  A    between atoms: C_7  and  C_8
REMARK    5  A    between atoms: C_8  and  C_9
REMARK    6  A    between atoms: C_9  and  C_10
REMARK    7  A    between atoms: C_14  and  C_15
REMARK    8  A    between atoms: C_15  and  N_16
REMARK    9  A    between atoms: C_19  and  C_20
REMARK   10  A    between atoms: C_21  and  C_22
REMARK                            x       y       z     vdW  Elec       q    Type
REMARK                         _______ _______ _______ _____ _____    ______ ____
ROOT
ATOM      1  C   UNL     1      46.024   7.660  12.955  0.00  0.00    +0.000 A 
ATOM      2  C   UNL     1      46.190   6.288  13.171  0.00  0.00    +0.000 A 
ATOM      3  N   UNL     1      45.624   5.289  12.442  0.00  0.00    +0.000 NA
ATOM      4  C   UNL     1      44.788   5.644  11.447  0.00  0.00    +0.000 A 
ATOM      5  C   UNL     1      44.490   6.975  11.195  0.00  0.00    +0.000 A 
ATOM      6  C   UNL     1      45.110   7.989  11.940  0.00  0.00    +0.000 A 
ENDROOT
BRANCH   1   7
ATOM      7  N   UNL     1      46.605   8.649  13.768  0.00  0.00    +0.000 N 
ATOM      8  H   UNL     1      46.076   9.518  13.715  0.00  0.00    +0.000 HD
BRANCH   7  10
ATOM      9  C   UNL     1      48.597   9.361  14.985  0.00  0.00    +0.000 C 
ATOM     10  C   UNL     1      48.049   8.851  13.664  0.00  0.00    +0.000 C 
ENDBRANCH   7  10
ENDBRANCH   1   7
BRANCH   6  11
ATOM     11  C   UNL     1      44.758   9.360  11.542  0.00  0.00    +0.000 C 
ATOM     12  C   UNL     1      43.653   9.634  10.834  0.00  0.00    +0.000 C 
BRANCH  12  13
ATOM     13  C   UNL     1      43.374  10.960  10.201  0.00  0.00    +0.000 C 
ATOM     14  F   UNL     1      43.331  11.958  11.127  0.00  0.00    +0.000 F 
ENDBRANCH  12  13
ENDBRANCH   6  11
BRANCH   4  15
ATOM     15  C   UNL     1      44.151   4.518  10.670  0.00  0.00    +0.000 C 
BRANCH  15  16
ATOM     16  C   UNL     1      44.346   4.598   9.153  0.00  0.00    +0.000 C 
BRANCH  16  17
ATOM     17  C   UNL     1      45.187   3.456   8.645  0.00  0.00    +0.000 A 
ATOM     18  C   UNL     1      44.904   2.140   9.011  0.00  0.00    +0.000 A 
ATOM     19  C   UNL     1      45.668   1.091   8.503  0.00  0.00    +0.000 A 
ATOM     20  C   UNL     1      46.719   1.351   7.619  0.00  0.00    +0.000 A 
ATOM     21  C   UNL     1      47.017   2.662   7.235  0.00  0.00    +0.000 A 
ATOM     22  C   UNL     1      46.248   3.709   7.764  0.00  0.00    +0.000 A 
BRANCH  21  23
ATOM     23  C   UNL     1      48.145   2.961   6.280  0.00  0.00    +0.000 C 
BRANCH  23  24
ATOM     24  N   UNL     1      48.418   1.825   5.404  0.00  0.00    +0.000 NA
ATOM     25  H   UNL     1      48.012   2.015   4.489  0.00  0.00    +0.000 HD
ATOM     26  H   UNL     1      47.948   1.000   5.767  0.00  0.00    +0.000 HD
ENDBRANCH  23  24
ENDBRANCH  21  23
ENDBRANCH  16  17
ENDBRANCH  15  16
ENDBRANCH   4  15
TORSDOF 9
ENDMDL
MODEL 6
REMARK VINA RESULT:    -5.871      3.767      8.265
REMARK INTER + INTRA:          -9.589
REMARK INTER:                  -8.779
REMARK INTRA:                  -0.809
REMARK UNBOUND:                -0.799
REMARK  Name = 
REMARK  10 active torsions:
REMARK  status: ('A' for Active; 'I' for Inactive)
REMARK    1  A    between atoms: C_1  and  C_2
REMARK    2  A    between atoms: C_2  and  N_3
REMARK    3  A    between atoms: N_3  and  C_4
REMARK    4  A    between atoms: C_7  and  C_8
REMARK    5  A    between atoms: C_8  and  C_9
REMARK    6  A    between atoms: C_9  and  C_10
REMARK    7  A    between atoms: C_14  and  C_15
REMARK    8  A    between atoms: C_15  and  N_16
REMARK    9  A    between atoms: C_19  and  C_20
REMARK   10  A    between atoms: C_21  and  C_22
REMARK                            x       y       z     vdW  Elec       q    Type
REMARK                         _______ _______ _______ _____ _____    ______ ____
ROOT
ATOM      1  C   UNL     1      47.490   6.292  13.126  0.00  0.00    +0.000 A 
ATOM      2  C   UNL     1      48.303   6.512  14.242  0.00  0.00    +0.000 A 
ATOM      3  N   UNL     1      48.332   5.755  15.372  0.00  0.00    +0.000 NA
ATOM      4  C   UNL     1      47.468   4.724  15.451  0.00  0.00    +0.000 A 
ATOM      5  C   UNL     1      46.562   4.462  14.433  0.00  0.00    +0.000 A 
ATOM      6  C   UNL     1      46.572   5.237  13.265  0.00  0.00    +0.000 A 
ENDROOT
BRANCH   1   7
ATOM      7  N   UNL     1      47.475   7.134  11.998  0.00  0.00    +0.000 N 
ATOM      8  H   UNL     1      48.316   7.003  11.438  0.00  0.00    +0.000 HD
BRANCH   7  10
ATOM      9  C   UNL     1      45.725   8.660  12.747  0.00  0.00    +0.000 C 
ATOM     10  C   UNL     1      47.139   8.540  12.206  0.00  0.00    +0.000 C 
ENDBRANCH   7  10
ENDBRANCH   1   7
BRANCH   6  11
ATOM     11  C   UNL     1      45.605   4.827  12.236  0.00  0.00    +0.000 C 
ATOM     12  C   UNL     1      44.979   3.642  12.278  0.00  0.00    +0.000 C 
BRANCH  12  13
ATOM     13  C   UNL     1      44.181   3.078  11.147  0.00  0.00    +0.000 C 
ATOM     14  F   UNL     1      43.188   3.928  10.763  0.00  0.00    +0.000 F 
ENDBRANCH  12  13
ENDBRANCH   6  11
BRANCH   4  15
ATOM     15  C   UNL     1      47.500   3.916  16.724  0.00  0.00    +0.000 C 
BRANCH  15  16
ATOM     16  C   UNL     1      48.319   2.623  16.641  0.00  0.00    +0.000 C 
BRANCH  16  17
ATOM     17  C   UNL     1      49.710   2.817  17.186  0.00  0.00    +0.000 A 
ATOM     18  C   UNL     1      50.054   3.981  17.873  0.00  0.00    +0.000 A 
ATOM     19  C   UNL     1      51.335   4.129  18.403  0.00  0.00    +0.000 A 
ATOM     20  C   UNL     1      52.280   3.110  18.254  0.00  0.00    +0.000 A 
ATOM     21  C   UNL     1      51.954   1.933  17.573  0.00  0.00    +0.000 A 
ATOM     22  C   UNL     1      50.666   1.803  17.033  0.00  0.00    +0.000 A 
BRANCH  21  23
ATOM     23  C   UNL     1      52.959   0.821  17.405  0.00  0.00    +0.000 C 
BRANCH  23  24
ATOM     24  N   UNL     1      52.723  -0.260  18.357  0.00  0.00    +0.000 NA
ATOM     25  H   UNL     1      53.252  -1.078  18.057  0.00  0.00    +0.000 HD
ATOM     26  H   UNL     1      51.741  -0.522  18.332  0.00  0.00    +0.000 HD
ENDBRANCH  23  24
ENDBRANCH  21  23
ENDBRANCH  16  17
ENDBRANCH  15  16
ENDBRANCH   4  15
TORSDOF 9
ENDMDL
MODEL 7
REMARK VINA RESULT:    -5.767      2.794      7.902
REMARK INTER + INTRA:          -9.431
REMARK INTER:                  -8.705
REMARK INTRA:                  -0.727
REMARK UNBOUND:                -0.799
REMARK  Name = 
REMARK  10 active torsions:
REMARK  status: ('A' for Active; 'I' for Inactive)
REMARK    1  A    between atoms: C_1  and  C_2
REMARK    2  A    between atoms: C_2  and  N_3
REMARK    3  A    between atoms: N_3  and  C_4
REMARK    4  A    between atoms: C_7  and  C_8
REMARK    5  A    between atoms: C_8  and  C_9
REMARK    6  A    between atoms: C_9  and  C_10
REMARK    7  A    between atoms: C_14  and  C_15
REMARK    8  A    between atoms: C_15  and  N_16
REMARK    9  A    between atoms: C_19  and  C_20
REMARK   10  A    between atoms: C_21  and  C_22
REMARK                            x       y       z     vdW  Elec       q    Type
REMARK                         _______ _______ _______ _____ _____    ______ ____
ROOT
ATOM      1  C   UNL     1      44.851   4.488  11.732  0.00  0.00    +0.000 A 
ATOM      2  C   UNL     1      45.387   3.418  12.456  0.00  0.00    +0.000 A 
ATOM      3  N   UNL     1      46.175   3.515  13.560  0.00  0.00    +0.000 NA
ATOM      4  C   UNL     1      46.514   4.751  13.974  0.00  0.00    +0.000 A 
ATOM      5  C   UNL     1      46.102   5.882  13.284  0.00  0.00    +0.000 A 
ATOM      6  C   UNL     1      45.264   5.758  12.166  0.00  0.00    +0.000 A 
ENDROOT
BRANCH   1   7
ATOM      7  N   UNL     1      44.072   4.327  10.571  0.00  0.00    +0.000 N 
ATOM      8  H   UNL     1      43.084   4.252  10.806  0.00  0.00    +0.000 HD
BRANCH   7  10
ATOM      9  C   UNL     1      45.270   4.002   8.471  0.00  0.00    +0.000 C 
ATOM     10  C   UNL     1      44.506   3.328   9.597  0.00  0.00    +0.000 C 
ENDBRANCH   7  10
ENDBRANCH   1   7
BRANCH   6  11
ATOM     11  C   UNL     1      44.848   7.029  11.554  0.00  0.00    +0.000 C 
ATOM     12  C   UNL     1      45.295   8.213  11.999  0.00  0.00    +0.000 C 
BRANCH  12  13
ATOM     13  C   UNL     1      44.726   9.531  11.579  0.00  0.00    +0.000 C 
ATOM     14  F   UNL     1      44.051   9.432  10.400  0.00  0.00    +0.000 F 
ENDBRANCH  12  13
ENDBRANCH   6  11
BRANCH   4  15
ATOM     15  C   UNL     1      47.411   4.833  15.185  0.00  0.00    +0.000 C 
BRANCH  15  16
ATOM     16  C   UNL     1      47.302   3.642  16.143  0.00  0.00    +0.000 C 
BRANCH  16  17
ATOM     17  C   UNL     1      48.639   3.298  16.747  0.00  0.00    +0.000 A 
ATOM     18  C   UNL     1      49.263   2.085  16.460  0.00  0.00    +0.000 A 
ATOM     19  C   UNL     1      50.517   1.798  16.997  0.00  0.00    +0.000 A 
ATOM     20  C   UNL     1      51.158   2.726  17.822  0.00  0.00    +0.000 A 
ATOM     21  C   UNL     1      50.551   3.951  18.119  0.00  0.00    +0.000 A 
ATOM     22  C   UNL     1      49.284   4.221  17.582  0.00  0.00    +0.000 A 
BRANCH  21  23
ATOM     23  C   UNL     1      51.229   4.966  19.004  0.00  0.00    +0.000 C 
BRANCH  23  24
ATOM     24  N   UNL     1      51.868   4.330  20.154  0.00  0.00    +0.000 NA
ATOM     25  H   UNL     1      51.576   4.819  20.998  0.00  0.00    +0.000 HD
ATOM     26  H   UNL     1      52.876   4.443  20.083  0.00  0.00    +0.000 HD
ENDBRANCH  23  24
ENDBRANCH  21  23
ENDBRANCH  16  17
ENDBRANCH  15  16
ENDBRANCH   4  15
TORSDOF 9
ENDMDL
MODEL 8
REMARK VINA RESULT:    -5.692      3.947      8.193
REMARK INTER + INTRA:          -9.320
REMARK INTER:                  -8.620
REMARK INTRA:                  -0.700
REMARK UNBOUND:                -0.799
REMARK  Name = 
REMARK  10 active torsions:
REMARK  status: ('A' for Active; 'I' for Inactive)
REMARK    1  A    between atoms: C_1  and  C_2
REMARK    2  A    between atoms: C_2  and  N_3
REMARK    3  A    between atoms: N_3  and  C_4
REMARK    4  A    between atoms: C_7  and  C_8
REMARK    5  A    between atoms: C_8  and  C_9
REMARK    6  A    between atoms: C_9  and  C_10
REMARK    7  A    between atoms: C_14  and  C_15
REMARK    8  A    between atoms: C_15  and  N_16
REMARK    9  A    between atoms: C_19  and  C_20
REMARK   10  A    between atoms: C_21  and  C_22
REMARK                            x       y       z     vdW  Elec       q    Type
REMARK                         _______ _______ _______ _____ _____    ______ ____
ROOT
ATOM      1  C   UNL     1      45.166   7.895  11.786  0.00  0.00    +0.000 A 
ATOM      2  C   UNL     1      45.813   8.739  12.694  0.00  0.00    +0.000 A 
ATOM      3  N   UNL     1      46.970   8.468  13.355  0.00  0.00    +0.000 NA
ATOM      4  C   UNL     1      47.525   7.256  13.159  0.00  0.00    +0.000 A 
ATOM      5  C   UNL     1      46.926   6.309  12.341  0.00  0.00    +0.000 A 
ATOM      6  C   UNL     1      45.750   6.625  11.644  0.00  0.00    +0.000 A 
ENDROOT
BRANCH   1   7
ATOM      7  N   UNL     1      43.947   8.215  11.160  0.00  0.00    +0.000 N 
ATOM      8  H   UNL     1      43.735   7.550  10.419  0.00  0.00    +0.000 HD
BRANCH   7  10
ATOM      9  C   UNL     1      42.248   9.890  10.647  0.00  0.00    +0.000 C 
ATOM     10  C   UNL     1      43.735   9.605  10.760  0.00  0.00    +0.000 C 
ENDBRANCH   7  10
ENDBRANCH   1   7
BRANCH   6  11
ATOM     11  C   UNL     1      45.242   5.562  10.765  0.00  0.00    +0.000 C 
ATOM     12  C   UNL     1      44.350   4.654  11.186  0.00  0.00    +0.000 C 
BRANCH  12  13
ATOM     13  C   UNL     1      43.987   3.422  10.421  0.00  0.00    +0.000 C 
ATOM     14  F   UNL     1      43.459   2.465  11.234  0.00  0.00    +0.000 F 
ENDBRANCH  12  13
ENDBRANCH   6  11
BRANCH   4  15
ATOM     15  C   UNL     1      48.794   6.966  13.924  0.00  0.00    +0.000 C 
BRANCH  15  16
ATOM     16  C   UNL     1      48.726   7.289  15.420  0.00  0.00    +0.000 C 
BRANCH  16  17
ATOM     17  C   UNL     1      49.263   6.154  16.253  0.00  0.00    +0.000 A 
ATOM     18  C   UNL     1      50.569   6.181  16.742  0.00  0.00    +0.000 A 
ATOM     19  C   UNL     1      51.039   5.141  17.542  0.00  0.00    +0.000 A 
ATOM     20  C   UNL     1      50.203   4.068  17.864  0.00  0.00    +0.000 A 
ATOM     21  C   UNL     1      48.889   4.024  17.388  0.00  0.00    +0.000 A 
ATOM     22  C   UNL     1      48.433   5.070  16.573  0.00  0.00    +0.000 A 
BRANCH  21  23
ATOM     23  C   UNL     1      47.972   2.876  17.727  0.00  0.00    +0.000 C 
BRANCH  23  24
ATOM     24  N   UNL     1      46.571   3.232  17.520  0.00  0.00    +0.000 NA
ATOM     25  H   UNL     1      46.140   2.526  16.926  0.00  0.00    +0.000 HD
ATOM     26  H   UNL     1      46.519   4.112  17.013  0.00  0.00    +0.000 HD
ENDBRANCH  23  24
ENDBRANCH  21  23
ENDBRANCH  16  17
ENDBRANCH  15  16
ENDBRANCH   4  15
TORSDOF 9
ENDMDL
MODEL 9
REMARK VINA RESULT:    -5.622      3.883      7.047
REMARK INTER + INTRA:          -9.215
REMARK INTER:                  -8.577
REMARK INTRA:                  -0.638
REMARK UNBOUND:                -0.799
REMARK  Name = 
REMARK  10 active torsions:
REMARK  status: ('A' for Active; 'I' for Inactive)
REMARK    1  A    between atoms: C_1  and  C_2
REMARK    2  A    between atoms: C_2  and  N_3
REMARK    3  A    between atoms: N_3  and  C_4
REMARK    4  A    between atoms: C_7  and  C_8
REMARK    5  A    between atoms: C_8  and  C_9
REMARK    6  A    between atoms: C_9  and  C_10
REMARK    7  A    between atoms: C_14  and  C_15
REMARK    8  A    between atoms: C_15  and  N_16
REMARK    9  A    between atoms: C_19  and  C_20
REMARK   10  A    between atoms: C_21  and  C_22
REMARK                            x       y       z     vdW  Elec       q    Type
REMARK                         _______ _______ _______ _____ _____    ______ ____
ROOT
ATOM      1  C   UNL     1      45.778   4.209  12.355  0.00  0.00    +0.000 A 
ATOM      2  C   UNL     1      45.641   5.170  11.348  0.00  0.00    +0.000 A 
ATOM      3  N   UNL     1      46.328   6.341  11.262  0.00  0.00    +0.000 NA
ATOM      4  C   UNL     1      47.186   6.632  12.259  0.00  0.00    +0.000 A 
ATOM      5  C   UNL     1      47.342   5.786  13.348  0.00  0.00    +0.000 A 
ATOM      6  C   UNL     1      46.647   4.569  13.399  0.00  0.00    +0.000 A 
ENDROOT
BRANCH   1   7
ATOM      7  N   UNL     1      45.011   3.031  12.413  0.00  0.00    +0.000 N 
ATOM      8  H   UNL     1      45.364   2.337  11.757  0.00  0.00    +0.000 HD
BRANCH   7  10
ATOM      9  C   UNL     1      43.132   4.410  13.137  0.00  0.00    +0.000 C 
ATOM     10  C   UNL     1      43.556   3.167  12.374  0.00  0.00    +0.000 C 
ENDBRANCH   7  10
ENDBRANCH   1   7
BRANCH   6  11
ATOM     11  C   UNL     1      46.938   3.733  14.573  0.00  0.00    +0.000 C 
ATOM     12  C   UNL     1      47.281   4.262  15.756  0.00  0.00    +0.000 C 
BRANCH  12  13
ATOM     13  C   UNL     1      47.818   3.466  16.903  0.00  0.00    +0.000 C 
ATOM     14  F   UNL     1      48.436   2.329  16.477  0.00  0.00    +0.000 F 
ENDBRANCH  12  13
ENDBRANCH   6  11
BRANCH   4  15
ATOM     15  C   UNL     1      47.916   7.949  12.156  0.00  0.00    +0.000 C 
BRANCH  15  16
ATOM     16  C   UNL     1      47.287   9.093  12.957  0.00  0.00    +0.000 C 
BRANCH  16  17
ATOM     17  C   UNL     1      46.450   9.985  12.077  0.00  0.00    +0.000 A 
ATOM     18  C   UNL     1      47.029  11.036  11.365  0.00  0.00    +0.000 A 
ATOM     19  C   UNL     1      46.247  11.829  10.527  0.00  0.00    +0.000 A 
ATOM     20  C   UNL     1      44.880  11.572  10.389  0.00  0.00    +0.000 A 
ATOM     21  C   UNL     1      44.281  10.520  11.090  0.00  0.00    +0.000 A 
ATOM     22  C   UNL     1      45.076   9.739  11.940  0.00  0.00    +0.000 A 
BRANCH  21  23
ATOM     23  C   UNL     1      42.808  10.227  10.952  0.00  0.00    +0.000 C 
BRANCH  23  24
ATOM     24  N   UNL     1      42.565   8.802  10.743  0.00  0.00    +0.000 NA
ATOM     25  H   UNL     1      42.191   8.671   9.804  0.00  0.00    +0.000 HD
ATOM     26  H   UNL     1      41.849   8.485  11.390  0.00  0.00    +0.000 HD
ENDBRANCH  23  24
ENDBRANCH  21  23
ENDBRANCH  16  17
ENDBRANCH  15  16
ENDBRANCH   4  15
TORSDOF 9
ENDMDL
