MODEL 1
REMARK VINA RESULT:    -7.401      0.000      0.000
REMARK INTER + INTRA:         -12.442
REMARK INTER:                 -11.295
REMARK INTRA:                  -1.147
REMARK UNBOUND:                -1.147
REMARK  Name = 
REMARK  10 active torsions:
REMARK  status: ('A' for Active; 'I' for Inactive)
REMARK    1  A    between atoms: C_1  and  C_2
REMARK    2  A    between atoms: C_2  and  N_3
REMARK    3  A    between atoms: C_2  and  C_12
REMARK    4  A    between atoms: N_3  and  C_4
REMARK    5  A    between atoms: C_4  and  C_5
REMARK    6  A    between atoms: C_5  and  C_6
REMARK    7  A    between atoms: C_15  and  C_16
REMARK    8  A    between atoms: C_17  and  C_18
REMARK    9  A    between atoms: C_18  and  O_19
REMARK   10  A    between atoms: O_19  and  C_20
REMARK                            x       y       z     vdW  Elec       q    Type
REMARK                         _______ _______ _______ _____ _____    ______ ____
ROOT
ATOM      1  C   UNL     1      48.191   7.027  14.232  0.00  0.00    +0.000 A 
ATOM      2  C   UNL     1      47.706   7.822  13.189  0.00  0.00    +0.000 A 
ATOM      3  C   UNL     1      46.922   7.271  12.186  0.00  0.00    +0.000 A 
ATOM      4  C   UNL     1      46.544   5.943  12.296  0.00  0.00    +0.000 A 
ATOM      5  C   UNL     1      46.983   5.229  13.395  0.00  0.00    +0.000 A 
ATOM      6  N   UNL     1      47.810   5.730  14.344  0.00  0.00    +0.000 NA
ENDROOT
BRANCH   1   8
ATOM      7  C   UNL     1      49.936   8.806  14.747  0.00  0.00    +0.000 C 
ATOM      8  C   UNL     1      49.146   7.600  15.289  0.00  0.00    +0.000 C 
BRANCH   8   9
ATOM      9  N   UNL     1      48.505   8.056  16.547  0.00  0.00    +0.000 NA
ATOM     10  H   UNL     1      47.497   7.915  16.461  0.00  0.00    +0.000 HD
BRANCH   9  11
ATOM     11  C   UNL     1      48.978   7.446  17.792  0.00  0.00    +0.000 C 
BRANCH  11  12
ATOM     12  C   UNL     1      48.057   6.342  18.357  0.00  0.00    +0.000 C 
BRANCH  12  13
ATOM     13  C   UNL     1      48.374   4.971  17.822  0.00  0.00    +0.000 A 
ATOM     14  C   UNL     1      47.369   4.030  17.564  0.00  0.00    +0.000 A 
ATOM     15  C   UNL     1      47.708   2.779  17.057  0.00  0.00    +0.000 A 
ATOM     16  C   UNL     1      49.045   2.510  16.823  0.00  0.00    +0.000 A 
ATOM     17  N   UNL     1      50.041   3.390  17.056  0.00  0.00    +0.000 NA
ATOM     18  C   UNL     1      49.684   4.598  17.542  0.00  0.00    +0.000 A 
ENDBRANCH  12  13
ENDBRANCH  11  12
ENDBRANCH   9  11
ENDBRANCH   8   9
ENDBRANCH   1   8
BRANCH   4  19
ATOM     19  C   UNL     1      45.708   5.371  11.311  0.00  0.00    +0.000 C 
ATOM     20  C   UNL     1      45.020   4.846  10.480  0.00  0.00    +0.000 C 
BRANCH  20  21
ATOM     21  C   UNL     1      44.241   4.191   9.431  0.00  0.00    +0.000 C 
BRANCH  21  22
ATOM     22  O   UNL     1      44.891   4.341   8.170  0.00  0.00    +0.000 OA
BRANCH  22  23
ATOM     23  C   UNL     1      45.699   3.298   7.797  0.00  0.00    +0.000 A 
ATOM     24  C   UNL     1      45.700   2.026   8.377  0.00  0.00    +0.000 A 
ATOM     25  C   UNL     1      46.574   1.041   7.919  0.00  0.00    +0.000 A 
ATOM     26  C   UNL     1      47.451   1.317   6.873  0.00  0.00    +0.000 A 
ATOM     27  C   UNL     1      47.456   2.582   6.287  0.00  0.00    +0.000 A 
ATOM     28  C   UNL     1      46.582   3.569   6.749  0.00  0.00    +0.000 A 
ENDBRANCH  22  23
ENDBRANCH  21  22
ENDBRANCH  20  21
ENDBRANCH   4  19
TORSDOF 9
ENDMDL
MODEL 2
REMARK VINA RESULT:    -7.304      3.117      9.084
REMARK INTER + INTRA:         -12.294
REMARK INTER:                 -11.346
REMARK INTRA:                  -0.948
REMARK UNBOUND:                -1.147
REMARK  Name = 
REMARK  10 active torsions:
REMARK  status: ('A' for Active; 'I' for Inactive)
REMARK    1  A    between atoms: C_1  and  C_2
REMARK    2  A    between atoms: C_2  and  N_3
REMARK    3  A    between atoms: C_2  and  C_12
REMARK    4  A    between atoms: N_3  and  C_4
REMARK    5  A    between atoms: C_4  and  C_5
REMARK    6  A    between atoms: C_5  and  C_6
REMARK    7  A    between atoms: C_15  and  C_16
REMARK    8  A    between atoms: C_17  and  C_18
REMARK    9  A    between atoms: C_18  and  O_19
REMARK   10  A    between atoms: O_19  and  C_20
REMARK                            x       y       z     vdW  Elec       q    Type
REMARK                         _______ _______ _______ _____ _____    ______ ____
ROOT
ATOM      1  C   UNL     1      44.643   4.726  12.614  0.00  0.00    +0.000 A 
ATOM      2  C   UNL     1      45.005   6.049  12.342  0.00  0.00    +0.000 A 
ATOM      3  C   UNL     1      46.146   6.599  12.906  0.00  0.00    +0.000 A 
ATOM      4  C   UNL     1      46.974   5.782  13.657  0.00  0.00    +0.000 A 
ATOM      5  C   UNL     1      46.610   4.459  13.820  0.00  0.00    +0.000 A 
ATOM      6  N   UNL     1      45.461   3.923  13.340  0.00  0.00    +0.000 NA
ENDROOT
BRANCH   1   8
ATOM      7  C   UNL     1      42.458   5.210  11.403  0.00  0.00    +0.000 C 
ATOM      8  C   UNL     1      43.328   4.137  12.083  0.00  0.00    +0.000 C 
BRANCH   8   9
ATOM      9  N   UNL     1      43.473   3.037  11.099  0.00  0.00    +0.000 NA
ATOM     10  H   UNL     1      42.561   2.871  10.668  0.00  0.00    +0.000 HD
BRANCH   9  11
ATOM     11  C   UNL     1      44.482   3.211  10.052  0.00  0.00    +0.000 C 
BRANCH  11  12
ATOM     12  C   UNL     1      44.713   1.965   9.168  0.00  0.00    +0.000 C 
BRANCH  12  13
ATOM     13  C   UNL     1      45.803   2.155   8.145  0.00  0.00    +0.000 A 
ATOM     14  C   UNL     1      45.972   3.368   7.465  0.00  0.00    +0.000 A 
ATOM     15  C   UNL     1      47.001   3.501   6.538  0.00  0.00    +0.000 A 
ATOM     16  C   UNL     1      47.830   2.416   6.322  0.00  0.00    +0.000 A 
ATOM     17  N   UNL     1      47.702   1.232   6.959  0.00  0.00    +0.000 NA
ATOM     18  C   UNL     1      46.698   1.132   7.857  0.00  0.00    +0.000 A 
ENDBRANCH  12  13
ENDBRANCH  11  12
ENDBRANCH   9  11
ENDBRANCH   8   9
ENDBRANCH   1   8
BRANCH   4  19
ATOM     19  C   UNL     1      48.166   6.307  14.203  0.00  0.00    +0.000 C 
ATOM     20  C   UNL     1      49.166   6.737  14.707  0.00  0.00    +0.000 C 
BRANCH  20  21
ATOM     21  C   UNL     1      50.344   7.297  15.367  0.00  0.00    +0.000 C 
BRANCH  21  22
ATOM     22  O   UNL     1      50.968   6.308  16.184  0.00  0.00    +0.000 OA
BRANCH  22  23
ATOM     23  C   UNL     1      50.210   5.845  17.229  0.00  0.00    +0.000 A 
ATOM     24  C   UNL     1      49.536   6.644  18.157  0.00  0.00    +0.000 A 
ATOM     25  C   UNL     1      48.798   6.061  19.187  0.00  0.00    +0.000 A 
ATOM     26  C   UNL     1      48.723   4.674  19.294  0.00  0.00    +0.000 A 
ATOM     27  C   UNL     1      49.391   3.870  18.372  0.00  0.00    +0.000 A 
ATOM     28  C   UNL     1      50.132   4.455  17.342  0.00  0.00    +0.000 A 
ENDBRANCH  22  23
ENDBRANCH  21  22
ENDBRANCH  20  21
ENDBRANCH   4  19
TORSDOF 9
ENDMDL
MODEL 3
REMARK VINA RESULT:    -6.874      3.604      8.277
REMARK INTER + INTRA:         -11.638
REMARK INTER:                 -10.837
REMARK INTRA:                  -0.801
REMARK UNBOUND:                -1.147
REMARK  Name = 
REMARK  10 active torsions:
REMARK  status: ('A' for Active; 'I' for Inactive)
REMARK    1  A    between atoms: C_1  and  C_2
REMARK    2  A    between atoms: C_2  and  N_3
REMARK    3  A    between atoms: C_2  and  C_12
REMARK    4  A    between atoms: N_3  and  C_4
REMARK    5  A    between atoms: C_4  and  C_5
REMARK    6  A    between atoms: C_5  and  C_6
REMARK    7  A    between atoms: C_15  and  C_16
REMARK    8  A    between atoms: C_17  and  C_18
REMARK    9  A    between atoms: C_18  and  O_19
REMARK   10  A    between atoms: O_19  and  C_20
REMARK                            x       y       z     vdW  Elec       q    Type
REMARK                         _______ _______ _______ _____ _____    ______ ____
ROOT
ATOM      1  C   UNL     1      44.610   5.030  12.616  0.00  0.00    +0.000 A 
ATOM      2  C   UNL     1      44.947   6.295  12.124  0.00  0.00    +0.000 A 
ATOM      3  C   UNL     1      46.139   6.900  12.490  0.00  0.00    +0.000 A 
ATOM      4  C   UNL     1      47.034   6.185  13.267  0.00  0.00    +0.000 A 
ATOM      5  C   UNL     1      46.684   4.904  13.653  0.00  0.00    +0.000 A 
ATOM      6  N   UNL     1      45.493   4.325  13.367  0.00  0.00    +0.000 NA
ENDROOT
BRANCH   1   8
ATOM      7  C   UNL     1      42.234   5.438  11.800  0.00  0.00    +0.000 C 
ATOM      8  C   UNL     1      43.248   4.394  12.304  0.00  0.00    +0.000 C 
BRANCH   8   9
ATOM      9  N   UNL     1      43.266   3.311  11.290  0.00  0.00    +0.000 NA
ATOM     10  H   UNL     1      42.315   3.189  10.936  0.00  0.00    +0.000 HD
BRANCH   9  11
ATOM     11  C   UNL     1      44.188   3.472  10.163  0.00  0.00    +0.000 C 
BRANCH  11  12
ATOM     12  C   UNL     1      44.642   2.148   9.509  0.00  0.00    +0.000 C 
BRANCH  12  13
ATOM     13  C   UNL     1      45.594   2.348   8.360  0.00  0.00    +0.000 A 
ATOM     14  C   UNL     1      46.458   1.332   7.933  0.00  0.00    +0.000 A 
ATOM     15  C   UNL     1      47.311   1.558   6.857  0.00  0.00    +0.000 A 
ATOM     16  C   UNL     1      47.272   2.795   6.241  0.00  0.00    +0.000 A 
ATOM     17  N   UNL     1      46.452   3.799   6.621  0.00  0.00    +0.000 NA
ATOM     18  C   UNL     1      45.631   3.551   7.664  0.00  0.00    +0.000 A 
ENDBRANCH  12  13
ENDBRANCH  11  12
ENDBRANCH   9  11
ENDBRANCH   8   9
ENDBRANCH   1   8
BRANCH   4  19
ATOM     19  C   UNL     1      48.275   6.762  13.616  0.00  0.00    +0.000 C 
ATOM     20  C   UNL     1      49.325   7.235  13.952  0.00  0.00    +0.000 C 
BRANCH  20  21
ATOM     21  C   UNL     1      50.570   7.846  14.415  0.00  0.00    +0.000 C 
BRANCH  21  22
ATOM     22  O   UNL     1      50.991   8.858  13.503  0.00  0.00    +0.000 OA
BRANCH  22  23
ATOM     23  C   UNL     1      51.698   8.412  12.415  0.00  0.00    +0.000 A 
ATOM     24  C   UNL     1      51.142   8.008  11.198  0.00  0.00    +0.000 A 
ATOM     25  C   UNL     1      51.961   7.565  10.159  0.00  0.00    +0.000 A 
ATOM     26  C   UNL     1      53.343   7.528  10.327  0.00  0.00    +0.000 A 
ATOM     27  C   UNL     1      53.906   7.930  11.537  0.00  0.00    +0.000 A 
ATOM     28  C   UNL     1      53.084   8.371  12.577  0.00  0.00    +0.000 A 
ENDBRANCH  22  23
ENDBRANCH  21  22
ENDBRANCH  20  21
ENDBRANCH   4  19
TORSDOF 9
ENDMDL
MODEL 4
REMARK VINA RESULT:    -6.723      1.476      2.016
REMARK INTER + INTRA:         -11.408
REMARK INTER:                 -10.529
REMARK INTRA:                  -0.878
REMARK UNBOUND:                -1.147
REMARK  Name = 
REMARK  10 active torsions:
REMARK  status: ('A' for Active; 'I' for Inactive)
REMARK    1  A    between atoms: C_1  and  C_2
REMARK    2  A    between atoms: C_2  and  N_3
REMARK    3  A    between atoms: C_2  and  C_12
REMARK    4  A    between atoms: N_3  and  C_4
REMARK    5  A    between atoms: C_4  and  C_5
REMARK    6  A    between atoms: C_5  and  C_6
REMARK    7  A    between atoms: C_15  and  C_16
REMARK    8  A    between atoms: C_17  and  C_18
REMARK    9  A    between atoms: C_18  and  O_19
REMARK   10  A    between atoms: O_19  and  C_20
REMARK                            x       y       z     vdW  Elec       q    Type
REMARK                         _______ _______ _______ _____ _____    ______ ____
ROOT
ATOM      1  C   UNL     1      48.590   7.176  13.870  0.00  0.00    +0.000 A 
ATOM      2  C   UNL     1      48.204   7.883  12.727  0.00  0.00    +0.000 A 
ATOM      3  C   UNL     1      47.331   7.320  11.809  0.00  0.00    +0.000 A 
ATOM      4  C   UNL     1      46.768   6.089  12.100  0.00  0.00    +0.000 A 
ATOM      5  C   UNL     1      47.120   5.475  13.287  0.00  0.00    +0.000 A 
ATOM      6  N   UNL     1      48.029   5.974  14.159  0.00  0.00    +0.000 NA
ENDROOT
BRANCH   1   8
ATOM      7  C   UNL     1      49.053   8.869  15.712  0.00  0.00    +0.000 C 
ATOM      8  C   UNL     1      49.637   7.742  14.839  0.00  0.00    +0.000 C 
BRANCH   8   9
ATOM      9  N   UNL     1      50.236   6.761  15.777  0.00  0.00    +0.000 NA
ATOM     10  H   UNL     1      51.251   6.883  15.762  0.00  0.00    +0.000 HD
BRANCH   9  11
ATOM     11  C   UNL     1      49.763   6.792  17.162  0.00  0.00    +0.000 C 
BRANCH  11  12
ATOM     12  C   UNL     1      48.820   5.631  17.546  0.00  0.00    +0.000 C 
BRANCH  12  13
ATOM     13  C   UNL     1      48.510   5.578  19.019  0.00  0.00    +0.000 A 
ATOM     14  C   UNL     1      47.475   6.336  19.582  0.00  0.00    +0.000 A 
ATOM     15  C   UNL     1      47.216   6.245  20.946  0.00  0.00    +0.000 A 
ATOM     16  C   UNL     1      48.001   5.396  21.705  0.00  0.00    +0.000 A 
ATOM     17  N   UNL     1      49.005   4.648  21.200  0.00  0.00    +0.000 NA
ATOM     18  C   UNL     1      49.231   4.751  19.872  0.00  0.00    +0.000 A 
ENDBRANCH  12  13
ENDBRANCH  11  12
ENDBRANCH   9  11
ENDBRANCH   8   9
ENDBRANCH   1   8
BRANCH   4  19
ATOM     19  C   UNL     1      45.840   5.515  11.203  0.00  0.00    +0.000 C 
ATOM     20  C   UNL     1      45.076   4.991  10.440  0.00  0.00    +0.000 C 
BRANCH  20  21
ATOM     21  C   UNL     1      44.202   4.345   9.463  0.00  0.00    +0.000 C 
BRANCH  21  22
ATOM     22  O   UNL     1      44.799   4.379   8.169  0.00  0.00    +0.000 OA
BRANCH  22  23
ATOM     23  C   UNL     1      45.610   3.315   7.867  0.00  0.00    +0.000 A 
ATOM     24  C   UNL     1      45.516   2.039   8.431  0.00  0.00    +0.000 A 
ATOM     25  C   UNL     1      46.403   1.032   8.052  0.00  0.00    +0.000 A 
ATOM     26  C   UNL     1      47.387   1.290   7.100  0.00  0.00    +0.000 A 
ATOM     27  C   UNL     1      47.487   2.558   6.531  0.00  0.00    +0.000 A 
ATOM     28  C   UNL     1      46.600   3.567   6.915  0.00  0.00    +0.000 A 
ENDBRANCH  22  23
ENDBRANCH  21  22
ENDBRANCH  20  21
ENDBRANCH   4  19
TORSDOF 9
ENDMDL
MODEL 5
REMARK VINA RESULT:    -6.606      4.155      8.160
REMARK INTER + INTRA:         -11.229
REMARK INTER:                 -10.190
REMARK INTRA:                  -1.039
REMARK UNBOUND:                -1.147
REMARK  Name = 
REMARK  10 active torsions:
REMARK  status: ('A' for Active; 'I' for Inactive)
REMARK    1  A    between atoms: C_1  and  C_2
REMARK    2  A    between atoms: C_2  and  N_3
REMARK    3  A    between atoms: C_2  and  C_12
REMARK    4  A    between atoms: N_3  and  C_4
REMARK    5  A    between atoms: C_4  and  C_5
REMARK    6  A    between atoms: C_5  and  C_6
REMARK    7  A    between atoms: C_15  and  C_16
REMARK    8  A    between atoms: C_17  and  C_18
REMARK    9  A    between atoms: C_18  and  O_19
REMARK   10  A    between atoms: O_19  and  C_20
REMARK                            x       y       z     vdW  Elec       q    Type
REMARK                         _______ _______ _______ _____ _____    ______ ____
ROOT
ATOM      1  C   UNL     1      45.260   5.665  12.130  0.00  0.00    +0.000 A 
ATOM      2  C   UNL     1      46.384   5.194  12.817  0.00  0.00    +0.000 A 
ATOM      3  C   UNL     1      47.568   5.915  12.811  0.00  0.00    +0.000 A 
ATOM      4  C   UNL     1      47.584   7.159  12.202  0.00  0.00    +0.000 A 
ATOM      5  C   UNL     1      46.418   7.611  11.614  0.00  0.00    +0.000 A 
ATOM      6  N   UNL     1      45.274   6.888  11.543  0.00  0.00    +0.000 NA
ENDROOT
BRANCH   1   8
ATOM      7  C   UNL     1      42.859   5.402  12.929  0.00  0.00    +0.000 C 
ATOM      8  C   UNL     1      43.977   4.828  12.039  0.00  0.00    +0.000 C 
BRANCH   8   9
ATOM      9  N   UNL     1      43.397   4.695  10.680  0.00  0.00    +0.000 NA
ATOM     10  H   UNL     1      43.455   5.605  10.218  0.00  0.00    +0.000 HD
BRANCH   9  11
ATOM     11  C   UNL     1      43.974   3.669   9.808  0.00  0.00    +0.000 C 
BRANCH  11  12
ATOM     12  C   UNL     1      44.805   4.221   8.629  0.00  0.00    +0.000 C 
BRANCH  12  13
ATOM     13  C   UNL     1      45.727   3.198   8.020  0.00  0.00    +0.000 A 
ATOM     14  C   UNL     1      46.569   3.510   6.945  0.00  0.00    +0.000 A 
ATOM     15  C   UNL     1      47.414   2.536   6.424  0.00  0.00    +0.000 A 
ATOM     16  C   UNL     1      47.391   1.277   6.997  0.00  0.00    +0.000 A 
ATOM     17  N   UNL     1      46.597   0.938   8.035  0.00  0.00    +0.000 NA
ATOM     18  C   UNL     1      45.791   1.904   8.525  0.00  0.00    +0.000 A 
ENDBRANCH  12  13
ENDBRANCH  11  12
ENDBRANCH   9  11
ENDBRANCH   8   9
ENDBRANCH   1   8
BRANCH   4  19
ATOM     19  C   UNL     1      48.765   7.933  12.222  0.00  0.00    +0.000 C 
ATOM     20  C   UNL     1      49.749   8.618  12.266  0.00  0.00    +0.000 C 
BRANCH  20  21
ATOM     21  C   UNL     1      50.907   9.509  12.293  0.00  0.00    +0.000 C 
BRANCH  21  22
ATOM     22  O   UNL     1      52.100   8.773  12.031  0.00  0.00    +0.000 OA
BRANCH  22  23
ATOM     23  C   UNL     1      52.399   8.589  10.705  0.00  0.00    +0.000 A 
ATOM     24  C   UNL     1      52.697   9.606   9.793  0.00  0.00    +0.000 A 
ATOM     25  C   UNL     1      52.980   9.301   8.462  0.00  0.00    +0.000 A 
ATOM     26  C   UNL     1      52.973   7.976   8.032  0.00  0.00    +0.000 A 
ATOM     27  C   UNL     1      52.677   6.956   8.935  0.00  0.00    +0.000 A 
ATOM     28  C   UNL     1      52.392   7.263  10.267  0.00  0.00    +0.000 A 
ENDBRANCH  22  23
ENDBRANCH  21  22
ENDBRANCH  20  21
ENDBRANCH   4  19
TORSDOF 9
ENDMDL
MODEL 6
REMARK VINA RESULT:    -6.367      2.055      2.685
REMARK INTER + INTRA:         -10.864
REMARK INTER:                  -9.833
REMARK INTRA:                  -1.031
REMARK UNBOUND:                -1.147
REMARK  Name = 
REMARK  10 active torsions:
REMARK  status: ('A' for Active; 'I' for Inactive)
REMARK    1  A    between atoms: C_1  and  C_2
REMARK    2  A    between atoms: C_2  and  N_3
REMARK    3  A    between atoms: C_2  and  C_12
REMARK    4  A    between atoms: N_3  and  C_4
REMARK    5  A    between atoms: C_4  and  C_5
REMARK    6  A    between atoms: C_5  and  C_6
REMARK    7  A    between atoms: C_15  and  C_16
REMARK    8  A    between atoms: C_17  and  C_18
REMARK    9  A    between atoms: C_18  and  O_19
REMARK   10  A    between atoms: O_19  and  C_20
REMARK                            x       y       z     vdW  Elec       q    Type
REMARK                         _______ _______ _______ _____ _____    ______ ____
ROOT
ATOM      1  C   UNL     1      47.618   7.688  13.920  0.00  0.00    +0.000 A 
ATOM      2  C   UNL     1      47.984   6.340  13.986  0.00  0.00    +0.000 A 
ATOM      3  C   UNL     1      47.247   5.374  13.318  0.00  0.00    +0.000 A 
ATOM      4  C   UNL     1      46.206   5.783  12.501  0.00  0.00    +0.000 A 
ATOM      5  C   UNL     1      45.944   7.136  12.407  0.00  0.00    +0.000 A 
ATOM      6  N   UNL     1      46.605   8.088  13.110  0.00  0.00    +0.000 NA
ENDROOT
BRANCH   1   8
ATOM      7  C   UNL     1      48.660  10.009  13.898  0.00  0.00    +0.000 C 
ATOM      8  C   UNL     1      48.360   8.754  14.738  0.00  0.00    +0.000 C 
BRANCH   8   9
ATOM      9  N   UNL     1      47.655   9.229  15.954  0.00  0.00    +0.000 NA
ATOM     10  H   UNL     1      46.904   8.570  16.166  0.00  0.00    +0.000 HD
BRANCH   9  11
ATOM     11  C   UNL     1      48.469   9.441  17.153  0.00  0.00    +0.000 C 
BRANCH  11  12
ATOM     12  C   UNL     1      49.275   8.205  17.611  0.00  0.00    +0.000 C 
BRANCH  12  13
ATOM     13  C   UNL     1      48.634   7.468  18.758  0.00  0.00    +0.000 A 
ATOM     14  C   UNL     1      48.674   6.071  18.851  0.00  0.00    +0.000 A 
ATOM     15  C   UNL     1      48.080   5.435  19.936  0.00  0.00    +0.000 A 
ATOM     16  C   UNL     1      47.464   6.217  20.896  0.00  0.00    +0.000 A 
ATOM     17  N   UNL     1      47.407   7.565  20.843  0.00  0.00    +0.000 NA
ATOM     18  C   UNL     1      47.996   8.158  19.783  0.00  0.00    +0.000 A 
ENDBRANCH  12  13
ENDBRANCH  11  12
ENDBRANCH   9  11
ENDBRANCH   8   9
ENDBRANCH   1   8
BRANCH   4  19
ATOM     19  C   UNL     1      45.469   4.821  11.774  0.00  0.00    +0.000 C 
ATOM     20  C   UNL     1      44.872   3.974  11.170  0.00  0.00    +0.000 C 
BRANCH  20  21
ATOM     21  C   UNL     1      44.205   2.929  10.397  0.00  0.00    +0.000 C 
BRANCH  21  22
ATOM     22  O   UNL     1      44.242   3.245   9.007  0.00  0.00    +0.000 OA
BRANCH  22  23
ATOM     23  C   UNL     1      45.353   2.807   8.333  0.00  0.00    +0.000 A 
ATOM     24  C   UNL     1      46.193   3.605   7.550  0.00  0.00    +0.000 A 
ATOM     25  C   UNL     1      47.296   3.048   6.903  0.00  0.00    +0.000 A 
ATOM     26  C   UNL     1      47.572   1.690   7.038  0.00  0.00    +0.000 A 
ATOM     27  C   UNL     1      46.741   0.887   7.817  0.00  0.00    +0.000 A 
ATOM     28  C   UNL     1      45.635   1.446   8.463  0.00  0.00    +0.000 A 
ENDBRANCH  22  23
ENDBRANCH  21  22
ENDBRANCH  20  21
ENDBRANCH   4  19
TORSDOF 9
ENDMDL
MODEL 7
REMARK VINA RESULT:    -6.264      2.016      3.012
REMARK INTER + INTRA:         -10.706
REMARK INTER:                  -9.476
REMARK INTRA:                  -1.229
REMARK UNBOUND:                -1.147
REMARK  Name = 
REMARK  10 active torsions:
REMARK  status: ('A' for Active; 'I' for Inactive)
REMARK    1  A    between atoms: C_1  and  C_2
REMARK    2  A    between atoms: C_2  and  N_3
REMARK    3  A    between atoms: C_2  and  C_12
REMARK    4  A    between atoms: N_3  and  C_4
REMARK    5  A    between atoms: C_4  and  C_5
REMARK    6  A    between atoms: C_5  and  C_6
REMARK    7  A    between atoms: C_15  and  C_16
REMARK    8  A    between atoms: C_17  and  C_18
REMARK    9  A    between atoms: C_18  and  O_19
REMARK   10  A    between atoms: O_19  and  C_20
REMARK                            x       y       z     vdW  Elec       q    Type
REMARK                         _______ _______ _______ _____ _____    ______ ____
ROOT
ATOM      1  C   UNL     1      47.980   9.126  12.559  0.00  0.00    +0.000 A 
ATOM      2  C   UNL     1      48.558   8.055  11.870  0.00  0.00    +0.000 A 
ATOM      3  C   UNL     1      47.833   6.898  11.626  0.00  0.00    +0.000 A 
ATOM      4  C   UNL     1      46.496   6.867  11.984  0.00  0.00    +0.000 A 
ATOM      5  C   UNL     1      45.956   7.988  12.585  0.00  0.00    +0.000 A 
ATOM      6  N   UNL     1      46.667   9.098  12.899  0.00  0.00    +0.000 NA
ENDROOT
BRANCH   1   8
ATOM      7  C   UNL     1      48.728  11.447  11.831  0.00  0.00    +0.000 C 
ATOM      8  C   UNL     1      48.802  10.368  12.929  0.00  0.00    +0.000 C 
BRANCH   8   9
ATOM      9  N   UNL     1      48.413  11.037  14.194  0.00  0.00    +0.000 NA
ATOM     10  H   UNL     1      47.398  10.967  14.294  0.00  0.00    +0.000 HD
BRANCH   9  11
ATOM     11  C   UNL     1      49.056  10.563  15.421  0.00  0.00    +0.000 C 
BRANCH  11  12
ATOM     12  C   UNL     1      48.272   9.467  16.176  0.00  0.00    +0.000 C 
BRANCH  12  13
ATOM     13  C   UNL     1      49.086   8.228  16.440  0.00  0.00    +0.000 A 
ATOM     14  C   UNL     1      50.095   8.202  17.412  0.00  0.00    +0.000 A 
ATOM     15  C   UNL     1      50.813   7.030  17.630  0.00  0.00    +0.000 A 
ATOM     16  C   UNL     1      50.497   5.919  16.869  0.00  0.00    +0.000 A 
ATOM     17  N   UNL     1      49.531   5.903  15.926  0.00  0.00    +0.000 NA
ATOM     18  C   UNL     1      48.846   7.052  15.738  0.00  0.00    +0.000 A 
ENDBRANCH  12  13
ENDBRANCH  11  12
ENDBRANCH   9  11
ENDBRANCH   8   9
ENDBRANCH   1   8
BRANCH   4  19
ATOM     19  C   UNL     1      45.724   5.717  11.705  0.00  0.00    +0.000 C 
ATOM     20  C   UNL     1      45.106   4.719  11.459  0.00  0.00    +0.000 C 
BRANCH  20  21
ATOM     21  C   UNL     1      44.382   3.503  11.093  0.00  0.00    +0.000 C 
BRANCH  21  22
ATOM     22  O   UNL     1      44.043   3.530   9.708  0.00  0.00    +0.000 OA
BRANCH  22  23
ATOM     23  C   UNL     1      45.060   3.207   8.847  0.00  0.00    +0.000 A 
ATOM     24  C   UNL     1      45.741   4.109   8.024  0.00  0.00    +0.000 A 
ATOM     25  C   UNL     1      46.759   3.665   7.180  0.00  0.00    +0.000 A 
ATOM     26  C   UNL     1      47.109   2.317   7.157  0.00  0.00    +0.000 A 
ATOM     27  C   UNL     1      46.437   1.411   7.975  0.00  0.00    +0.000 A 
ATOM     28  C   UNL     1      45.416   1.857   8.818  0.00  0.00    +0.000 A 
ENDBRANCH  22  23
ENDBRANCH  21  22
ENDBRANCH  20  21
ENDBRANCH   4  19
TORSDOF 9
ENDMDL
MODEL 8
REMARK VINA RESULT:    -6.171      4.232      8.463
REMARK INTER + INTRA:         -10.564
REMARK INTER:                  -9.604
REMARK INTRA:                  -0.960
REMARK UNBOUND:                -1.147
REMARK  Name = 
REMARK  10 active torsions:
REMARK  status: ('A' for Active; 'I' for Inactive)
REMARK    1  A    between atoms: C_1  and  C_2
REMARK    2  A    between atoms: C_2  and  N_3
REMARK    3  A    between atoms: C_2  and  C_12
REMARK    4  A    between atoms: N_3  and  C_4
REMARK    5  A    between atoms: C_4  and  C_5
REMARK    6  A    between atoms: C_5  and  C_6
REMARK    7  A    between atoms: C_15  and  C_16
REMARK    8  A    between atoms: C_17  and  C_18
REMARK    9  A    between atoms: C_18  and  O_19
REMARK   10  A    between atoms: O_19  and  C_20
REMARK                            x       y       z     vdW  Elec       q    Type
REMARK                         _______ _______ _______ _____ _____    ______ ____
ROOT
ATOM      1  C   UNL     1      44.942   5.833  12.180  0.00  0.00    +0.000 A 
ATOM      2  C   UNL     1      46.142   5.979  12.884  0.00  0.00    +0.000 A 
ATOM      3  C   UNL     1      46.836   7.179  12.854  0.00  0.00    +0.000 A 
ATOM      4  C   UNL     1      46.266   8.259  12.201  0.00  0.00    +0.000 A 
ATOM      5  C   UNL     1      45.036   8.079  11.596  0.00  0.00    +0.000 A 
ATOM      6  N   UNL     1      44.379   6.896  11.551  0.00  0.00    +0.000 NA
ENDROOT
BRANCH   1   8
ATOM      7  C   UNL     1      43.223   4.315  13.281  0.00  0.00    +0.000 C 
ATOM      8  C   UNL     1      44.217   4.481  12.117  0.00  0.00    +0.000 C 
BRANCH   8   9
ATOM      9  N   UNL     1      43.448   4.228  10.875  0.00  0.00    +0.000 NA
ATOM     10  H   UNL     1      43.293   5.122  10.406  0.00  0.00    +0.000 HD
BRANCH   9  11
ATOM     11  C   UNL     1      44.019   3.272   9.923  0.00  0.00    +0.000 C 
BRANCH  11  12
ATOM     12  C   UNL     1      44.697   3.917   8.694  0.00  0.00    +0.000 C 
BRANCH  12  13
ATOM     13  C   UNL     1      45.699   3.012   8.024  0.00  0.00    +0.000 A 
ATOM     14  C   UNL     1      46.518   3.464   6.982  0.00  0.00    +0.000 A 
ATOM     15  C   UNL     1      47.438   2.596   6.402  0.00  0.00    +0.000 A 
ATOM     16  C   UNL     1      47.510   1.301   6.886  0.00  0.00    +0.000 A 
ATOM     17  N   UNL     1      46.740   0.830   7.889  0.00  0.00    +0.000 NA
ATOM     18  C   UNL     1      45.859   1.695   8.437  0.00  0.00    +0.000 A 
ENDBRANCH  12  13
ENDBRANCH  11  12
ENDBRANCH   9  11
ENDBRANCH   8   9
ENDBRANCH   1   8
BRANCH   4  19
ATOM     19  C   UNL     1      46.933   9.504  12.196  0.00  0.00    +0.000 C 
ATOM     20  C   UNL     1      47.519  10.550  12.154  0.00  0.00    +0.000 C 
BRANCH  20  21
ATOM     21  C   UNL     1      48.295  11.787  12.102  0.00  0.00    +0.000 C 
BRANCH  21  22
ATOM     22  O   UNL     1      49.530  11.623  12.797  0.00  0.00    +0.000 OA
BRANCH  22  23
ATOM     23  C   UNL     1      50.336  10.614  12.335  0.00  0.00    +0.000 A 
ATOM     24  C   UNL     1      50.881  10.538  11.050  0.00  0.00    +0.000 A 
ATOM     25  C   UNL     1      51.685   9.457  10.686  0.00  0.00    +0.000 A 
ATOM     26  C   UNL     1      51.955   8.447  11.607  0.00  0.00    +0.000 A 
ATOM     27  C   UNL     1      51.416   8.516  12.890  0.00  0.00    +0.000 A 
ATOM     28  C   UNL     1      50.609   9.598  13.252  0.00  0.00    +0.000 A 
ENDBRANCH  22  23
ENDBRANCH  21  22
ENDBRANCH  20  21
ENDBRANCH   4  19
TORSDOF 9
ENDMDL
