MODEL 1
REMARK VINA RESULT:    -6.397      0.000      0.000
REMARK INTER + INTRA:          -9.689
REMARK INTER:                  -8.641
REMARK INTRA:                  -1.047
REMARK UNBOUND:                -1.047
REMARK  Name = 
REMARK  8 active torsions:
REMARK  status: ('A' for Active; 'I' for Inactive)
REMARK    1  A    between atoms: C_1  and  C_2
REMARK    2  A    between atoms: C_2  and  C_3
REMARK    3  A    between atoms: C_3  and  N_4
REMARK    4  A    between atoms: N_4  and  C_5
REMARK    5  A    between atoms: C_8  and  C_9
REMARK    6  A    between atoms: C_12  and  C_13
REMARK    7  A    between atoms: C_13  and  N_14
REMARK    8  A    between atoms: C_19  and  C_20
REMARK                            x       y       z     vdW  Elec       q    Type
REMARK                         _______ _______ _______ _____ _____    ______ ____
ROOT
ATOM      1  C   UNL     1      44.591   3.063   9.702  0.00  0.00    +0.000 A 
ATOM      2  C   UNL     1      44.761   1.738   9.258  0.00  0.00    +0.000 A 
ATOM      3  C   UNL     1      45.699   1.391   8.280  0.00  0.00    +0.000 A 
ATOM      4  C   UNL     1      46.479   2.376   7.688  0.00  0.00    +0.000 A 
ATOM      5  C   UNL     1      46.331   3.701   8.100  0.00  0.00    +0.000 A 
ATOM      6  C   UNL     1      45.407   4.058   9.111  0.00  0.00    +0.000 A 
ENDROOT
BRANCH   1   7
ATOM      7  N   UNL     1      43.553   3.397  10.588  0.00  0.00    +0.000 N 
ATOM      8  H   UNL     1      43.116   4.291  10.384  0.00  0.00    +0.000 HD
BRANCH   7   9
ATOM      9  C   UNL     1      43.766   3.212  12.025  0.00  0.00    +0.000 C 
BRANCH   9  11
ATOM     10  C   UNL     1      42.466   5.367  11.895  0.00  0.00    +0.000 C 
ATOM     11  C   UNL     1      43.310   4.461  12.779  0.00  0.00    +0.000 C 
ENDBRANCH   9  11
ENDBRANCH   7   9
ENDBRANCH   1   7
BRANCH   4  12
ATOM     12  C   UNL     1      47.421   2.034   6.661  0.00  0.00    +0.000 C 
ATOM     13  N   UNL     1      48.176   1.756   5.827  0.00  0.00    +0.000 NA
ENDBRANCH   4  12
BRANCH   6  14
ATOM     14  C   UNL     1      45.369   5.522   9.515  0.00  0.00    +0.000 C 
BRANCH  14  15
ATOM     15  N   UNL     1      46.112   5.716  10.752  0.00  0.00    +0.000 N 
ATOM     16  C   UNL     1      45.823   6.927  11.406  0.00  0.00    +0.000 A 
ATOM     17  C   UNL     1      46.484   7.204  12.598  0.00  0.00    +0.000 A 
ATOM     18  C   UNL     1      46.220   8.396  13.269  0.00  0.00    +0.000 A 
ATOM     19  C   UNL     1      45.295   9.284  12.735  0.00  0.00    +0.000 A 
ATOM     20  C   UNL     1      44.660   8.940  11.549  0.00  0.00    +0.000 A 
ATOM     21  C   UNL     1      43.654   9.857  10.921  0.00  0.00    +0.000 C 
ATOM     22  N   UNL     1      44.909   7.779  10.894  0.00  0.00    +0.000 NA
ATOM     23  H   UNL     1      47.114   5.647  10.596  0.00  0.00    +0.000 HD
ENDBRANCH  14  15
ENDBRANCH   6  14
TORSDOF 6
ENDMDL
MODEL 2
REMARK VINA RESULT:    -5.968      4.058      6.371
REMARK INTER + INTRA:          -9.109
REMARK INTER:                  -8.559
REMARK INTRA:                  -0.550
REMARK UNBOUND:                -1.047
REMARK  Name = 
REMARK  8 active torsions:
REMARK  status: ('A' for Active; 'I' for Inactive)
REMARK    1  A    between atoms: C_1  and  C_2
REMARK    2  A    between atoms: C_2  and  C_3
REMARK    3  A    between atoms: C_3  and  N_4
REMARK    4  A    between atoms: N_4  and  C_5
REMARK    5  A    between atoms: C_8  and  C_9
REMARK    6  A    between atoms: C_12  and  C_13
REMARK    7  A    between atoms: C_13  and  N_14
REMARK    8  A    between atoms: C_19  and  C_20
REMARK                            x       y       z     vdW  Elec       q    Type
REMARK                         _______ _______ _______ _____ _____    ______ ____
ROOT
ATOM      1  C   UNL     1      46.603   6.305  11.873  0.00  0.00    +0.000 A 
ATOM      2  C   UNL     1      45.753   6.139  10.762  0.00  0.00    +0.000 A 
ATOM      3  C   UNL     1      44.807   5.112  10.692  0.00  0.00    +0.000 A 
ATOM      4  C   UNL     1      44.705   4.191  11.727  0.00  0.00    +0.000 A 
ATOM      5  C   UNL     1      45.538   4.322  12.839  0.00  0.00    +0.000 A 
ATOM      6  C   UNL     1      46.477   5.377  12.934  0.00  0.00    +0.000 A 
ENDROOT
BRANCH   1   7
ATOM      7  N   UNL     1      47.629   7.264  11.855  0.00  0.00    +0.000 N 
ATOM      8  H   UNL     1      48.482   6.956  12.312  0.00  0.00    +0.000 HD
BRANCH   7   9
ATOM      9  C   UNL     1      47.304   8.651  12.192  0.00  0.00    +0.000 C 
BRANCH   9  11
ATOM     10  C   UNL     1      44.988   9.644  12.271  0.00  0.00    +0.000 C 
ATOM     11  C   UNL     1      45.974   8.701  12.946  0.00  0.00    +0.000 C 
ENDBRANCH   9  11
ENDBRANCH   7   9
ENDBRANCH   1   7
BRANCH   4  12
ATOM     12  C   UNL     1      43.759   3.116  11.649  0.00  0.00    +0.000 C 
ATOM     13  N   UNL     1      43.001   2.241  11.588  0.00  0.00    +0.000 NA
ENDBRANCH   4  12
BRANCH   6  14
ATOM     14  C   UNL     1      47.293   5.452  14.214  0.00  0.00    +0.000 C 
BRANCH  14  15
ATOM     15  N   UNL     1      46.772   4.509  15.192  0.00  0.00    +0.000 N 
ATOM     16  C   UNL     1      47.646   4.261  16.266  0.00  0.00    +0.000 A 
ATOM     17  C   UNL     1      47.236   3.372  17.255  0.00  0.00    +0.000 A 
ATOM     18  C   UNL     1      48.081   3.105  18.330  0.00  0.00    +0.000 A 
ATOM     19  C   UNL     1      49.314   3.738  18.397  0.00  0.00    +0.000 A 
ATOM     20  C   UNL     1      49.656   4.625  17.385  0.00  0.00    +0.000 A 
ATOM     21  C   UNL     1      50.974   5.338  17.398  0.00  0.00    +0.000 C 
ATOM     22  N   UNL     1      48.836   4.893  16.337  0.00  0.00    +0.000 NA
ATOM     23  H   UNL     1      46.515   3.627  14.756  0.00  0.00    +0.000 HD
ENDBRANCH  14  15
ENDBRANCH   6  14
TORSDOF 6
ENDMDL
MODEL 3
REMARK VINA RESULT:    -5.563      3.473      7.040
REMARK INTER + INTRA:          -8.562
REMARK INTER:                  -6.957
REMARK INTRA:                  -1.605
REMARK UNBOUND:                -1.047
REMARK  Name = 
REMARK  8 active torsions:
REMARK  status: ('A' for Active; 'I' for Inactive)
REMARK    1  A    between atoms: C_1  and  C_2
REMARK    2  A    between atoms: C_2  and  C_3
REMARK    3  A    between atoms: C_3  and  N_4
REMARK    4  A    between atoms: N_4  and  C_5
REMARK    5  A    between atoms: C_8  and  C_9
REMARK    6  A    between atoms: C_12  and  C_13
REMARK    7  A    between atoms: C_13  and  N_14
REMARK    8  A    between atoms: C_19  and  C_20
REMARK                            x       y       z     vdW  Elec       q    Type
REMARK                         _______ _______ _______ _____ _____    ______ ____
ROOT
ATOM      1  C   UNL     1      48.119   6.199  14.025  0.00  0.00    +0.000 A 
ATOM      2  C   UNL     1      48.858   7.091  14.825  0.00  0.00    +0.000 A 
ATOM      3  C   UNL     1      49.062   6.876  16.192  0.00  0.00    +0.000 A 
ATOM      4  C   UNL     1      48.497   5.768  16.811  0.00  0.00    +0.000 A 
ATOM      5  C   UNL     1      47.752   4.868  16.048  0.00  0.00    +0.000 A 
ATOM      6  C   UNL     1      47.567   5.059  14.658  0.00  0.00    +0.000 A 
ENDROOT
BRANCH   1   7
ATOM      7  N   UNL     1      47.823   6.510  12.687  0.00  0.00    +0.000 N 
ATOM      8  H   UNL     1      48.529   6.194  12.029  0.00  0.00    +0.000 HD
BRANCH   7   9
ATOM      9  C   UNL     1      47.348   7.857  12.366  0.00  0.00    +0.000 C 
BRANCH   9  11
ATOM     10  C   UNL     1      44.975   8.383  11.699  0.00  0.00    +0.000 C 
ATOM     11  C   UNL     1      45.906   8.025  12.848  0.00  0.00    +0.000 C 
ENDBRANCH   9  11
ENDBRANCH   7   9
ENDBRANCH   1   7
BRANCH   4  12
ATOM     12  C   UNL     1      48.674   5.557  18.219  0.00  0.00    +0.000 C 
ATOM     13  N   UNL     1      48.813   5.394  19.358  0.00  0.00    +0.000 NA
ENDBRANCH   4  12
BRANCH   6  14
ATOM     14  C   UNL     1      46.783   3.988  13.919  0.00  0.00    +0.000 C 
BRANCH  14  15
ATOM     15  N   UNL     1      45.354   4.217  14.079  0.00  0.00    +0.000 N 
ATOM     16  C   UNL     1      44.694   4.545  12.882  0.00  0.00    +0.000 A 
ATOM     17  C   UNL     1      43.324   4.782  12.931  0.00  0.00    +0.000 A 
ATOM     18  C   UNL     1      42.641   5.110  11.761  0.00  0.00    +0.000 A 
ATOM     19  C   UNL     1      43.342   5.187  10.566  0.00  0.00    +0.000 A 
ATOM     20  C   UNL     1      44.706   4.924  10.583  0.00  0.00    +0.000 A 
ATOM     21  C   UNL     1      45.519   4.993   9.326  0.00  0.00    +0.000 C 
ATOM     22  N   UNL     1      45.375   4.599  11.718  0.00  0.00    +0.000 NA
ATOM     23  H   UNL     1      45.170   4.936  14.773  0.00  0.00    +0.000 HD
ENDBRANCH  14  15
ENDBRANCH   6  14
TORSDOF 6
ENDMDL
MODEL 4
REMARK VINA RESULT:    -5.360      5.531      8.080
REMARK INTER + INTRA:          -8.288
REMARK INTER:                  -7.732
REMARK INTRA:                  -0.556
REMARK UNBOUND:                -1.047
REMARK  Name = 
REMARK  8 active torsions:
REMARK  status: ('A' for Active; 'I' for Inactive)
REMARK    1  A    between atoms: C_1  and  C_2
REMARK    2  A    between atoms: C_2  and  C_3
REMARK    3  A    between atoms: C_3  and  N_4
REMARK    4  A    between atoms: N_4  and  C_5
REMARK    5  A    between atoms: C_8  and  C_9
REMARK    6  A    between atoms: C_12  and  C_13
REMARK    7  A    between atoms: C_13  and  N_14
REMARK    8  A    between atoms: C_19  and  C_20
REMARK                            x       y       z     vdW  Elec       q    Type
REMARK                         _______ _______ _______ _____ _____    ______ ____
ROOT
ATOM      1  C   UNL     1      48.564   5.400  17.604  0.00  0.00    +0.000 A 
ATOM      2  C   UNL     1      49.708   5.225  18.406  0.00  0.00    +0.000 A 
ATOM      3  C   UNL     1      50.502   4.075  18.335  0.00  0.00    +0.000 A 
ATOM      4  C   UNL     1      50.150   3.042  17.475  0.00  0.00    +0.000 A 
ATOM      5  C   UNL     1      49.018   3.181  16.672  0.00  0.00    +0.000 A 
ATOM      6  C   UNL     1      48.226   4.352  16.713  0.00  0.00    +0.000 A 
ENDROOT
BRANCH   1   7
ATOM      7  N   UNL     1      47.717   6.504  17.793  0.00  0.00    +0.000 N 
ATOM      8  H   UNL     1      47.950   7.301  17.208  0.00  0.00    +0.000 HD
BRANCH   7   9
ATOM      9  C   UNL     1      47.386   6.913  19.159  0.00  0.00    +0.000 C 
BRANCH   9  11
ATOM     10  C   UNL     1      47.895   9.087  17.992  0.00  0.00    +0.000 C 
ATOM     11  C   UNL     1      47.315   8.438  19.239  0.00  0.00    +0.000 C 
ENDBRANCH   9  11
ENDBRANCH   7   9
ENDBRANCH   1   7
BRANCH   4  12
ATOM     12  C   UNL     1      50.941   1.846  17.419  0.00  0.00    +0.000 C 
ATOM     13  N   UNL     1      51.586   0.884  17.378  0.00  0.00    +0.000 NA
ENDBRANCH   4  12
BRANCH   6  14
ATOM     14  C   UNL     1      47.047   4.414  15.756  0.00  0.00    +0.000 C 
BRANCH  14  15
ATOM     15  N   UNL     1      47.323   5.362  14.686  0.00  0.00    +0.000 N 
ATOM     16  C   UNL     1      46.511   5.191  13.551  0.00  0.00    +0.000 A 
ATOM     17  C   UNL     1      46.700   6.050  12.473  0.00  0.00    +0.000 A 
ATOM     18  C   UNL     1      45.911   5.906  11.334  0.00  0.00    +0.000 A 
ATOM     19  C   UNL     1      44.946   4.909  11.299  0.00  0.00    +0.000 A 
ATOM     20  C   UNL     1      44.799   4.094  12.414  0.00  0.00    +0.000 A 
ATOM     21  C   UNL     1      43.777   2.998  12.438  0.00  0.00    +0.000 C 
ATOM     22  N   UNL     1      45.561   4.233  13.529  0.00  0.00    +0.000 NA
ATOM     23  H   UNL     1      48.301   5.332  14.409  0.00  0.00    +0.000 HD
ENDBRANCH  14  15
ENDBRANCH   6  14
TORSDOF 6
ENDMDL
MODEL 5
REMARK VINA RESULT:    -5.292      4.645      7.096
REMARK INTER + INTRA:          -8.195
REMARK INTER:                  -6.810
REMARK INTRA:                  -1.385
REMARK UNBOUND:                -1.047
REMARK  Name = 
REMARK  8 active torsions:
REMARK  status: ('A' for Active; 'I' for Inactive)
REMARK    1  A    between atoms: C_1  and  C_2
REMARK    2  A    between atoms: C_2  and  C_3
REMARK    3  A    between atoms: C_3  and  N_4
REMARK    4  A    between atoms: N_4  and  C_5
REMARK    5  A    between atoms: C_8  and  C_9
REMARK    6  A    between atoms: C_12  and  C_13
REMARK    7  A    between atoms: C_13  and  N_14
REMARK    8  A    between atoms: C_19  and  C_20
REMARK                            x       y       z     vdW  Elec       q    Type
REMARK                         _______ _______ _______ _____ _____    ______ ____
ROOT
ATOM      1  C   UNL     1      47.590   6.179  13.414  0.00  0.00    +0.000 A 
ATOM      2  C   UNL     1      47.144   7.010  12.370  0.00  0.00    +0.000 A 
ATOM      3  C   UNL     1      46.091   6.648  11.523  0.00  0.00    +0.000 A 
ATOM      4  C   UNL     1      45.470   5.415  11.678  0.00  0.00    +0.000 A 
ATOM      5  C   UNL     1      45.893   4.563  12.699  0.00  0.00    +0.000 A 
ATOM      6  C   UNL     1      46.936   4.934  13.581  0.00  0.00    +0.000 A 
ENDROOT
BRANCH   1   7
ATOM      7  N   UNL     1      48.732   6.513  14.161  0.00  0.00    +0.000 N 
ATOM      8  H   UNL     1      48.944   5.849  14.900  0.00  0.00    +0.000 HD
BRANCH   7   9
ATOM      9  C   UNL     1      48.899   7.896  14.611  0.00  0.00    +0.000 C 
BRANCH   9  11
ATOM     10  C   UNL     1      50.161   8.107  16.782  0.00  0.00    +0.000 C 
ATOM     11  C   UNL     1      48.792   7.960  16.135  0.00  0.00    +0.000 C 
ENDBRANCH   9  11
ENDBRANCH   7   9
ENDBRANCH   1   7
BRANCH   4  12
ATOM     12  C   UNL     1      44.411   5.022  10.794  0.00  0.00    +0.000 C 
ATOM     13  N   UNL     1      43.556   4.711  10.076  0.00  0.00    +0.000 NA
ENDBRANCH   4  12
BRANCH   6  14
ATOM     14  C   UNL     1      47.276   3.950  14.688  0.00  0.00    +0.000 C 
BRANCH  14  15
ATOM     15  N   UNL     1      46.700   4.398  15.947  0.00  0.00    +0.000 N 
ATOM     16  C   UNL     1      47.645   4.591  16.969  0.00  0.00    +0.000 A 
ATOM     17  C   UNL     1      47.191   5.020  18.212  0.00  0.00    +0.000 A 
ATOM     18  C   UNL     1      48.104   5.220  19.246  0.00  0.00    +0.000 A 
ATOM     19  C   UNL     1      49.453   4.992  19.012  0.00  0.00    +0.000 A 
ATOM     20  C   UNL     1      49.842   4.579  17.745  0.00  0.00    +0.000 A 
ATOM     21  C   UNL     1      51.283   4.314  17.430  0.00  0.00    +0.000 C 
ATOM     22  N   UNL     1      48.959   4.388  16.733  0.00  0.00    +0.000 NA
ATOM     23  H   UNL     1      45.978   3.760  16.271  0.00  0.00    +0.000 HD
ENDBRANCH  14  15
ENDBRANCH   6  14
TORSDOF 6
ENDMDL
MODEL 6
REMARK VINA RESULT:    -4.991      3.580      6.369
REMARK INTER + INTRA:          -7.789
REMARK INTER:                  -7.176
REMARK INTRA:                  -0.613
REMARK UNBOUND:                -1.047
REMARK  Name = 
REMARK  8 active torsions:
REMARK  status: ('A' for Active; 'I' for Inactive)
REMARK    1  A    between atoms: C_1  and  C_2
REMARK    2  A    between atoms: C_2  and  C_3
REMARK    3  A    between atoms: C_3  and  N_4
REMARK    4  A    between atoms: N_4  and  C_5
REMARK    5  A    between atoms: C_8  and  C_9
REMARK    6  A    between atoms: C_12  and  C_13
REMARK    7  A    between atoms: C_13  and  N_14
REMARK    8  A    between atoms: C_19  and  C_20
REMARK                            x       y       z     vdW  Elec       q    Type
REMARK                         _______ _______ _______ _____ _____    ______ ____
ROOT
ATOM      1  C   UNL     1      44.999   5.296  12.072  0.00  0.00    +0.000 A 
ATOM      2  C   UNL     1      44.029   6.044  11.377  0.00  0.00    +0.000 A 
ATOM      3  C   UNL     1      44.050   7.442  11.338  0.00  0.00    +0.000 A 
ATOM      4  C   UNL     1      45.033   8.140  12.030  0.00  0.00    +0.000 A 
ATOM      5  C   UNL     1      46.004   7.428  12.735  0.00  0.00    +0.000 A 
ATOM      6  C   UNL     1      46.010   6.013  12.755  0.00  0.00    +0.000 A 
ENDROOT
BRANCH   1   7
ATOM      7  N   UNL     1      44.874   3.902  12.201  0.00  0.00    +0.000 N 
ATOM      8  H   UNL     1      45.725   3.444  12.513  0.00  0.00    +0.000 HD
BRANCH   7   9
ATOM      9  C   UNL     1      44.217   3.151  11.129  0.00  0.00    +0.000 C 
BRANCH   9  11
ATOM     10  C   UNL     1      44.679   1.878   9.004  0.00  0.00    +0.000 C 
ATOM     11  C   UNL     1      45.203   2.918   9.983  0.00  0.00    +0.000 C 
ENDBRANCH   9  11
ENDBRANCH   7   9
ENDBRANCH   1   7
BRANCH   4  12
ATOM     12  C   UNL     1      45.043   9.574  12.021  0.00  0.00    +0.000 C 
ATOM     13  N   UNL     1      45.044  10.733  12.017  0.00  0.00    +0.000 NA
ENDBRANCH   4  12
BRANCH   6  14
ATOM     14  C   UNL     1      47.146   5.346  13.512  0.00  0.00    +0.000 C 
BRANCH  14  15
ATOM     15  N   UNL     1      47.872   6.335  14.295  0.00  0.00    +0.000 N 
ATOM     16  C   UNL     1      48.225   5.894  15.583  0.00  0.00    +0.000 A 
ATOM     17  C   UNL     1      48.922   6.769  16.409  0.00  0.00    +0.000 A 
ATOM     18  C   UNL     1      49.285   6.361  17.691  0.00  0.00    +0.000 A 
ATOM     19  C   UNL     1      48.949   5.084  18.116  0.00  0.00    +0.000 A 
ATOM     20  C   UNL     1      48.265   4.254  17.237  0.00  0.00    +0.000 A 
ATOM     21  C   UNL     1      47.871   2.865  17.638  0.00  0.00    +0.000 C 
ATOM     22  N   UNL     1      47.913   4.644  15.986  0.00  0.00    +0.000 NA
ATOM     23  H   UNL     1      47.350   7.204  14.368  0.00  0.00    +0.000 HD
ENDBRANCH  14  15
ENDBRANCH   6  14
TORSDOF 6
ENDMDL
MODEL 7
REMARK VINA RESULT:    -4.976      3.572      7.237
REMARK INTER + INTRA:          -7.768
REMARK INTER:                  -6.904
REMARK INTRA:                  -0.864
REMARK UNBOUND:                -1.047
REMARK  Name = 
REMARK  8 active torsions:
REMARK  status: ('A' for Active; 'I' for Inactive)
REMARK    1  A    between atoms: C_1  and  C_2
REMARK    2  A    between atoms: C_2  and  C_3
REMARK    3  A    between atoms: C_3  and  N_4
REMARK    4  A    between atoms: N_4  and  C_5
REMARK    5  A    between atoms: C_8  and  C_9
REMARK    6  A    between atoms: C_12  and  C_13
REMARK    7  A    between atoms: C_13  and  N_14
REMARK    8  A    between atoms: C_19  and  C_20
REMARK                            x       y       z     vdW  Elec       q    Type
REMARK                         _______ _______ _______ _____ _____    ______ ____
ROOT
ATOM      1  C   UNL     1      48.847   7.025  14.638  0.00  0.00    +0.000 A 
ATOM      2  C   UNL     1      49.303   6.718  15.934  0.00  0.00    +0.000 A 
ATOM      3  C   UNL     1      48.801   5.637  16.666  0.00  0.00    +0.000 A 
ATOM      4  C   UNL     1      47.795   4.844  16.130  0.00  0.00    +0.000 A 
ATOM      5  C   UNL     1      47.315   5.126  14.850  0.00  0.00    +0.000 A 
ATOM      6  C   UNL     1      47.837   6.198  14.088  0.00  0.00    +0.000 A 
ENDROOT
BRANCH   1   7
ATOM      7  N   UNL     1      49.275   8.192  13.983  0.00  0.00    +0.000 N 
ATOM      8  H   UNL     1      48.567   8.606  13.384  0.00  0.00    +0.000 HD
BRANCH   7   9
ATOM      9  C   UNL     1      50.594   8.200  13.348  0.00  0.00    +0.000 C 
BRANCH   9  11
ATOM     10  C   UNL     1      49.270   9.314  11.516  0.00  0.00    +0.000 C 
ATOM     11  C   UNL     1      50.440   8.397  11.839  0.00  0.00    +0.000 C 
ENDBRANCH   9  11
ENDBRANCH   7   9
ENDBRANCH   1   7
BRANCH   4  12
ATOM     12  C   UNL     1      47.253   3.752  16.887  0.00  0.00    +0.000 C 
ATOM     13  N   UNL     1      46.807   2.874  17.497  0.00  0.00    +0.000 NA
ENDBRANCH   4  12
BRANCH   6  14
ATOM     14  C   UNL     1      47.276   6.377  12.688  0.00  0.00    +0.000 C 
BRANCH  14  15
ATOM     15  N   UNL     1      45.891   6.817  12.759  0.00  0.00    +0.000 N 
ATOM     16  C   UNL     1      44.987   5.959  12.107  0.00  0.00    +0.000 A 
ATOM     17  C   UNL     1      43.637   6.295  12.120  0.00  0.00    +0.000 A 
ATOM     18  C   UNL     1      42.718   5.465  11.481  0.00  0.00    +0.000 A 
ATOM     19  C   UNL     1      43.167   4.314  10.849  0.00  0.00    +0.000 A 
ATOM     20  C   UNL     1      44.526   4.030  10.886  0.00  0.00    +0.000 A 
ATOM     21  C   UNL     1      45.075   2.804  10.220  0.00  0.00    +0.000 C 
ATOM     22  N   UNL     1      45.426   4.831  11.510  0.00  0.00    +0.000 NA
ATOM     23  H   UNL     1      45.783   7.760  12.396  0.00  0.00    +0.000 HD
ENDBRANCH  14  15
ENDBRANCH   6  14
TORSDOF 6
ENDMDL
MODEL 8
REMARK VINA RESULT:    -4.965      3.511      5.554
REMARK INTER + INTRA:          -7.754
REMARK INTER:                  -7.637
REMARK INTRA:                  -0.117
REMARK UNBOUND:                -1.047
REMARK  Name = 
REMARK  8 active torsions:
REMARK  status: ('A' for Active; 'I' for Inactive)
REMARK    1  A    between atoms: C_1  and  C_2
REMARK    2  A    between atoms: C_2  and  C_3
REMARK    3  A    between atoms: C_3  and  N_4
REMARK    4  A    between atoms: N_4  and  C_5
REMARK    5  A    between atoms: C_8  and  C_9
REMARK    6  A    between atoms: C_12  and  C_13
REMARK    7  A    between atoms: C_13  and  N_14
REMARK    8  A    between atoms: C_19  and  C_20
REMARK                            x       y       z     vdW  Elec       q    Type
REMARK                         _______ _______ _______ _____ _____    ______ ____
ROOT
ATOM      1  C   UNL     1      44.675   6.074  12.398  0.00  0.00    +0.000 A 
ATOM      2  C   UNL     1      43.941   6.059  11.196  0.00  0.00    +0.000 A 
ATOM      3  C   UNL     1      43.902   4.939  10.359  0.00  0.00    +0.000 A 
ATOM      4  C   UNL     1      44.632   3.803  10.686  0.00  0.00    +0.000 A 
ATOM      5  C   UNL     1      45.376   3.788  11.866  0.00  0.00    +0.000 A 
ATOM      6  C   UNL     1      45.397   4.904  12.736  0.00  0.00    +0.000 A 
ENDROOT
BRANCH   1   7
ATOM      7  N   UNL     1      44.800   7.256  13.148  0.00  0.00    +0.000 N 
ATOM      8  H   UNL     1      43.915   7.613  13.494  0.00  0.00    +0.000 HD
BRANCH   7   9
ATOM      9  C   UNL     1      45.655   8.329  12.636  0.00  0.00    +0.000 C 
BRANCH   9  11
ATOM     10  C   UNL     1      45.623  10.612  11.569  0.00  0.00    +0.000 C 
ATOM     11  C   UNL     1      44.797   9.538  12.262  0.00  0.00    +0.000 C 
ENDBRANCH   9  11
ENDBRANCH   7   9
ENDBRANCH   1   7
BRANCH   4  12
ATOM     12  C   UNL     1      44.622   2.662   9.817  0.00  0.00    +0.000 C 
ATOM     13  N   UNL     1      44.608   1.737   9.118  0.00  0.00    +0.000 NA
ENDBRANCH   4  12
BRANCH   6  14
ATOM     14  C   UNL     1      46.200   4.756  14.018  0.00  0.00    +0.000 C 
BRANCH  14  15
ATOM     15  N   UNL     1      47.208   5.802  14.098  0.00  0.00    +0.000 N 
ATOM     16  C   UNL     1      48.089   5.661  15.185  0.00  0.00    +0.000 A 
ATOM     17  C   UNL     1      49.090   6.614  15.346  0.00  0.00    +0.000 A 
ATOM     18  C   UNL     1      49.979   6.502  16.414  0.00  0.00    +0.000 A 
ATOM     19  C   UNL     1      49.851   5.435  17.293  0.00  0.00    +0.000 A 
ATOM     20  C   UNL     1      48.840   4.511  17.066  0.00  0.00    +0.000 A 
ATOM     21  C   UNL     1      48.648   3.339  17.981  0.00  0.00    +0.000 C 
ATOM     22  N   UNL     1      47.975   4.612  16.026  0.00  0.00    +0.000 NA
ATOM     23  H   UNL     1      46.782   6.725  14.127  0.00  0.00    +0.000 HD
ENDBRANCH  14  15
ENDBRANCH   6  14
TORSDOF 6
ENDMDL
MODEL 9
REMARK VINA RESULT:    -4.776      3.349      7.343
REMARK INTER + INTRA:          -7.498
REMARK INTER:                  -6.617
REMARK INTRA:                  -0.881
REMARK UNBOUND:                -1.047
REMARK  Name = 
REMARK  8 active torsions:
REMARK  status: ('A' for Active; 'I' for Inactive)
REMARK    1  A    between atoms: C_1  and  C_2
REMARK    2  A    between atoms: C_2  and  C_3
REMARK    3  A    between atoms: C_3  and  N_4
REMARK    4  A    between atoms: N_4  and  C_5
REMARK    5  A    between atoms: C_8  and  C_9
REMARK    6  A    between atoms: C_12  and  C_13
REMARK    7  A    between atoms: C_13  and  N_14
REMARK    8  A    between atoms: C_19  and  C_20
REMARK                            x       y       z     vdW  Elec       q    Type
REMARK                         _______ _______ _______ _____ _____    ______ ____
ROOT
ATOM      1  C   UNL     1      46.421  10.205  11.946  0.00  0.00    +0.000 A 
ATOM      2  C   UNL     1      46.414  11.447  11.283  0.00  0.00    +0.000 A 
ATOM      3  C   UNL     1      45.313  11.894  10.545  0.00  0.00    +0.000 A 
ATOM      4  C   UNL     1      44.188  11.088  10.421  0.00  0.00    +0.000 A 
ATOM      5  C   UNL     1      44.165   9.848  11.060  0.00  0.00    +0.000 A 
ATOM      6  C   UNL     1      45.262   9.400  11.835  0.00  0.00    +0.000 A 
ENDROOT
BRANCH   1   7
ATOM      7  N   UNL     1      47.588   9.729  12.567  0.00  0.00    +0.000 N 
ATOM      8  H   UNL     1      47.877  10.282  13.368  0.00  0.00    +0.000 HD
BRANCH   7   9
ATOM      9  C   UNL     1      48.728   9.350  11.729  0.00  0.00    +0.000 C 
BRANCH   9  11
ATOM     10  C   UNL     1      48.658   7.100  12.861  0.00  0.00    +0.000 C 
ATOM     11  C   UNL     1      48.742   7.834  11.531  0.00  0.00    +0.000 C 
ENDBRANCH   9  11
ENDBRANCH   7   9
ENDBRANCH   1   7
BRANCH   4  12
ATOM     12  C   UNL     1      43.067  11.526   9.640  0.00  0.00    +0.000 C 
ATOM     13  N   UNL     1      42.166  11.883   9.004  0.00  0.00    +0.000 NA
ENDBRANCH   4  12
BRANCH   6  14
ATOM     14  C   UNL     1      45.104   8.057  12.528  0.00  0.00    +0.000 C 
BRANCH  14  15
ATOM     15  N   UNL     1      44.028   7.299  11.907  0.00  0.00    +0.000 N 
ATOM     16  C   UNL     1      44.191   5.905  11.992  0.00  0.00    +0.000 A 
ATOM     17  C   UNL     1      43.213   5.093  11.427  0.00  0.00    +0.000 A 
ATOM     18  C   UNL     1      43.347   3.708  11.494  0.00  0.00    +0.000 A 
ATOM     19  C   UNL     1      44.454   3.164  12.131  0.00  0.00    +0.000 A 
ATOM     20  C   UNL     1      45.386   4.030  12.687  0.00  0.00    +0.000 A 
ATOM     21  C   UNL     1      46.604   3.505  13.386  0.00  0.00    +0.000 C 
ATOM     22  N   UNL     1      45.259   5.380  12.629  0.00  0.00    +0.000 NA
ATOM     23  H   UNL     1      43.902   7.565  10.934  0.00  0.00    +0.000 HD
ENDBRANCH  14  15
ENDBRANCH   6  14
TORSDOF 6
ENDMDL
