MODEL 1
REMARK VINA RESULT:    -8.080      0.000      0.000
REMARK INTER + INTRA:         -10.563
REMARK INTER:                  -9.970
REMARK INTRA:                  -0.594
REMARK UNBOUND:                -0.594
REMARK  Name = 
REMARK  4 active torsions:
REMARK  status: ('A' for Active; 'I' for Inactive)
REMARK    1  A    between atoms: C_2  and  C_4
REMARK    2  A    between atoms: C_8  and  C_9
REMARK    3  A    between atoms: C_9  and  C_10
REMARK    4  A    between atoms: C_14  and  C_15
REMARK                            x       y       z     vdW  Elec       q    Type
REMARK                         _______ _______ _______ _____ _____    ______ ____
ROOT
ATOM      1  C   UNL     1      44.160   5.282  11.507  0.00  0.00    +0.000 C 
ATOM      2  C   UNL     1      43.348   6.486  11.036  0.00  0.00    +0.000 C 
ATOM      3  C   UNL     1      42.886   5.704  12.225  0.00  0.00    +0.000 C 
ENDROOT
BRANCH   1   8
ATOM      4  C   UNL     1      47.076   5.186  14.020  0.00  0.00    +0.000 A 
ATOM      5  C   UNL     1      47.962   6.122  13.475  0.00  0.00    +0.000 A 
ATOM      6  C   UNL     1      47.627   6.785  12.292  0.00  0.00    +0.000 A 
ATOM      7  C   UNL     1      46.414   6.508  11.648  0.00  0.00    +0.000 A 
ATOM      8  C   UNL     1      45.510   5.571  12.170  0.00  0.00    +0.000 A 
ATOM      9  C   UNL     1      45.864   4.929  13.367  0.00  0.00    +0.000 A 
BRANCH   4  11
ATOM     10  N   UNL     1      47.380   5.074  16.440  0.00  0.00    +0.000 N 
ATOM     11  C   UNL     1      47.372   4.411  15.248  0.00  0.00    +0.000 C 
ATOM     12  O   UNL     1      47.578   3.202  15.206  0.00  0.00    +0.000 OA
ATOM     13  H   UNL     1      47.486   4.497  17.266  0.00  0.00    +0.000 HD
ATOM     14  H   UNL     1      46.979   5.995  16.559  0.00  0.00    +0.000 HD
ENDBRANCH   4  11
ENDBRANCH   1   8
BRANCH   1  15
ATOM     15  C   UNL     1      44.157   4.027  10.645  0.00  0.00    +0.000 A 
ATOM     16  C   UNL     1      43.497   2.859  11.018  0.00  0.00    +0.000 A 
ATOM     17  N   UNL     1      43.598   1.673  10.373  0.00  0.00    +0.000 NA
ATOM     18  C   UNL     1      44.434   1.631   9.310  0.00  0.00    +0.000 A 
ATOM     19  C   UNL     1      45.156   2.720   8.822  0.00  0.00    +0.000 A 
ATOM     20  C   UNL     1      44.959   3.935   9.493  0.00  0.00    +0.000 A 
BRANCH  19  21
ATOM     21  C   UNL     1      46.143   2.590   7.744  0.00  0.00    +0.000 A 
ATOM     22  C   UNL     1      47.032   1.532   7.630  0.00  0.00    +0.000 A 
ATOM     23  N   UNL     1      47.901   1.363   6.609  0.00  0.00    +0.000 NA
ATOM     24  C   UNL     1      47.870   2.305   5.656  0.00  0.00    +0.000 A 
ATOM     25  N   UNL     1      47.072   3.381   5.644  0.00  0.00    +0.000 NA
ATOM     26  C   UNL     1      46.227   3.491   6.691  0.00  0.00    +0.000 A 
ENDBRANCH  19  21
ENDBRANCH   1  15
TORSDOF 4
ENDMDL
MODEL 2
REMARK VINA RESULT:    -7.373      3.589      4.792
REMARK INTER + INTRA:          -9.691
REMARK INTER:                  -9.581
REMARK INTRA:                  -0.110
REMARK UNBOUND:                -0.594
REMARK  Name = 
REMARK  4 active torsions:
REMARK  status: ('A' for Active; 'I' for Inactive)
REMARK    1  A    between atoms: C_2  and  C_4
REMARK    2  A    between atoms: C_8  and  C_9
REMARK    3  A    between atoms: C_9  and  C_10
REMARK    4  A    between atoms: C_14  and  C_15
REMARK                            x       y       z     vdW  Elec       q    Type
REMARK                         _______ _______ _______ _____ _____    ______ ____
ROOT
ATOM      1  C   UNL     1      46.005   7.147  11.811  0.00  0.00    +0.000 C 
ATOM      2  C   UNL     1      46.617   6.766  13.157  0.00  0.00    +0.000 C 
ATOM      3  C   UNL     1      47.506   6.942  11.967  0.00  0.00    +0.000 C 
ENDROOT
BRANCH   1   8
ATOM      4  C   UNL     1      43.657  10.090  11.002  0.00  0.00    +0.000 A 
ATOM      5  C   UNL     1      44.451  11.195  11.327  0.00  0.00    +0.000 A 
ATOM      6  C   UNL     1      45.746  10.998  11.814  0.00  0.00    +0.000 A 
ATOM      7  C   UNL     1      46.244   9.700  11.986  0.00  0.00    +0.000 A 
ATOM      8  C   UNL     1      45.468   8.574  11.672  0.00  0.00    +0.000 A 
ATOM      9  C   UNL     1      44.176   8.800  11.172  0.00  0.00    +0.000 A 
BRANCH   4  11
ATOM     10  N   UNL     1      41.296   9.486  11.154  0.00  0.00    +0.000 N 
ATOM     11  C   UNL     1      42.262  10.210  10.518  0.00  0.00    +0.000 C 
ATOM     12  O   UNL     1      41.970  10.961   9.592  0.00  0.00    +0.000 OA
ATOM     13  H   UNL     1      40.343   9.669  10.863  0.00  0.00    +0.000 HD
ATOM     14  H   UNL     1      41.437   9.058  12.060  0.00  0.00    +0.000 HD
ENDBRANCH   4  11
ENDBRANCH   1   8
BRANCH   1  15
ATOM     15  C   UNL     1      45.176   6.106  11.074  0.00  0.00    +0.000 A 
ATOM     16  C   UNL     1      43.913   5.705  11.503  0.00  0.00    +0.000 A 
ATOM     17  N   UNL     1      43.209   4.674  10.982  0.00  0.00    +0.000 NA
ATOM     18  C   UNL     1      43.807   3.971   9.993  0.00  0.00    +0.000 A 
ATOM     19  C   UNL     1      45.064   4.256   9.461  0.00  0.00    +0.000 A 
ATOM     20  C   UNL     1      45.716   5.376   9.999  0.00  0.00    +0.000 A 
BRANCH  19  21
ATOM     21  C   UNL     1      45.719   3.386   8.478  0.00  0.00    +0.000 A 
ATOM     22  C   UNL     1      46.325   3.845   7.319  0.00  0.00    +0.000 A 
ATOM     23  N   UNL     1      46.990   3.065   6.437  0.00  0.00    +0.000 NA
ATOM     24  C   UNL     1      47.048   1.762   6.741  0.00  0.00    +0.000 A 
ATOM     25  N   UNL     1      46.501   1.183   7.818  0.00  0.00    +0.000 NA
ATOM     26  C   UNL     1      45.852   2.016   8.660  0.00  0.00    +0.000 A 
ENDBRANCH  19  21
ENDBRANCH   1  15
TORSDOF 4
ENDMDL
MODEL 3
REMARK VINA RESULT:    -6.967      2.128      4.592
REMARK INTER + INTRA:          -9.190
REMARK INTER:                  -8.614
REMARK INTRA:                  -0.576
REMARK UNBOUND:                -0.594
REMARK  Name = 
REMARK  4 active torsions:
REMARK  status: ('A' for Active; 'I' for Inactive)
REMARK    1  A    between atoms: C_2  and  C_4
REMARK    2  A    between atoms: C_8  and  C_9
REMARK    3  A    between atoms: C_9  and  C_10
REMARK    4  A    between atoms: C_14  and  C_15
REMARK                            x       y       z     vdW  Elec       q    Type
REMARK                         _______ _______ _______ _____ _____    ______ ____
ROOT
ATOM      1  C   UNL     1      48.432   7.668  12.928  0.00  0.00    +0.000 C 
ATOM      2  C   UNL     1      49.671   7.519  12.048  0.00  0.00    +0.000 C 
ATOM      3  C   UNL     1      49.332   8.858  12.623  0.00  0.00    +0.000 C 
ENDROOT
BRANCH   1   8
ATOM      4  C   UNL     1      48.009   5.141  15.802  0.00  0.00    +0.000 A 
ATOM      5  C   UNL     1      48.510   5.856  16.895  0.00  0.00    +0.000 A 
ATOM      6  C   UNL     1      48.991   7.154  16.711  0.00  0.00    +0.000 A 
ATOM      7  C   UNL     1      48.983   7.735  15.437  0.00  0.00    +0.000 A 
ATOM      8  C   UNL     1      48.491   7.039  14.322  0.00  0.00    +0.000 A 
ATOM      9  C   UNL     1      48.000   5.741  14.537  0.00  0.00    +0.000 A 
BRANCH   4  11
ATOM     10  N   UNL     1      46.899   3.365  17.058  0.00  0.00    +0.000 N 
ATOM     11  C   UNL     1      47.518   3.746  15.903  0.00  0.00    +0.000 C 
ATOM     12  O   UNL     1      47.633   2.959  14.969  0.00  0.00    +0.000 OA
ATOM     13  H   UNL     1      46.487   2.440  17.055  0.00  0.00    +0.000 HD
ATOM     14  H   UNL     1      46.560   4.028  17.744  0.00  0.00    +0.000 HD
ENDBRANCH   4  11
ENDBRANCH   1   8
BRANCH   1  15
ATOM     15  C   UNL     1      47.063   7.572  12.270  0.00  0.00    +0.000 A 
ATOM     16  C   UNL     1      46.022   8.450  12.563  0.00  0.00    +0.000 A 
ATOM     17  N   UNL     1      44.747   8.311  12.133  0.00  0.00    +0.000 NA
ATOM     18  C   UNL     1      44.475   7.212  11.392  0.00  0.00    +0.000 A 
ATOM     19  C   UNL     1      45.414   6.251  11.018  0.00  0.00    +0.000 A 
ATOM     20  C   UNL     1      46.730   6.486  11.441  0.00  0.00    +0.000 A 
BRANCH  19  21
ATOM     21  C   UNL     1      45.040   5.015  10.321  0.00  0.00    +0.000 A 
ATOM     22  C   UNL     1      45.472   4.684   9.046  0.00  0.00    +0.000 A 
ATOM     23  N   UNL     1      45.192   3.521   8.416  0.00  0.00    +0.000 NA
ATOM     24  C   UNL     1      44.443   2.651   9.107  0.00  0.00    +0.000 A 
ATOM     25  N   UNL     1      43.952   2.844  10.338  0.00  0.00    +0.000 NA
ATOM     26  C   UNL     1      44.268   4.024  10.912  0.00  0.00    +0.000 A 
ENDBRANCH  19  21
ENDBRANCH   1  15
TORSDOF 4
ENDMDL
MODEL 4
REMARK VINA RESULT:    -6.742      3.193      4.249
REMARK INTER + INTRA:          -8.913
REMARK INTER:                  -8.662
REMARK INTRA:                  -0.251
REMARK UNBOUND:                -0.594
REMARK  Name = 
REMARK  4 active torsions:
REMARK  status: ('A' for Active; 'I' for Inactive)
REMARK    1  A    between atoms: C_2  and  C_4
REMARK    2  A    between atoms: C_8  and  C_9
REMARK    3  A    between atoms: C_9  and  C_10
REMARK    4  A    between atoms: C_14  and  C_15
REMARK                            x       y       z     vdW  Elec       q    Type
REMARK                         _______ _______ _______ _____ _____    ______ ____
ROOT
ATOM      1  C   UNL     1      45.449   6.351  11.787  0.00  0.00    +0.000 C 
ATOM      2  C   UNL     1      45.930   6.128  13.218  0.00  0.00    +0.000 C 
ATOM      3  C   UNL     1      46.932   6.369  12.133  0.00  0.00    +0.000 C 
ENDROOT
BRANCH   1   8
ATOM      4  C   UNL     1      44.771  10.133  11.526  0.00  0.00    +0.000 A 
ATOM      5  C   UNL     1      43.464  10.161  11.027  0.00  0.00    +0.000 A 
ATOM      6  C   UNL     1      42.797   8.962  10.767  0.00  0.00    +0.000 A 
ATOM      7  C   UNL     1      43.435   7.736  10.995  0.00  0.00    +0.000 A 
ATOM      8  C   UNL     1      44.746   7.679  11.491  0.00  0.00    +0.000 A 
ATOM      9  C   UNL     1      45.390   8.898  11.757  0.00  0.00    +0.000 A 
BRANCH   4  11
ATOM     10  N   UNL     1      44.895  12.541  11.912  0.00  0.00    +0.000 N 
ATOM     11  C   UNL     1      45.563  11.357  11.792  0.00  0.00    +0.000 C 
ATOM     12  O   UNL     1      46.782  11.312  11.929  0.00  0.00    +0.000 OA
ATOM     13  H   UNL     1      45.455  13.337  12.192  0.00  0.00    +0.000 HD
ATOM     14  H   UNL     1      43.895  12.595  12.056  0.00  0.00    +0.000 HD
ENDBRANCH   4  11
ENDBRANCH   1   8
BRANCH   1  15
ATOM     15  C   UNL     1      44.868   5.168  11.027  0.00  0.00    +0.000 A 
ATOM     16  C   UNL     1      43.829   4.386  11.528  0.00  0.00    +0.000 A 
ATOM     17  N   UNL     1      43.390   3.233  10.972  0.00  0.00    +0.000 NA
ATOM     18  C   UNL     1      44.042   2.807   9.867  0.00  0.00    +0.000 A 
ATOM     19  C   UNL     1      45.096   3.485   9.253  0.00  0.00    +0.000 A 
ATOM     20  C   UNL     1      45.462   4.705   9.839  0.00  0.00    +0.000 A 
BRANCH  19  21
ATOM     21  C   UNL     1      45.850   2.916   8.130  0.00  0.00    +0.000 A 
ATOM     22  C   UNL     1      46.237   3.637   7.011  0.00  0.00    +0.000 A 
ATOM     23  N   UNL     1      46.988   3.146   6.000  0.00  0.00    +0.000 NA
ATOM     24  C   UNL     1      47.369   1.868   6.126  0.00  0.00    +0.000 A 
ATOM     25  N   UNL     1      47.060   1.055   7.144  0.00  0.00    +0.000 NA
ATOM     26  C   UNL     1      46.309   1.606   8.122  0.00  0.00    +0.000 A 
ENDBRANCH  19  21
ENDBRANCH   1  15
TORSDOF 4
ENDMDL
MODEL 5
REMARK VINA RESULT:    -6.716      3.662      6.839
REMARK INTER + INTRA:          -8.880
REMARK INTER:                  -8.695
REMARK INTRA:                  -0.185
REMARK UNBOUND:                -0.594
REMARK  Name = 
REMARK  4 active torsions:
REMARK  status: ('A' for Active; 'I' for Inactive)
REMARK    1  A    between atoms: C_2  and  C_4
REMARK    2  A    between atoms: C_8  and  C_9
REMARK    3  A    between atoms: C_9  and  C_10
REMARK    4  A    between atoms: C_14  and  C_15
REMARK                            x       y       z     vdW  Elec       q    Type
REMARK                         _______ _______ _______ _____ _____    ______ ____
ROOT
ATOM      1  C   UNL     1      48.252   4.250  16.985  0.00  0.00    +0.000 C 
ATOM      2  C   UNL     1      47.357   4.533  18.189  0.00  0.00    +0.000 C 
ATOM      3  C   UNL     1      47.322   3.183  17.545  0.00  0.00    +0.000 C 
ENDROOT
BRANCH   1   8
ATOM      4  C   UNL     1      51.725   2.716  17.622  0.00  0.00    +0.000 A 
ATOM      5  C   UNL     1      52.517   3.854  17.809  0.00  0.00    +0.000 A 
ATOM      6  C   UNL     1      51.937   5.121  17.725  0.00  0.00    +0.000 A 
ATOM      7  C   UNL     1      50.571   5.255  17.446  0.00  0.00    +0.000 A 
ATOM      8  C   UNL     1      49.754   4.131  17.250  0.00  0.00    +0.000 A 
ATOM      9  C   UNL     1      50.359   2.868  17.353  0.00  0.00    +0.000 A 
BRANCH   4  11
ATOM     10  N   UNL     1      51.447   0.332  18.078  0.00  0.00    +0.000 N 
ATOM     11  C   UNL     1      52.268   1.337  17.656  0.00  0.00    +0.000 C 
ATOM     12  O   UNL     1      53.413   1.093  17.288  0.00  0.00    +0.000 OA
ATOM     13  H   UNL     1      51.818  -0.606  17.992  0.00  0.00    +0.000 HD
ATOM     14  H   UNL     1      50.444   0.437  18.149  0.00  0.00    +0.000 HD
ENDBRANCH   4  11
ENDBRANCH   1   8
BRANCH   1  15
ATOM     15  C   UNL     1      47.914   4.922  15.661  0.00  0.00    +0.000 A 
ATOM     16  C   UNL     1      48.459   6.145  15.275  0.00  0.00    +0.000 A 
ATOM     17  N   UNL     1      48.071   6.858  14.193  0.00  0.00    +0.000 NA
ATOM     18  C   UNL     1      47.054   6.345  13.463  0.00  0.00    +0.000 A 
ATOM     19  C   UNL     1      46.416   5.133  13.727  0.00  0.00    +0.000 A 
ATOM     20  C   UNL     1      46.907   4.410  14.824  0.00  0.00    +0.000 A 
BRANCH  19  21
ATOM     21  C   UNL     1      45.237   4.685  12.977  0.00  0.00    +0.000 A 
ATOM     22  C   UNL     1      44.043   5.387  12.918  0.00  0.00    +0.000 A 
ATOM     23  N   UNL     1      42.971   5.022  12.180  0.00  0.00    +0.000 NA
ATOM     24  C   UNL     1      43.111   3.897  11.466  0.00  0.00    +0.000 A 
ATOM     25  N   UNL     1      44.201   3.118  11.438  0.00  0.00    +0.000 NA
ATOM     26  C   UNL     1      45.237   3.537  12.195  0.00  0.00    +0.000 A 
ENDBRANCH  19  21
ENDBRANCH   1  15
TORSDOF 4
ENDMDL
MODEL 6
REMARK VINA RESULT:    -6.661      2.774      8.198
REMARK INTER + INTRA:          -8.812
REMARK INTER:                  -8.693
REMARK INTRA:                  -0.119
REMARK UNBOUND:                -0.594
REMARK  Name = 
REMARK  4 active torsions:
REMARK  status: ('A' for Active; 'I' for Inactive)
REMARK    1  A    between atoms: C_2  and  C_4
REMARK    2  A    between atoms: C_8  and  C_9
REMARK    3  A    between atoms: C_9  and  C_10
REMARK    4  A    between atoms: C_14  and  C_15
REMARK                            x       y       z     vdW  Elec       q    Type
REMARK                         _______ _______ _______ _____ _____    ______ ____
ROOT
ATOM      1  C   UNL     1      46.754   6.300  12.918  0.00  0.00    +0.000 C 
ATOM      2  C   UNL     1      46.743   7.800  13.202  0.00  0.00    +0.000 C 
ATOM      3  C   UNL     1      47.716   7.245  12.210  0.00  0.00    +0.000 C 
ENDROOT
BRANCH   1   8
ATOM      4  C   UNL     1      44.677   4.774  10.058  0.00  0.00    +0.000 A 
ATOM      5  C   UNL     1      43.393   4.742  10.614  0.00  0.00    +0.000 A 
ATOM      6  C   UNL     1      43.192   5.207  11.916  0.00  0.00    +0.000 A 
ATOM      7  C   UNL     1      44.270   5.694  12.666  0.00  0.00    +0.000 A 
ATOM      8  C   UNL     1      45.568   5.733  12.134  0.00  0.00    +0.000 A 
ATOM      9  C   UNL     1      45.741   5.273  10.819  0.00  0.00    +0.000 A 
BRANCH   4  11
ATOM     10  N   UNL     1      44.160   3.314   8.170  0.00  0.00    +0.000 N 
ATOM     11  C   UNL     1      44.983   4.264   8.701  0.00  0.00    +0.000 C 
ATOM     12  O   UNL     1      45.930   4.700   8.053  0.00  0.00    +0.000 OA
ATOM     13  H   UNL     1      44.339   3.063   7.205  0.00  0.00    +0.000 HD
ATOM     14  H   UNL     1      43.244   3.109   8.547  0.00  0.00    +0.000 HD
ENDBRANCH   4  11
ENDBRANCH   1   8
BRANCH   1  15
ATOM     15  C   UNL     1      47.278   5.364  13.998  0.00  0.00    +0.000 A 
ATOM     16  C   UNL     1      47.173   3.978  13.910  0.00  0.00    +0.000 A 
ATOM     17  N   UNL     1      47.471   3.114  14.908  0.00  0.00    +0.000 NA
ATOM     18  C   UNL     1      47.868   3.657  16.081  0.00  0.00    +0.000 A 
ATOM     19  C   UNL     1      48.021   5.024  16.314  0.00  0.00    +0.000 A 
ATOM     20  C   UNL     1      47.758   5.863  15.222  0.00  0.00    +0.000 A 
BRANCH  19  21
ATOM     21  C   UNL     1      48.332   5.566  17.641  0.00  0.00    +0.000 A 
ATOM     22  C   UNL     1      49.506   6.236  17.950  0.00  0.00    +0.000 A 
ATOM     23  N   UNL     1      49.780   6.799  19.148  0.00  0.00    +0.000 NA
ATOM     24  C   UNL     1      48.822   6.683  20.078  0.00  0.00    +0.000 A 
ATOM     25  N   UNL     1      47.648   6.057  19.920  0.00  0.00    +0.000 NA
ATOM     26  C   UNL     1      47.436   5.517  18.700  0.00  0.00    +0.000 A 
ENDBRANCH  19  21
ENDBRANCH   1  15
TORSDOF 4
ENDMDL
MODEL 7
REMARK VINA RESULT:    -6.527      3.111      5.622
REMARK INTER + INTRA:          -8.647
REMARK INTER:                  -8.188
REMARK INTRA:                  -0.459
REMARK UNBOUND:                -0.594
REMARK  Name = 
REMARK  4 active torsions:
REMARK  status: ('A' for Active; 'I' for Inactive)
REMARK    1  A    between atoms: C_2  and  C_4
REMARK    2  A    between atoms: C_8  and  C_9
REMARK    3  A    between atoms: C_9  and  C_10
REMARK    4  A    between atoms: C_14  and  C_15
REMARK                            x       y       z     vdW  Elec       q    Type
REMARK                         _______ _______ _______ _____ _____    ______ ____
ROOT
ATOM      1  C   UNL     1      48.757   7.753  14.141  0.00  0.00    +0.000 C 
ATOM      2  C   UNL     1      50.096   7.661  13.414  0.00  0.00    +0.000 C 
ATOM      3  C   UNL     1      49.702   8.945  14.073  0.00  0.00    +0.000 C 
ENDROOT
BRANCH   1   8
ATOM      4  C   UNL     1      48.111   4.906  16.651  0.00  0.00    +0.000 A 
ATOM      5  C   UNL     1      48.308   5.548  17.878  0.00  0.00    +0.000 A 
ATOM      6  C   UNL     1      48.656   6.900  17.903  0.00  0.00    +0.000 A 
ATOM      7  C   UNL     1      48.817   7.610  16.706  0.00  0.00    +0.000 A 
ATOM      8  C   UNL     1      48.629   6.989  15.461  0.00  0.00    +0.000 A 
ATOM      9  C   UNL     1      48.266   5.633  15.464  0.00  0.00    +0.000 A 
BRANCH   4  11
ATOM     10  N   UNL     1      47.001   2.905  17.505  0.00  0.00    +0.000 N 
ATOM     11  C   UNL     1      47.779   3.466  16.535  0.00  0.00    +0.000 C 
ATOM     12  O   UNL     1      48.165   2.796  15.582  0.00  0.00    +0.000 OA
ATOM     13  H   UNL     1      46.712   1.949  17.342  0.00  0.00    +0.000 HD
ATOM     14  H   UNL     1      46.460   3.455  18.161  0.00  0.00    +0.000 HD
ENDBRANCH   4  11
ENDBRANCH   1   8
BRANCH   1  15
ATOM     15  C   UNL     1      47.483   7.756  13.309  0.00  0.00    +0.000 A 
ATOM     16  C   UNL     1      46.744   8.912  13.064  0.00  0.00    +0.000 A 
ATOM     17  N   UNL     1      45.527   8.942  12.474  0.00  0.00    +0.000 NA
ATOM     18  C   UNL     1      44.988   7.749  12.134  0.00  0.00    +0.000 A 
ATOM     19  C   UNL     1      45.611   6.514  12.315  0.00  0.00    +0.000 A 
ATOM     20  C   UNL     1      46.897   6.554  12.872  0.00  0.00    +0.000 A 
BRANCH  19  21
ATOM     21  C   UNL     1      44.931   5.242  12.044  0.00  0.00    +0.000 A 
ATOM     22  C   UNL     1      44.557   4.338  13.027  0.00  0.00    +0.000 A 
ATOM     23  N   UNL     1      43.872   3.195  12.801  0.00  0.00    +0.000 NA
ATOM     24  C   UNL     1      43.546   2.954  11.524  0.00  0.00    +0.000 A 
ATOM     25  N   UNL     1      43.851   3.733  10.477  0.00  0.00    +0.000 NA
ATOM     26  C   UNL     1      44.535   4.860  10.770  0.00  0.00    +0.000 A 
ENDBRANCH  19  21
ENDBRANCH   1  15
TORSDOF 4
ENDMDL
MODEL 8
REMARK VINA RESULT:    -6.512      3.205      6.821
REMARK INTER + INTRA:          -8.629
REMARK INTER:                  -8.328
REMARK INTRA:                  -0.301
REMARK UNBOUND:                -0.594
REMARK  Name = 
REMARK  4 active torsions:
REMARK  status: ('A' for Active; 'I' for Inactive)
REMARK    1  A    between atoms: C_2  and  C_4
REMARK    2  A    between atoms: C_8  and  C_9
REMARK    3  A    between atoms: C_9  and  C_10
REMARK    4  A    between atoms: C_14  and  C_15
REMARK                            x       y       z     vdW  Elec       q    Type
REMARK                         _______ _______ _______ _____ _____    ______ ____
ROOT
ATOM      1  C   UNL     1      44.587   5.276  11.470  0.00  0.00    +0.000 C 
ATOM      2  C   UNL     1      43.314   5.374  12.305  0.00  0.00    +0.000 C 
ATOM      3  C   UNL     1      43.541   6.346  11.191  0.00  0.00    +0.000 C 
ENDROOT
BRANCH   1   8
ATOM      4  C   UNL     1      45.605   3.126   8.442  0.00  0.00    +0.000 A 
ATOM      5  C   UNL     1      44.887   1.947   8.668  0.00  0.00    +0.000 A 
ATOM      6  C   UNL     1      44.076   1.836   9.799  0.00  0.00    +0.000 A 
ATOM      7  C   UNL     1      43.988   2.896  10.710  0.00  0.00    +0.000 A 
ATOM      8  C   UNL     1      44.700   4.089  10.511  0.00  0.00    +0.000 A 
ATOM      9  C   UNL     1      45.498   4.180   9.359  0.00  0.00    +0.000 A 
BRANCH   4  11
ATOM     10  N   UNL     1      47.330   2.272   6.940  0.00  0.00    +0.000 N 
ATOM     11  C   UNL     1      46.518   3.310   7.289  0.00  0.00    +0.000 C 
ATOM     12  O   UNL     1      46.528   4.354   6.643  0.00  0.00    +0.000 OA
ATOM     13  H   UNL     1      47.866   2.396   6.089  0.00  0.00    +0.000 HD
ATOM     14  H   UNL     1      47.186   1.326   7.271  0.00  0.00    +0.000 HD
ENDBRANCH   4  11
ENDBRANCH   1   8
BRANCH   1  15
ATOM     15  C   UNL     1      45.908   5.667  12.119  0.00  0.00    +0.000 A 
ATOM     16  C   UNL     1      46.421   5.014  13.237  0.00  0.00    +0.000 A 
ATOM     17  N   UNL     1      47.499   5.423  13.946  0.00  0.00    +0.000 NA
ATOM     18  C   UNL     1      48.088   6.572  13.542  0.00  0.00    +0.000 A 
ATOM     19  C   UNL     1      47.687   7.329  12.442  0.00  0.00    +0.000 A 
ATOM     20  C   UNL     1      46.605   6.819  11.711  0.00  0.00    +0.000 A 
BRANCH  19  21
ATOM     21  C   UNL     1      48.282   8.632  12.124  0.00  0.00    +0.000 A 
ATOM     22  C   UNL     1      49.575   8.800  11.652  0.00  0.00    +0.000 A 
ATOM     23  N   UNL     1      50.116   9.985  11.292  0.00  0.00    +0.000 NA
ATOM     24  C   UNL     1      49.313  11.051  11.410  0.00  0.00    +0.000 A 
ATOM     25  N   UNL     1      48.051  11.035  11.859  0.00  0.00    +0.000 NA
ATOM     26  C   UNL     1      47.570   9.821  12.202  0.00  0.00    +0.000 A 
ENDBRANCH  19  21
ENDBRANCH   1  15
TORSDOF 4
ENDMDL
MODEL 9
REMARK VINA RESULT:    -6.097      4.000      6.784
REMARK INTER + INTRA:          -8.117
REMARK INTER:                  -7.686
REMARK INTRA:                  -0.431
REMARK UNBOUND:                -0.594
REMARK  Name = 
REMARK  4 active torsions:
REMARK  status: ('A' for Active; 'I' for Inactive)
REMARK    1  A    between atoms: C_2  and  C_4
REMARK    2  A    between atoms: C_8  and  C_9
REMARK    3  A    between atoms: C_9  and  C_10
REMARK    4  A    between atoms: C_14  and  C_15
REMARK                            x       y       z     vdW  Elec       q    Type
REMARK                         _______ _______ _______ _____ _____    ______ ____
ROOT
ATOM      1  C   UNL     1      46.332   7.646  12.278  0.00  0.00    +0.000 C 
ATOM      2  C   UNL     1      45.439   8.656  12.993  0.00  0.00    +0.000 C 
ATOM      3  C   UNL     1      45.794   8.874  11.557  0.00  0.00    +0.000 C 
ENDROOT
BRANCH   1   8
ATOM      4  C   UNL     1      45.070   4.591  10.304  0.00  0.00    +0.000 A 
ATOM      5  C   UNL     1      44.533   3.790  11.317  0.00  0.00    +0.000 A 
ATOM      6  C   UNL     1      44.579   4.228  12.642  0.00  0.00    +0.000 A 
ATOM      7  C   UNL     1      45.170   5.458  12.959  0.00  0.00    +0.000 A 
ATOM      8  C   UNL     1      45.720   6.279  11.963  0.00  0.00    +0.000 A 
ATOM      9  C   UNL     1      45.648   5.822  10.637  0.00  0.00    +0.000 A 
BRANCH   4  11
ATOM     10  N   UNL     1      44.294   3.152   8.490  0.00  0.00    +0.000 N 
ATOM     11  C   UNL     1      45.097   4.183   8.879  0.00  0.00    +0.000 C 
ATOM     12  O   UNL     1      45.798   4.771   8.060  0.00  0.00    +0.000 OA
ATOM     13  H   UNL     1      44.262   2.967   7.495  0.00  0.00    +0.000 HD
ATOM     14  H   UNL     1      43.529   2.808   9.056  0.00  0.00    +0.000 HD
ENDBRANCH   4  11
ENDBRANCH   1   8
BRANCH   1  15
ATOM     15  C   UNL     1      47.804   7.584  12.662  0.00  0.00    +0.000 A 
ATOM     16  C   UNL     1      48.237   7.531  13.985  0.00  0.00    +0.000 A 
ATOM     17  N   UNL     1      49.525   7.640  14.383  0.00  0.00    +0.000 NA
ATOM     18  C   UNL     1      50.444   7.848  13.412  0.00  0.00    +0.000 A 
ATOM     19  C   UNL     1      50.158   7.921  12.048  0.00  0.00    +0.000 A 
ATOM     20  C   UNL     1      48.814   7.737  11.695  0.00  0.00    +0.000 A 
BRANCH  19  21
ATOM     21  C   UNL     1      51.173   8.274  11.049  0.00  0.00    +0.000 A 
ATOM     22  C   UNL     1      51.814   7.352  10.235  0.00  0.00    +0.000 A 
ATOM     23  N   UNL     1      52.701   7.667   9.265  0.00  0.00    +0.000 NA
ATOM     24  C   UNL     1      52.952   8.974   9.108  0.00  0.00    +0.000 A 
ATOM     25  N   UNL     1      52.414   9.967   9.828  0.00  0.00    +0.000 NA
ATOM     26  C   UNL     1      51.535   9.587  10.779  0.00  0.00    +0.000 A 
ENDBRANCH  19  21
ENDBRANCH   1  15
TORSDOF 4
ENDMDL
