MODEL 1
REMARK VINA RESULT:    -7.788      0.000      0.000
REMARK INTER + INTRA:         -11.771
REMARK INTER:                 -10.747
REMARK INTRA:                  -1.023
REMARK UNBOUND:                -1.023
REMARK  Name = 
REMARK  9 active torsions:
REMARK  status: ('A' for Active; 'I' for Inactive)
REMARK    1  A    between atoms: C_1  and  C_2
REMARK    2  A    between atoms: C_4  and  C_5
REMARK    3  A    between atoms: C_5  and  C_6
REMARK    4  A    between atoms: C_5  and  C_7
REMARK    5  A    between atoms: C_7  and  O_8
REMARK    6  A    between atoms: O_8  and  C_9
REMARK    7  A    between atoms: C_14  and  C_15
REMARK    8  A    between atoms: C_24  and  C_25
REMARK    9  A    between atoms: C_25  and  O_27
REMARK                            x       y       z     vdW  Elec       q    Type
REMARK                         _______ _______ _______ _____ _____    ______ ____
ROOT
ATOM      1  C   UNL     1      45.301   6.920  12.382  0.00  0.00    +0.000 C 
ENDROOT
BRANCH   1   2
ATOM      2  C   UNL     1      46.744   7.070  12.880  0.00  0.00    +0.000 C 
ATOM      3  C   UNL     1      47.706   7.042  11.689  0.00  0.00    +0.000 C 
BRANCH   2   7
ATOM      4  C   UNL     1      48.939   5.811  17.035  0.00  0.00    +0.000 C 
ATOM      5  C   UNL     1      48.140   5.329  15.858  0.00  0.00    +0.000 A 
ATOM      6  N   UNL     1      47.818   6.296  14.952  0.00  0.00    +0.000 NA
ATOM      7  C   UNL     1      47.096   5.961  13.855  0.00  0.00    +0.000 A 
ATOM      8  C   UNL     1      46.665   4.658  13.633  0.00  0.00    +0.000 A 
ATOM      9  C   UNL     1      46.988   3.673  14.563  0.00  0.00    +0.000 A 
ATOM     10  C   UNL     1      47.755   3.996  15.690  0.00  0.00    +0.000 A 
BRANCH  10  11
ATOM     11  C   UNL     1      48.096   2.956  16.695  0.00  0.00    +0.000 C 
ATOM     12  O   UNL     1      49.096   2.262  16.638  0.00  0.00    +0.000 OA
BRANCH  11  13
ATOM     13  O   UNL     1      47.191   2.835  17.691  0.00  0.00    +0.000 OA
ATOM     14  H   UNL     1      46.378   2.342  17.474  0.00  0.00    +0.000 HD
ENDBRANCH  11  13
ENDBRANCH  10  11
ENDBRANCH   2   7
ENDBRANCH   1   2
BRANCH   1  15
ATOM     15  O   UNL     1      45.283   6.617  10.979  0.00  0.00    +0.000 OA
BRANCH  15  16
ATOM     16  C   UNL     1      44.903   5.339  10.656  0.00  0.00    +0.000 A 
ATOM     17  C   UNL     1      43.883   4.627  11.287  0.00  0.00    +0.000 A 
ATOM     18  C   UNL     1      43.597   3.324  10.884  0.00  0.00    +0.000 A 
ATOM     19  C   UNL     1      44.316   2.743   9.846  0.00  0.00    +0.000 A 
ATOM     20  F   UNL     1      44.015   1.473   9.530  0.00  0.00    +0.000 F 
ATOM     21  C   UNL     1      45.324   3.437   9.154  0.00  0.00    +0.000 A 
ATOM     22  C   UNL     1      45.595   4.753   9.589  0.00  0.00    +0.000 A 
BRANCH  21  23
ATOM     23  C   UNL     1      46.052   2.828   8.012  0.00  0.00    +0.000 A 
ATOM     24  C   UNL     1      46.502   1.500   8.055  0.00  0.00    +0.000 A 
ATOM     25  C   UNL     1      47.174   0.963   6.966  0.00  0.00    +0.000 A 
ATOM     26  N   UNL     1      47.422   1.642   5.830  0.00  0.00    +0.000 NA
ATOM     27  C   UNL     1      46.986   2.916   5.789  0.00  0.00    +0.000 A 
ATOM     28  C   UNL     1      46.317   3.541   6.834  0.00  0.00    +0.000 A 
ENDBRANCH  21  23
ENDBRANCH  15  16
ENDBRANCH   1  15
TORSDOF 7
ENDMDL
MODEL 2
REMARK VINA RESULT:    -7.725      4.232      8.010
REMARK INTER + INTRA:         -11.684
REMARK INTER:                 -10.650
REMARK INTRA:                  -1.034
REMARK UNBOUND:                -1.023
REMARK  Name = 
REMARK  9 active torsions:
REMARK  status: ('A' for Active; 'I' for Inactive)
REMARK    1  A    between atoms: C_1  and  C_2
REMARK    2  A    between atoms: C_4  and  C_5
REMARK    3  A    between atoms: C_5  and  C_6
REMARK    4  A    between atoms: C_5  and  C_7
REMARK    5  A    between atoms: C_7  and  O_8
REMARK    6  A    between atoms: O_8  and  C_9
REMARK    7  A    between atoms: C_14  and  C_15
REMARK    8  A    between atoms: C_24  and  C_25
REMARK    9  A    between atoms: C_25  and  O_27
REMARK                            x       y       z     vdW  Elec       q    Type
REMARK                         _______ _______ _______ _____ _____    ______ ____
ROOT
ATOM      1  C   UNL     1      43.681   4.846  10.878  0.00  0.00    +0.000 C 
ENDROOT
BRANCH   1   2
ATOM      2  C   UNL     1      44.180   3.403  10.718  0.00  0.00    +0.000 C 
ATOM      3  C   UNL     1      44.952   2.983  11.972  0.00  0.00    +0.000 C 
BRANCH   2   7
ATOM      4  C   UNL     1      46.654   0.449   7.749  0.00  0.00    +0.000 C 
ATOM      5  C   UNL     1      46.263   1.869   8.043  0.00  0.00    +0.000 A 
ATOM      6  N   UNL     1      45.476   2.028   9.145  0.00  0.00    +0.000 NA
ATOM      7  C   UNL     1      45.069   3.272   9.494  0.00  0.00    +0.000 A 
ATOM      8  C   UNL     1      45.423   4.393   8.752  0.00  0.00    +0.000 A 
ATOM      9  C   UNL     1      46.221   4.229   7.622  0.00  0.00    +0.000 A 
ATOM     10  C   UNL     1      46.672   2.952   7.261  0.00  0.00    +0.000 A 
BRANCH  10  11
ATOM     11  C   UNL     1      47.514   2.762   6.051  0.00  0.00    +0.000 C 
ATOM     12  O   UNL     1      47.071   2.732   4.916  0.00  0.00    +0.000 OA
BRANCH  11  13
ATOM     13  O   UNL     1      48.831   2.615   6.314  0.00  0.00    +0.000 OA
ATOM     14  H   UNL     1      49.076   2.550   7.255  0.00  0.00    +0.000 HD
ENDBRANCH  11  13
ENDBRANCH  10  11
ENDBRANCH   2   7
ENDBRANCH   1   2
BRANCH   1  15
ATOM     15  O   UNL     1      44.083   5.377  12.149  0.00  0.00    +0.000 OA
BRANCH  15  16
ATOM     16  C   UNL     1      44.601   6.647  12.121  0.00  0.00    +0.000 A 
ATOM     17  C   UNL     1      45.786   7.039  12.746  0.00  0.00    +0.000 A 
ATOM     18  C   UNL     1      46.204   8.366  12.665  0.00  0.00    +0.000 A 
ATOM     19  C   UNL     1      45.453   9.290  11.949  0.00  0.00    +0.000 A 
ATOM     20  F   UNL     1      45.893  10.559  11.938  0.00  0.00    +0.000 F 
ATOM     21  C   UNL     1      44.276   8.931  11.269  0.00  0.00    +0.000 A 
ATOM     22  C   UNL     1      43.873   7.582  11.375  0.00  0.00    +0.000 A 
BRANCH  21  23
ATOM     23  C   UNL     1      43.507   9.913  10.463  0.00  0.00    +0.000 A 
ATOM     24  C   UNL     1      42.152  10.171  10.722  0.00  0.00    +0.000 A 
ATOM     25  C   UNL     1      41.466  11.099   9.952  0.00  0.00    +0.000 A 
ATOM     26  N   UNL     1      42.028  11.803   8.951  0.00  0.00    +0.000 NA
ATOM     27  C   UNL     1      43.329  11.557   8.706  0.00  0.00    +0.000 A 
ATOM     28  C   UNL     1      44.093  10.637   9.414  0.00  0.00    +0.000 A 
ENDBRANCH  21  23
ENDBRANCH  15  16
ENDBRANCH   1  15
TORSDOF 7
ENDMDL
MODEL 3
REMARK VINA RESULT:    -7.666      3.309      7.762
REMARK INTER + INTRA:         -11.603
REMARK INTER:                 -10.431
REMARK INTRA:                  -1.172
REMARK UNBOUND:                -1.023
REMARK  Name = 
REMARK  9 active torsions:
REMARK  status: ('A' for Active; 'I' for Inactive)
REMARK    1  A    between atoms: C_1  and  C_2
REMARK    2  A    between atoms: C_4  and  C_5
REMARK    3  A    between atoms: C_5  and  C_6
REMARK    4  A    between atoms: C_5  and  C_7
REMARK    5  A    between atoms: C_7  and  O_8
REMARK    6  A    between atoms: O_8  and  C_9
REMARK    7  A    between atoms: C_14  and  C_15
REMARK    8  A    between atoms: C_24  and  C_25
REMARK    9  A    between atoms: C_25  and  O_27
REMARK                            x       y       z     vdW  Elec       q    Type
REMARK                         _______ _______ _______ _____ _____    ______ ____
ROOT
ATOM      1  C   UNL     1      44.561   4.705  11.558  0.00  0.00    +0.000 C 
ENDROOT
BRANCH   1   2
ATOM      2  C   UNL     1      43.983   3.697  10.556  0.00  0.00    +0.000 C 
ATOM      3  C   UNL     1      43.692   2.373  11.267  0.00  0.00    +0.000 C 
BRANCH   2   7
ATOM      4  C   UNL     1      46.447   0.487   7.856  0.00  0.00    +0.000 C 
ATOM      5  C   UNL     1      46.138   1.939   8.084  0.00  0.00    +0.000 A 
ATOM      6  N   UNL     1      45.287   2.187   9.120  0.00  0.00    +0.000 NA
ATOM      7  C   UNL     1      44.947   3.467   9.406  0.00  0.00    +0.000 A 
ATOM      8  C   UNL     1      45.433   4.537   8.664  0.00  0.00    +0.000 A 
ATOM      9  C   UNL     1      46.298   4.282   7.601  0.00  0.00    +0.000 A 
ATOM     10  C   UNL     1      46.681   2.967   7.307  0.00  0.00    +0.000 A 
BRANCH  10  11
ATOM     11  C   UNL     1      47.592   2.682   6.169  0.00  0.00    +0.000 C 
ATOM     12  O   UNL     1      47.225   2.610   5.009  0.00  0.00    +0.000 OA
BRANCH  11  13
ATOM     13  O   UNL     1      48.881   2.497   6.529  0.00  0.00    +0.000 OA
ATOM     14  H   UNL     1      49.247   3.142   7.161  0.00  0.00    +0.000 HD
ENDBRANCH  11  13
ENDBRANCH  10  11
ENDBRANCH   2   7
ENDBRANCH   1   2
BRANCH   1  15
ATOM     15  O   UNL     1      45.301   4.025  12.583  0.00  0.00    +0.000 OA
BRANCH  15  16
ATOM     16  C   UNL     1      46.233   4.786  13.242  0.00  0.00    +0.000 A 
ATOM     17  C   UNL     1      46.851   4.429  14.441  0.00  0.00    +0.000 A 
ATOM     18  C   UNL     1      47.771   5.294  15.029  0.00  0.00    +0.000 A 
ATOM     19  C   UNL     1      48.084   6.500  14.414  0.00  0.00    +0.000 A 
ATOM     20  F   UNL     1      48.953   7.303  15.050  0.00  0.00    +0.000 F 
ATOM     21  C   UNL     1      47.519   6.882  13.185  0.00  0.00    +0.000 A 
ATOM     22  C   UNL     1      46.584   5.989  12.617  0.00  0.00    +0.000 A 
BRANCH  21  23
ATOM     23  C   UNL     1      47.897   8.148  12.508  0.00  0.00    +0.000 A 
ATOM     24  C   UNL     1      47.013   9.236  12.441  0.00  0.00    +0.000 A 
ATOM     25  C   UNL     1      47.403  10.405  11.805  0.00  0.00    +0.000 A 
ATOM     26  N   UNL     1      48.613  10.583  11.241  0.00  0.00    +0.000 NA
ATOM     27  C   UNL     1      49.462   9.539  11.309  0.00  0.00    +0.000 A 
ATOM     28  C   UNL     1      49.155   8.326  11.913  0.00  0.00    +0.000 A 
ENDBRANCH  21  23
ENDBRANCH  15  16
ENDBRANCH   1  15
TORSDOF 7
ENDMDL
MODEL 4
REMARK VINA RESULT:    -7.594      3.207      7.651
REMARK INTER + INTRA:         -11.503
REMARK INTER:                 -10.375
REMARK INTRA:                  -1.128
REMARK UNBOUND:                -1.023
REMARK  Name = 
REMARK  9 active torsions:
REMARK  status: ('A' for Active; 'I' for Inactive)
REMARK    1  A    between atoms: C_1  and  C_2
REMARK    2  A    between atoms: C_4  and  C_5
REMARK    3  A    between atoms: C_5  and  C_6
REMARK    4  A    between atoms: C_5  and  C_7
REMARK    5  A    between atoms: C_7  and  O_8
REMARK    6  A    between atoms: O_8  and  C_9
REMARK    7  A    between atoms: C_14  and  C_15
REMARK    8  A    between atoms: C_24  and  C_25
REMARK    9  A    between atoms: C_25  and  O_27
REMARK                            x       y       z     vdW  Elec       q    Type
REMARK                         _______ _______ _______ _____ _____    ______ ____
ROOT
ATOM      1  C   UNL     1      45.342   3.186  12.254  0.00  0.00    +0.000 C 
ENDROOT
BRANCH   1   2
ATOM      2  C   UNL     1      44.393   3.278  11.052  0.00  0.00    +0.000 C 
ATOM      3  C   UNL     1      43.351   2.159  11.132  0.00  0.00    +0.000 C 
BRANCH   2   7
ATOM      4  C   UNL     1      46.566   0.391   7.794  0.00  0.00    +0.000 C 
ATOM      5  C   UNL     1      46.211   1.804   8.158  0.00  0.00    +0.000 A 
ATOM      6  N   UNL     1      45.531   1.938   9.332  0.00  0.00    +0.000 NA
ATOM      7  C   UNL     1      45.164   3.174   9.747  0.00  0.00    +0.000 A 
ATOM      8  C   UNL     1      45.452   4.312   9.003  0.00  0.00    +0.000 A 
ATOM      9  C   UNL     1      46.141   4.173   7.800  0.00  0.00    +0.000 A 
ATOM     10  C   UNL     1      46.551   2.905   7.367  0.00  0.00    +0.000 A 
BRANCH  10  11
ATOM     11  C   UNL     1      47.275   2.743   6.080  0.00  0.00    +0.000 C 
ATOM     12  O   UNL     1      46.725   2.715   4.993  0.00  0.00    +0.000 OA
BRANCH  11  13
ATOM     13  O   UNL     1      48.613   2.618   6.214  0.00  0.00    +0.000 OA
ATOM     14  H   UNL     1      49.068   2.104   5.521  0.00  0.00    +0.000 HD
ENDBRANCH  11  13
ENDBRANCH  10  11
ENDBRANCH   2   7
ENDBRANCH   1   2
BRANCH   1  15
ATOM     15  O   UNL     1      45.033   4.207  13.215  0.00  0.00    +0.000 OA
BRANCH  15  16
ATOM     16  C   UNL     1      45.333   5.489  12.832  0.00  0.00    +0.000 A 
ATOM     17  C   UNL     1      44.406   6.420  12.363  0.00  0.00    +0.000 A 
ATOM     18  C   UNL     1      44.832   7.691  11.984  0.00  0.00    +0.000 A 
ATOM     19  C   UNL     1      46.174   8.035  12.089  0.00  0.00    +0.000 A 
ATOM     20  F   UNL     1      46.525   9.264  11.675  0.00  0.00    +0.000 F 
ATOM     21  C   UNL     1      47.137   7.145  12.596  0.00  0.00    +0.000 A 
ATOM     22  C   UNL     1      46.677   5.862  12.965  0.00  0.00    +0.000 A 
BRANCH  21  23
ATOM     23  C   UNL     1      48.560   7.537  12.754  0.00  0.00    +0.000 A 
ATOM     24  C   UNL     1      49.348   7.899  11.651  0.00  0.00    +0.000 A 
ATOM     25  C   UNL     1      50.673   8.266  11.838  0.00  0.00    +0.000 A 
ATOM     26  N   UNL     1      51.273   8.314  13.042  0.00  0.00    +0.000 NA
ATOM     27  C   UNL     1      50.516   7.969  14.101  0.00  0.00    +0.000 A 
ATOM     28  C   UNL     1      49.186   7.577  14.009  0.00  0.00    +0.000 A 
ENDBRANCH  21  23
ENDBRANCH  15  16
ENDBRANCH   1  15
TORSDOF 7
ENDMDL
MODEL 5
REMARK VINA RESULT:    -7.457      3.095      8.404
REMARK INTER + INTRA:         -11.314
REMARK INTER:                 -10.621
REMARK INTRA:                  -0.692
REMARK UNBOUND:                -1.023
REMARK  Name = 
REMARK  9 active torsions:
REMARK  status: ('A' for Active; 'I' for Inactive)
REMARK    1  A    between atoms: C_1  and  C_2
REMARK    2  A    between atoms: C_4  and  C_5
REMARK    3  A    between atoms: C_5  and  C_6
REMARK    4  A    between atoms: C_5  and  C_7
REMARK    5  A    between atoms: C_7  and  O_8
REMARK    6  A    between atoms: O_8  and  C_9
REMARK    7  A    between atoms: C_14  and  C_15
REMARK    8  A    between atoms: C_24  and  C_25
REMARK    9  A    between atoms: C_25  and  O_27
REMARK                            x       y       z     vdW  Elec       q    Type
REMARK                         _______ _______ _______ _____ _____    ______ ____
ROOT
ATOM      1  C   UNL     1      45.114   3.786  11.998  0.00  0.00    +0.000 C 
ENDROOT
BRANCH   1   2
ATOM      2  C   UNL     1      44.254   3.453  10.772  0.00  0.00    +0.000 C 
ATOM      3  C   UNL     1      43.469   2.163  11.027  0.00  0.00    +0.000 C 
BRANCH   2   7
ATOM      4  C   UNL     1      46.593   0.427   7.765  0.00  0.00    +0.000 C 
ATOM      5  C   UNL     1      46.248   1.857   8.064  0.00  0.00    +0.000 A 
ATOM      6  N   UNL     1      45.484   2.039   9.179  0.00  0.00    +0.000 NA
ATOM      7  C   UNL     1      45.119   3.295   9.533  0.00  0.00    +0.000 A 
ATOM      8  C   UNL     1      45.494   4.405   8.785  0.00  0.00    +0.000 A 
ATOM      9  C   UNL     1      46.268   4.217   7.642  0.00  0.00    +0.000 A 
ATOM     10  C   UNL     1      46.676   2.928   7.274  0.00  0.00    +0.000 A 
BRANCH  10  11
ATOM     11  C   UNL     1      47.492   2.714   6.052  0.00  0.00    +0.000 C 
ATOM     12  O   UNL     1      47.032   2.708   4.923  0.00  0.00    +0.000 OA
BRANCH  11  13
ATOM     13  O   UNL     1      48.806   2.514   6.295  0.00  0.00    +0.000 OA
ATOM     14  H   UNL     1      49.420   3.154   5.890  0.00  0.00    +0.000 HD
ENDBRANCH  11  13
ENDBRANCH  10  11
ENDBRANCH   2   7
ENDBRANCH   1   2
BRANCH   1  15
ATOM     15  O   UNL     1      45.151   5.204  12.214  0.00  0.00    +0.000 OA
BRANCH  15  16
ATOM     16  C   UNL     1      46.271   5.675  12.850  0.00  0.00    +0.000 A 
ATOM     17  C   UNL     1      47.106   6.678  12.357  0.00  0.00    +0.000 A 
ATOM     18  C   UNL     1      48.231   7.063  13.085  0.00  0.00    +0.000 A 
ATOM     19  C   UNL     1      48.508   6.460  14.306  0.00  0.00    +0.000 A 
ATOM     20  F   UNL     1      49.625   6.852  14.941  0.00  0.00    +0.000 F 
ATOM     21  C   UNL     1      47.673   5.476  14.862  0.00  0.00    +0.000 A 
ATOM     22  C   UNL     1      46.546   5.102  14.098  0.00  0.00    +0.000 A 
BRANCH  21  23
ATOM     23  C   UNL     1      47.948   4.874  16.191  0.00  0.00    +0.000 A 
ATOM     24  C   UNL     1      48.474   5.636  17.246  0.00  0.00    +0.000 A 
ATOM     25  C   UNL     1      48.712   5.041  18.476  0.00  0.00    +0.000 A 
ATOM     26  N   UNL     1      48.455   3.747  18.744  0.00  0.00    +0.000 NA
ATOM     27  C   UNL     1      47.947   3.017  17.732  0.00  0.00    +0.000 A 
ATOM     28  C   UNL     1      47.687   3.523  16.465  0.00  0.00    +0.000 A 
ENDBRANCH  21  23
ENDBRANCH  15  16
ENDBRANCH   1  15
TORSDOF 7
ENDMDL
MODEL 6
REMARK VINA RESULT:    -7.027      3.231      5.136
REMARK INTER + INTRA:         -10.720
REMARK INTER:                  -9.977
REMARK INTRA:                  -0.744
REMARK UNBOUND:                -1.023
REMARK  Name = 
REMARK  9 active torsions:
REMARK  status: ('A' for Active; 'I' for Inactive)
REMARK    1  A    between atoms: C_1  and  C_2
REMARK    2  A    between atoms: C_4  and  C_5
REMARK    3  A    between atoms: C_5  and  C_6
REMARK    4  A    between atoms: C_5  and  C_7
REMARK    5  A    between atoms: C_7  and  O_8
REMARK    6  A    between atoms: O_8  and  C_9
REMARK    7  A    between atoms: C_14  and  C_15
REMARK    8  A    between atoms: C_24  and  C_25
REMARK    9  A    between atoms: C_25  and  O_27
REMARK                            x       y       z     vdW  Elec       q    Type
REMARK                         _______ _______ _______ _____ _____    ______ ____
ROOT
ATOM      1  C   UNL     1      48.879   6.669  16.188  0.00  0.00    +0.000 C 
ENDROOT
BRANCH   1   2
ATOM      2  C   UNL     1      48.347   5.629  17.183  0.00  0.00    +0.000 C 
ATOM      3  C   UNL     1      48.213   6.265  18.569  0.00  0.00    +0.000 C 
BRANCH   2   7
ATOM      4  C   UNL     1      52.794   3.931  18.184  0.00  0.00    +0.000 C 
ATOM      5  C   UNL     1      51.405   3.581  17.736  0.00  0.00    +0.000 A 
ATOM      6  N   UNL     1      50.550   4.639  17.647  0.00  0.00    +0.000 NA
ATOM      7  C   UNL     1      49.271   4.426  17.251  0.00  0.00    +0.000 A 
ATOM      8  C   UNL     1      48.803   3.154  16.943  0.00  0.00    +0.000 A 
ATOM      9  C   UNL     1      49.676   2.073  17.041  0.00  0.00    +0.000 A 
ATOM     10  C   UNL     1      51.008   2.277  17.424  0.00  0.00    +0.000 A 
BRANCH  10  11
ATOM     11  C   UNL     1      51.945   1.131  17.543  0.00  0.00    +0.000 C 
ATOM     12  O   UNL     1      53.065   1.119  17.063  0.00  0.00    +0.000 OA
BRANCH  11  13
ATOM     13  O   UNL     1      51.445   0.081  18.231  0.00  0.00    +0.000 OA
ATOM     14  H   UNL     1      51.906  -0.149  19.058  0.00  0.00    +0.000 HD
ENDBRANCH  11  13
ENDBRANCH  10  11
ENDBRANCH   2   7
ENDBRANCH   1   2
BRANCH   1  15
ATOM     15  O   UNL     1      48.868   6.138  14.854  0.00  0.00    +0.000 OA
BRANCH  15  16
ATOM     16  C   UNL     1      47.875   6.616  14.037  0.00  0.00    +0.000 A 
ATOM     17  C   UNL     1      47.662   7.964  13.745  0.00  0.00    +0.000 A 
ATOM     18  C   UNL     1      46.606   8.333  12.914  0.00  0.00    +0.000 A 
ATOM     19  C   UNL     1      45.780   7.360  12.364  0.00  0.00    +0.000 A 
ATOM     20  F   UNL     1      44.761   7.785  11.599  0.00  0.00    +0.000 F 
ATOM     21  C   UNL     1      45.982   5.988  12.596  0.00  0.00    +0.000 A 
ATOM     22  C   UNL     1      47.055   5.645  13.448  0.00  0.00    +0.000 A 
BRANCH  21  23
ATOM     23  C   UNL     1      45.128   4.952  11.964  0.00  0.00    +0.000 A 
ATOM     24  C   UNL     1      45.062   4.808  10.570  0.00  0.00    +0.000 A 
ATOM     25  C   UNL     1      44.256   3.824  10.014  0.00  0.00    +0.000 A 
ATOM     26  N   UNL     1      43.520   2.962  10.740  0.00  0.00    +0.000 NA
ATOM     27  C   UNL     1      43.587   3.099  12.078  0.00  0.00    +0.000 A 
ATOM     28  C   UNL     1      44.354   4.061  12.723  0.00  0.00    +0.000 A 
ENDBRANCH  21  23
ENDBRANCH  15  16
ENDBRANCH   1  15
TORSDOF 7
ENDMDL
MODEL 7
REMARK VINA RESULT:    -6.866      2.793      4.430
REMARK INTER + INTRA:         -10.498
REMARK INTER:                  -8.908
REMARK INTRA:                  -1.589
REMARK UNBOUND:                -1.023
REMARK  Name = 
REMARK  9 active torsions:
REMARK  status: ('A' for Active; 'I' for Inactive)
REMARK    1  A    between atoms: C_1  and  C_2
REMARK    2  A    between atoms: C_4  and  C_5
REMARK    3  A    between atoms: C_5  and  C_6
REMARK    4  A    between atoms: C_5  and  C_7
REMARK    5  A    between atoms: C_7  and  O_8
REMARK    6  A    between atoms: O_8  and  C_9
REMARK    7  A    between atoms: C_14  and  C_15
REMARK    8  A    between atoms: C_24  and  C_25
REMARK    9  A    between atoms: C_25  and  O_27
REMARK                            x       y       z     vdW  Elec       q    Type
REMARK                         _______ _______ _______ _____ _____    ______ ____
ROOT
ATOM      1  C   UNL     1      48.109   9.129  14.121  0.00  0.00    +0.000 C 
ENDROOT
BRANCH   1   2
ATOM      2  C   UNL     1      49.313   8.288  14.569  0.00  0.00    +0.000 C 
ATOM      3  C   UNL     1      50.216   8.002  13.367  0.00  0.00    +0.000 C 
BRANCH   2   7
ATOM      4  C   UNL     1      46.847   4.129  14.033  0.00  0.00    +0.000 C 
ATOM      5  C   UNL     1      47.680   4.967  14.960  0.00  0.00    +0.000 A 
ATOM      6  N   UNL     1      48.096   6.155  14.437  0.00  0.00    +0.000 NA
ATOM      7  C   UNL     1      48.855   6.983  15.196  0.00  0.00    +0.000 A 
ATOM      8  C   UNL     1      49.230   6.649  16.491  0.00  0.00    +0.000 A 
ATOM      9  C   UNL     1      48.810   5.431  17.023  0.00  0.00    +0.000 A 
ATOM     10  C   UNL     1      48.004   4.574  16.262  0.00  0.00    +0.000 A 
BRANCH  10  11
ATOM     11  C   UNL     1      47.559   3.268  16.812  0.00  0.00    +0.000 C 
ATOM     12  O   UNL     1      46.492   3.099  17.375  0.00  0.00    +0.000 OA
BRANCH  11  13
ATOM     13  O   UNL     1      48.451   2.267  16.645  0.00  0.00    +0.000 OA
ATOM     14  H   UNL     1      48.117   1.365  16.797  0.00  0.00    +0.000 HD
ENDBRANCH  11  13
ENDBRANCH  10  11
ENDBRANCH   2   7
ENDBRANCH   1   2
BRANCH   1  15
ATOM     15  O   UNL     1      47.987   9.107  12.691  0.00  0.00    +0.000 OA
BRANCH  15  16
ATOM     16  C   UNL     1      46.710   8.965  12.210  0.00  0.00    +0.000 A 
ATOM     17  C   UNL     1      45.855  10.021  11.892  0.00  0.00    +0.000 A 
ATOM     18  C   UNL     1      44.569   9.754  11.428  0.00  0.00    +0.000 A 
ATOM     19  C   UNL     1      44.146   8.440  11.266  0.00  0.00    +0.000 A 
ATOM     20  F   UNL     1      42.884   8.251  10.848  0.00  0.00    +0.000 F 
ATOM     21  C   UNL     1      44.987   7.345  11.533  0.00  0.00    +0.000 A 
ATOM     22  C   UNL     1      46.282   7.647  12.009  0.00  0.00    +0.000 A 
BRANCH  21  23
ATOM     23  C   UNL     1      44.546   5.946  11.308  0.00  0.00    +0.000 A 
ATOM     24  C   UNL     1      43.554   5.353  12.105  0.00  0.00    +0.000 A 
ATOM     25  C   UNL     1      43.163   4.044  11.861  0.00  0.00    +0.000 A 
ATOM     26  N   UNL     1      43.674   3.282  10.876  0.00  0.00    +0.000 NA
ATOM     27  C   UNL     1      44.623   3.852  10.110  0.00  0.00    +0.000 A 
ATOM     28  C   UNL     1      45.087   5.150  10.287  0.00  0.00    +0.000 A 
ENDBRANCH  21  23
ENDBRANCH  15  16
ENDBRANCH   1  15
TORSDOF 7
ENDMDL
MODEL 8
REMARK VINA RESULT:    -6.610      3.842      7.834
REMARK INTER + INTRA:         -10.145
REMARK INTER:                  -8.797
REMARK INTRA:                  -1.348
REMARK UNBOUND:                -1.023
REMARK  Name = 
REMARK  9 active torsions:
REMARK  status: ('A' for Active; 'I' for Inactive)
REMARK    1  A    between atoms: C_1  and  C_2
REMARK    2  A    between atoms: C_4  and  C_5
REMARK    3  A    between atoms: C_5  and  C_6
REMARK    4  A    between atoms: C_5  and  C_7
REMARK    5  A    between atoms: C_7  and  O_8
REMARK    6  A    between atoms: O_8  and  C_9
REMARK    7  A    between atoms: C_14  and  C_15
REMARK    8  A    between atoms: C_24  and  C_25
REMARK    9  A    between atoms: C_25  and  O_27
REMARK                            x       y       z     vdW  Elec       q    Type
REMARK                         _______ _______ _______ _____ _____    ______ ____
ROOT
ATOM      1  C   UNL     1      48.624   7.856  13.035  0.00  0.00    +0.000 C 
ENDROOT
BRANCH   1   2
ATOM      2  C   UNL     1      47.506   8.041  12.000  0.00  0.00    +0.000 C 
ATOM      3  C   UNL     1      46.729   9.324  12.305  0.00  0.00    +0.000 C 
BRANCH   2   7
ATOM      4  C   UNL     1      45.210   4.618   9.416  0.00  0.00    +0.000 C 
ATOM      5  C   UNL     1      45.452   5.186  10.785  0.00  0.00    +0.000 A 
ATOM      6  N   UNL     1      46.282   6.267  10.817  0.00  0.00    +0.000 NA
ATOM      7  C   UNL     1      46.563   6.850  12.007  0.00  0.00    +0.000 A 
ATOM      8  C   UNL     1      46.036   6.371  13.200  0.00  0.00    +0.000 A 
ATOM      9  C   UNL     1      45.193   5.262  13.168  0.00  0.00    +0.000 A 
ATOM     10  C   UNL     1      44.871   4.661  11.944  0.00  0.00    +0.000 A 
BRANCH  10  11
ATOM     11  C   UNL     1      43.983   3.471  11.897  0.00  0.00    +0.000 C 
ATOM     12  O   UNL     1      42.886   3.465  11.368  0.00  0.00    +0.000 OA
BRANCH  11  13
ATOM     13  O   UNL     1      44.494   2.378  12.505  0.00  0.00    +0.000 OA
ATOM     14  H   UNL     1      43.868   1.653  12.683  0.00  0.00    +0.000 HD
ENDBRANCH  11  13
ENDBRANCH  10  11
ENDBRANCH   2   7
ENDBRANCH   1   2
BRANCH   1  15
ATOM     15  O   UNL     1      48.573   8.900  14.019  0.00  0.00    +0.000 OA
BRANCH  15  16
ATOM     16  C   UNL     1      48.539   8.479  15.324  0.00  0.00    +0.000 A 
ATOM     17  C   UNL     1      48.200   9.282  16.413  0.00  0.00    +0.000 A 
ATOM     18  C   UNL     1      48.219   8.749  17.700  0.00  0.00    +0.000 A 
ATOM     19  C   UNL     1      48.557   7.415  17.895  0.00  0.00    +0.000 A 
ATOM     20  F   UNL     1      48.589   6.971  19.162  0.00  0.00    +0.000 F 
ATOM     21  C   UNL     1      48.864   6.556  16.825  0.00  0.00    +0.000 A 
ATOM     22  C   UNL     1      48.844   7.128  15.534  0.00  0.00    +0.000 A 
BRANCH  21  23
ATOM     23  C   UNL     1      49.174   5.120  17.036  0.00  0.00    +0.000 A 
ATOM     24  C   UNL     1      48.212   4.123  16.810  0.00  0.00    +0.000 A 
ATOM     25  C   UNL     1      48.539   2.790  17.013  0.00  0.00    +0.000 A 
ATOM     26  N   UNL     1      49.755   2.369  17.410  0.00  0.00    +0.000 NA
ATOM     27  C   UNL     1      50.678   3.327  17.623  0.00  0.00    +0.000 A 
ATOM     28  C   UNL     1      50.438   4.686  17.459  0.00  0.00    +0.000 A 
ENDBRANCH  21  23
ENDBRANCH  15  16
ENDBRANCH   1  15
TORSDOF 7
ENDMDL
MODEL 9
REMARK VINA RESULT:    -6.533      2.476      3.963
REMARK INTER + INTRA:         -10.039
REMARK INTER:                  -8.910
REMARK INTRA:                  -1.129
REMARK UNBOUND:                -1.023
REMARK  Name = 
REMARK  9 active torsions:
REMARK  status: ('A' for Active; 'I' for Inactive)
REMARK    1  A    between atoms: C_1  and  C_2
REMARK    2  A    between atoms: C_4  and  C_5
REMARK    3  A    between atoms: C_5  and  C_6
REMARK    4  A    between atoms: C_5  and  C_7
REMARK    5  A    between atoms: C_7  and  O_8
REMARK    6  A    between atoms: O_8  and  C_9
REMARK    7  A    between atoms: C_14  and  C_15
REMARK    8  A    between atoms: C_24  and  C_25
REMARK    9  A    between atoms: C_25  and  O_27
REMARK                            x       y       z     vdW  Elec       q    Type
REMARK                         _______ _______ _______ _____ _____    ______ ____
ROOT
ATOM      1  C   UNL     1      49.400   7.185  13.027  0.00  0.00    +0.000 C 
ENDROOT
BRANCH   1   2
ATOM      2  C   UNL     1      49.789   7.954  14.297  0.00  0.00    +0.000 C 
ATOM      3  C   UNL     1      51.314   8.037  14.402  0.00  0.00    +0.000 C 
BRANCH   2   7
ATOM      4  C   UNL     1      47.798   3.959  16.231  0.00  0.00    +0.000 C 
ATOM      5  C   UNL     1      48.267   5.362  16.490  0.00  0.00    +0.000 A 
ATOM      6  N   UNL     1      48.770   6.007  15.400  0.00  0.00    +0.000 NA
ATOM      7  C   UNL     1      49.220   7.278  15.532  0.00  0.00    +0.000 A 
ATOM      8  C   UNL     1      49.193   7.941  16.754  0.00  0.00    +0.000 A 
ATOM      9  C   UNL     1      48.685   7.278  17.869  0.00  0.00    +0.000 A 
ATOM     10  C   UNL     1      48.192   5.973  17.746  0.00  0.00    +0.000 A 
BRANCH  10  11
ATOM     11  C   UNL     1      47.659   5.251  18.930  0.00  0.00    +0.000 C 
ATOM     12  O   UNL     1      48.358   4.657  19.732  0.00  0.00    +0.000 OA
BRANCH  11  13
ATOM     13  O   UNL     1      46.314   5.299  19.044  0.00  0.00    +0.000 OA
ATOM     14  H   UNL     1      45.833   5.698  18.296  0.00  0.00    +0.000 HD
ENDBRANCH  11  13
ENDBRANCH  10  11
ENDBRANCH   2   7
ENDBRANCH   1   2
BRANCH   1  15
ATOM     15  O   UNL     1      48.753   8.059  12.090  0.00  0.00    +0.000 OA
BRANCH  15  16
ATOM     16  C   UNL     1      47.403   7.868  11.940  0.00  0.00    +0.000 A 
ATOM     17  C   UNL     1      46.421   8.789  12.306  0.00  0.00    +0.000 A 
ATOM     18  C   UNL     1      45.076   8.476  12.123  0.00  0.00    +0.000 A 
ATOM     19  C   UNL     1      44.715   7.257  11.561  0.00  0.00    +0.000 A 
ATOM     20  F   UNL     1      43.402   7.003  11.443  0.00  0.00    +0.000 F 
ATOM     21  C   UNL     1      45.671   6.316  11.138  0.00  0.00    +0.000 A 
ATOM     22  C   UNL     1      47.025   6.658  11.344  0.00  0.00    +0.000 A 
BRANCH  21  23
ATOM     23  C   UNL     1      45.280   5.039  10.491  0.00  0.00    +0.000 A 
ATOM     24  C   UNL     1      44.715   3.987  11.229  0.00  0.00    +0.000 A 
ATOM     25  C   UNL     1      44.356   2.809  10.589  0.00  0.00    +0.000 A 
ATOM     26  N   UNL     1      44.503   2.601   9.267  0.00  0.00    +0.000 NA
ATOM     27  C   UNL     1      45.042   3.612   8.560  0.00  0.00    +0.000 A 
ATOM     28  C   UNL     1      45.443   4.821   9.115  0.00  0.00    +0.000 A 
ENDBRANCH  21  23
ENDBRANCH  15  16
ENDBRANCH   1  15
TORSDOF 7
ENDMDL
