MODEL 1
REMARK VINA RESULT:    -7.876      0.000      0.000
REMARK INTER + INTRA:         -10.761
REMARK INTER:                 -10.179
REMARK INTRA:                  -0.582
REMARK UNBOUND:                -0.582
REMARK  Name = 
REMARK  5 active torsions:
REMARK  status: ('A' for Active; 'I' for Inactive)
REMARK    1  A    between atoms: C_5  and  C_6
REMARK    2  A    between atoms: C_14  and  C_15
REMARK    3  A    between atoms: C_15  and  S_16
REMARK    4  A    between atoms: S_16  and  C_17
REMARK    5  A    between atoms: C_20  and  C_21
REMARK                            x       y       z     vdW  Elec       q    Type
REMARK                         _______ _______ _______ _____ _____    ______ ____
ROOT
ATOM      1  F   UNL     1      44.449   3.802  13.696  0.00  0.00    +0.000 F 
ATOM      2  C   UNL     1      45.323   4.741  13.307  0.00  0.00    +0.000 A 
ATOM      3  C   UNL     1      46.491   4.903  14.042  0.00  0.00    +0.000 A 
ATOM      4  C   UNL     1      47.436   5.852  13.648  0.00  0.00    +0.000 A 
ATOM      5  C   UNL     1      47.244   6.645  12.499  0.00  0.00    +0.000 A 
ATOM      6  C   UNL     1      46.040   6.447  11.786  0.00  0.00    +0.000 A 
ATOM      7  F   UNL     1      45.818   7.149  10.661  0.00  0.00    +0.000 F 
ATOM      8  C   UNL     1      45.063   5.519  12.181  0.00  0.00    +0.000 A 
ENDROOT
BRANCH   5   9
ATOM      9  C   UNL     1      48.268   7.643  12.092  0.00  0.00    +0.000 A 
ATOM     10  C   UNL     1      49.577   7.259  11.758  0.00  0.00    +0.000 A 
ATOM     11  C   UNL     1      50.519   8.228  11.435  0.00  0.00    +0.000 A 
ATOM     12  N   UNL     1      50.255   9.547  11.401  0.00  0.00    +0.000 NA
ATOM     13  C   UNL     1      48.994   9.912  11.703  0.00  0.00    +0.000 A 
ATOM     14  C   UNL     1      47.990   9.017  12.050  0.00  0.00    +0.000 A 
ENDBRANCH   5   9
BRANCH   8  15
ATOM     15  C   UNL     1      43.803   5.333  11.377  0.00  0.00    +0.000 C 
BRANCH  15  16
ATOM     16  S   UNL     1      43.407   3.583  11.055  0.00  0.00    +0.000 S 
BRANCH  16  17
ATOM     17  C   UNL     1      44.494   3.274   9.685  0.00  0.00    +0.000 A 
ATOM     18  N   UNL     1      44.871   4.303   8.908  0.00  0.00    +0.000 NA
ATOM     19  C   UNL     1      45.709   4.021   7.889  0.00  0.00    +0.000 A 
ATOM     20  C   UNL     1      46.189   2.763   7.622  0.00  0.00    +0.000 A 
ATOM     21  C   UNL     1      45.733   1.776   8.464  0.00  0.00    +0.000 A 
ATOM     22  N   UNL     1      44.892   2.005   9.496  0.00  0.00    +0.000 NA
BRANCH  20  23
ATOM     23  C   UNL     1      47.134   2.484   6.512  0.00  0.00    +0.000 C 
ATOM     24  F   UNL     1      48.426   2.795   6.810  0.00  0.00    +0.000 F 
ATOM     25  F   UNL     1      47.143   1.170   6.155  0.00  0.00    +0.000 F 
ATOM     26  F   UNL     1      46.837   3.176   5.378  0.00  0.00    +0.000 F 
ENDBRANCH  20  23
ENDBRANCH  16  17
ENDBRANCH  15  16
ENDBRANCH   8  15
TORSDOF 5
ENDMDL
MODEL 2
REMARK VINA RESULT:    -7.740      1.660      2.439
REMARK INTER + INTRA:         -10.585
REMARK INTER:                 -10.703
REMARK INTRA:                   0.118
REMARK UNBOUND:                -0.582
REMARK  Name = 
REMARK  5 active torsions:
REMARK  status: ('A' for Active; 'I' for Inactive)
REMARK    1  A    between atoms: C_5  and  C_6
REMARK    2  A    between atoms: C_14  and  C_15
REMARK    3  A    between atoms: C_15  and  S_16
REMARK    4  A    between atoms: S_16  and  C_17
REMARK    5  A    between atoms: C_20  and  C_21
REMARK                            x       y       z     vdW  Elec       q    Type
REMARK                         _______ _______ _______ _____ _____    ______ ____
ROOT
ATOM      1  F   UNL     1      46.776   3.282  13.661  0.00  0.00    +0.000 F 
ATOM      2  C   UNL     1      46.605   4.576  13.360  0.00  0.00    +0.000 A 
ATOM      3  C   UNL     1      47.654   5.456  13.600  0.00  0.00    +0.000 A 
ATOM      4  C   UNL     1      47.520   6.806  13.271  0.00  0.00    +0.000 A 
ATOM      5  C   UNL     1      46.344   7.303  12.675  0.00  0.00    +0.000 A 
ATOM      6  C   UNL     1      45.304   6.372  12.453  0.00  0.00    +0.000 A 
ATOM      7  F   UNL     1      44.171   6.779  11.855  0.00  0.00    +0.000 F 
ATOM      8  C   UNL     1      45.406   5.016  12.803  0.00  0.00    +0.000 A 
ENDROOT
BRANCH   5   9
ATOM      9  C   UNL     1      46.226   8.742  12.324  0.00  0.00    +0.000 A 
ATOM     10  C   UNL     1      44.976   9.358  12.155  0.00  0.00    +0.000 A 
ATOM     11  C   UNL     1      44.910  10.693  11.772  0.00  0.00    +0.000 A 
ATOM     12  N   UNL     1      45.992  11.466  11.562  0.00  0.00    +0.000 NA
ATOM     13  C   UNL     1      47.190  10.878  11.744  0.00  0.00    +0.000 A 
ATOM     14  C   UNL     1      47.354   9.549  12.112  0.00  0.00    +0.000 A 
ENDBRANCH   5   9
BRANCH   8  15
ATOM     15  C   UNL     1      44.275   4.059  12.531  0.00  0.00    +0.000 C 
BRANCH  15  16
ATOM     16  S   UNL     1      43.354   4.448  11.007  0.00  0.00    +0.000 S 
BRANCH  16  17
ATOM     17  C   UNL     1      44.432   3.707   9.805  0.00  0.00    +0.000 A 
ATOM     18  N   UNL     1      44.551   2.369   9.773  0.00  0.00    +0.000 NA
ATOM     19  C   UNL     1      45.368   1.852   8.834  0.00  0.00    +0.000 A 
ATOM     20  C   UNL     1      46.062   2.612   7.925  0.00  0.00    +0.000 A 
ATOM     21  C   UNL     1      45.885   3.970   8.048  0.00  0.00    +0.000 A 
ATOM     22  N   UNL     1      45.081   4.537   8.972  0.00  0.00    +0.000 NA
BRANCH  20  23
ATOM     23  C   UNL     1      46.934   2.017   6.881  0.00  0.00    +0.000 C 
ATOM     24  F   UNL     1      46.858   0.659   6.823  0.00  0.00    +0.000 F 
ATOM     25  F   UNL     1      46.623   2.458   5.631  0.00  0.00    +0.000 F 
ATOM     26  F   UNL     1      48.251   2.309   7.063  0.00  0.00    +0.000 F 
ENDBRANCH  20  23
ENDBRANCH  16  17
ENDBRANCH  15  16
ENDBRANCH   8  15
TORSDOF 5
ENDMDL
MODEL 3
REMARK VINA RESULT:    -7.730      1.376      2.113
REMARK INTER + INTRA:         -10.572
REMARK INTER:                 -10.159
REMARK INTRA:                  -0.413
REMARK UNBOUND:                -0.582
REMARK  Name = 
REMARK  5 active torsions:
REMARK  status: ('A' for Active; 'I' for Inactive)
REMARK    1  A    between atoms: C_5  and  C_6
REMARK    2  A    between atoms: C_14  and  C_15
REMARK    3  A    between atoms: C_15  and  S_16
REMARK    4  A    between atoms: S_16  and  C_17
REMARK    5  A    between atoms: C_20  and  C_21
REMARK                            x       y       z     vdW  Elec       q    Type
REMARK                         _______ _______ _______ _____ _____    ______ ____
ROOT
ATOM      1  F   UNL     1      43.039   6.220  11.553  0.00  0.00    +0.000 F 
ATOM      2  C   UNL     1      44.328   6.475  11.813  0.00  0.00    +0.000 A 
ATOM      3  C   UNL     1      44.786   7.780  11.677  0.00  0.00    +0.000 A 
ATOM      4  C   UNL     1      46.116   8.086  11.968  0.00  0.00    +0.000 A 
ATOM      5  C   UNL     1      47.014   7.099  12.421  0.00  0.00    +0.000 A 
ATOM      6  C   UNL     1      46.504   5.786  12.541  0.00  0.00    +0.000 A 
ATOM      7  F   UNL     1      47.303   4.809  13.004  0.00  0.00    +0.000 F 
ATOM      8  C   UNL     1      45.177   5.451  12.227  0.00  0.00    +0.000 A 
ENDROOT
BRANCH   5   9
ATOM      9  C   UNL     1      48.424   7.448  12.735  0.00  0.00    +0.000 A 
ATOM     10  C   UNL     1      48.886   7.524  14.059  0.00  0.00    +0.000 A 
ATOM     11  C   UNL     1      50.197   7.907  14.311  0.00  0.00    +0.000 A 
ATOM     12  N   UNL     1      51.090   8.204  13.348  0.00  0.00    +0.000 NA
ATOM     13  C   UNL     1      50.650   8.111  12.078  0.00  0.00    +0.000 A 
ATOM     14  C   UNL     1      49.355   7.750  11.730  0.00  0.00    +0.000 A 
ENDBRANCH   5   9
BRANCH   8  15
ATOM     15  C   UNL     1      44.677   4.039  12.387  0.00  0.00    +0.000 C 
BRANCH  15  16
ATOM     16  S   UNL     1      43.469   3.555  11.110  0.00  0.00    +0.000 S 
BRANCH  16  17
ATOM     17  C   UNL     1      44.572   3.236   9.755  0.00  0.00    +0.000 A 
ATOM     18  N   UNL     1      45.000   1.980   9.544  0.00  0.00    +0.000 NA
ATOM     19  C   UNL     1      45.824   1.785   8.495  0.00  0.00    +0.000 A 
ATOM     20  C   UNL     1      46.230   2.787   7.648  0.00  0.00    +0.000 A 
ATOM     21  C   UNL     1      45.751   4.038   7.956  0.00  0.00    +0.000 A 
ATOM     22  N   UNL     1      44.926   4.286   8.996  0.00  0.00    +0.000 NA
BRANCH  20  23
ATOM     23  C   UNL     1      47.115   2.541   6.481  0.00  0.00    +0.000 C 
ATOM     24  F   UNL     1      48.437   2.715   6.760  0.00  0.00    +0.000 F 
ATOM     25  F   UNL     1      47.002   1.273   6.001  0.00  0.00    +0.000 F 
ATOM     26  F   UNL     1      46.845   3.363   5.430  0.00  0.00    +0.000 F 
ENDBRANCH  20  23
ENDBRANCH  16  17
ENDBRANCH  15  16
ENDBRANCH   8  15
TORSDOF 5
ENDMDL
MODEL 4
REMARK VINA RESULT:    -7.618      3.085      7.087
REMARK INTER + INTRA:         -10.428
REMARK INTER:                 -10.472
REMARK INTRA:                   0.045
REMARK UNBOUND:                -0.582
REMARK  Name = 
REMARK  5 active torsions:
REMARK  status: ('A' for Active; 'I' for Inactive)
REMARK    1  A    between atoms: C_5  and  C_6
REMARK    2  A    between atoms: C_14  and  C_15
REMARK    3  A    between atoms: C_15  and  S_16
REMARK    4  A    between atoms: S_16  and  C_17
REMARK    5  A    between atoms: C_20  and  C_21
REMARK                            x       y       z     vdW  Elec       q    Type
REMARK                         _______ _______ _______ _____ _____    ______ ____
ROOT
ATOM      1  F   UNL     1      42.983   4.875  12.913  0.00  0.00    +0.000 F 
ATOM      2  C   UNL     1      43.665   4.415  11.856  0.00  0.00    +0.000 A 
ATOM      3  C   UNL     1      43.352   3.153  11.364  0.00  0.00    +0.000 A 
ATOM      4  C   UNL     1      44.022   2.655  10.246  0.00  0.00    +0.000 A 
ATOM      5  C   UNL     1      45.006   3.415   9.582  0.00  0.00    +0.000 A 
ATOM      6  C   UNL     1      45.292   4.690  10.119  0.00  0.00    +0.000 A 
ATOM      7  F   UNL     1      46.195   5.476   9.507  0.00  0.00    +0.000 F 
ATOM      8  C   UNL     1      44.650   5.199  11.260  0.00  0.00    +0.000 A 
ENDROOT
BRANCH   5   9
ATOM      9  C   UNL     1      45.701   2.869   8.386  0.00  0.00    +0.000 A 
ATOM     10  C   UNL     1      46.224   1.567   8.370  0.00  0.00    +0.000 A 
ATOM     11  C   UNL     1      46.914   1.113   7.253  0.00  0.00    +0.000 A 
ATOM     12  N   UNL     1      47.109   1.850   6.143  0.00  0.00    +0.000 NA
ATOM     13  C   UNL     1      46.589   3.093   6.153  0.00  0.00    +0.000 A 
ATOM     14  C   UNL     1      45.896   3.635   7.228  0.00  0.00    +0.000 A 
ENDBRANCH   5   9
BRANCH   8  15
ATOM     15  C   UNL     1      44.979   6.572  11.785  0.00  0.00    +0.000 C 
BRANCH  15  16
ATOM     16  S   UNL     1      46.770   6.879  11.924  0.00  0.00    +0.000 S 
BRANCH  16  17
ATOM     17  C   UNL     1      47.132   5.915  13.370  0.00  0.00    +0.000 A 
ATOM     18  N   UNL     1      47.834   6.476  14.369  0.00  0.00    +0.000 NA
ATOM     19  C   UNL     1      48.071   5.709  15.453  0.00  0.00    +0.000 A 
ATOM     20  C   UNL     1      47.632   4.415  15.582  0.00  0.00    +0.000 A 
ATOM     21  C   UNL     1      46.936   3.927  14.501  0.00  0.00    +0.000 A 
ATOM     22  N   UNL     1      46.674   4.652  13.392  0.00  0.00    +0.000 NA
BRANCH  20  23
ATOM     23  C   UNL     1      47.881   3.601  16.798  0.00  0.00    +0.000 C 
ATOM     24  F   UNL     1      48.639   2.494  16.562  0.00  0.00    +0.000 F 
ATOM     25  F   UNL     1      48.537   4.299  17.765  0.00  0.00    +0.000 F 
ATOM     26  F   UNL     1      46.734   3.150  17.377  0.00  0.00    +0.000 F 
ENDBRANCH  20  23
ENDBRANCH  16  17
ENDBRANCH  15  16
ENDBRANCH   8  15
TORSDOF 5
ENDMDL
MODEL 5
REMARK VINA RESULT:    -7.489      2.754      6.740
REMARK INTER + INTRA:         -10.260
REMARK INTER:                  -9.802
REMARK INTRA:                  -0.458
REMARK UNBOUND:                -0.582
REMARK  Name = 
REMARK  5 active torsions:
REMARK  status: ('A' for Active; 'I' for Inactive)
REMARK    1  A    between atoms: C_5  and  C_6
REMARK    2  A    between atoms: C_14  and  C_15
REMARK    3  A    between atoms: C_15  and  S_16
REMARK    4  A    between atoms: S_16  and  C_17
REMARK    5  A    between atoms: C_20  and  C_21
REMARK                            x       y       z     vdW  Elec       q    Type
REMARK                         _______ _______ _______ _____ _____    ______ ____
ROOT
ATOM      1  F   UNL     1      42.937   4.594  12.469  0.00  0.00    +0.000 F 
ATOM      2  C   UNL     1      43.679   4.168  11.438  0.00  0.00    +0.000 A 
ATOM      3  C   UNL     1      43.552   2.845  11.033  0.00  0.00    +0.000 A 
ATOM      4  C   UNL     1      44.289   2.376   9.944  0.00  0.00    +0.000 A 
ATOM      5  C   UNL     1      45.153   3.224   9.223  0.00  0.00    +0.000 A 
ATOM      6  C   UNL     1      45.251   4.560   9.673  0.00  0.00    +0.000 A 
ATOM      7  F   UNL     1      46.031   5.426   9.003  0.00  0.00    +0.000 F 
ATOM      8  C   UNL     1      44.542   5.045  10.783  0.00  0.00    +0.000 A 
ENDROOT
BRANCH   5   9
ATOM      9  C   UNL     1      45.920   2.706   8.059  0.00  0.00    +0.000 A 
ATOM     10  C   UNL     1      46.467   1.413   8.056  0.00  0.00    +0.000 A 
ATOM     11  C   UNL     1      47.224   0.987   6.971  0.00  0.00    +0.000 A 
ATOM     12  N   UNL     1      47.464   1.742   5.882  0.00  0.00    +0.000 NA
ATOM     13  C   UNL     1      46.921   2.975   5.880  0.00  0.00    +0.000 A 
ATOM     14  C   UNL     1      46.163   3.491   6.922  0.00  0.00    +0.000 A 
ENDBRANCH   5   9
BRANCH   8  15
ATOM     15  C   UNL     1      44.668   6.483  11.215  0.00  0.00    +0.000 C 
BRANCH  15  16
ATOM     16  S   UNL     1      45.343   6.672  12.897  0.00  0.00    +0.000 S 
BRANCH  16  17
ATOM     17  C   UNL     1      46.961   7.291  12.507  0.00  0.00    +0.000 A 
ATOM     18  N   UNL     1      48.018   6.471  12.622  0.00  0.00    +0.000 NA
ATOM     19  C   UNL     1      49.224   6.981  12.300  0.00  0.00    +0.000 A 
ATOM     20  C   UNL     1      49.415   8.269  11.864  0.00  0.00    +0.000 A 
ATOM     21  C   UNL     1      48.274   9.034  11.794  0.00  0.00    +0.000 A 
ATOM     22  N   UNL     1      47.045   8.571  12.107  0.00  0.00    +0.000 NA
BRANCH  20  23
ATOM     23  C   UNL     1      50.749   8.799  11.488  0.00  0.00    +0.000 C 
ATOM     24  F   UNL     1      51.565   9.018  12.556  0.00  0.00    +0.000 F 
ATOM     25  F   UNL     1      51.432   7.954  10.668  0.00  0.00    +0.000 F 
ATOM     26  F   UNL     1      50.679   9.986  10.824  0.00  0.00    +0.000 F 
ENDBRANCH  20  23
ENDBRANCH  16  17
ENDBRANCH  15  16
ENDBRANCH   8  15
TORSDOF 5
ENDMDL
MODEL 6
REMARK VINA RESULT:    -7.230      1.961      2.760
REMARK INTER + INTRA:          -9.926
REMARK INTER:                 -10.204
REMARK INTRA:                   0.278
REMARK UNBOUND:                -0.582
REMARK  Name = 
REMARK  5 active torsions:
REMARK  status: ('A' for Active; 'I' for Inactive)
REMARK    1  A    between atoms: C_5  and  C_6
REMARK    2  A    between atoms: C_14  and  C_15
REMARK    3  A    between atoms: C_15  and  S_16
REMARK    4  A    between atoms: S_16  and  C_17
REMARK    5  A    between atoms: C_20  and  C_21
REMARK                            x       y       z     vdW  Elec       q    Type
REMARK                         _______ _______ _______ _____ _____    ______ ____
ROOT
ATOM      1  F   UNL     1      44.180   7.014  11.086  0.00  0.00    +0.000 F 
ATOM      2  C   UNL     1      45.236   6.940  11.908  0.00  0.00    +0.000 A 
ATOM      3  C   UNL     1      45.959   8.099  12.163  0.00  0.00    +0.000 A 
ATOM      4  C   UNL     1      47.046   8.064  13.037  0.00  0.00    +0.000 A 
ATOM      5  C   UNL     1      47.422   6.874  13.693  0.00  0.00    +0.000 A 
ATOM      6  C   UNL     1      46.659   5.721  13.401  0.00  0.00    +0.000 A 
ATOM      7  F   UNL     1      46.947   4.565  14.024  0.00  0.00    +0.000 F 
ATOM      8  C   UNL     1      45.580   5.728  12.503  0.00  0.00    +0.000 A 
ENDROOT
BRANCH   5   9
ATOM      9  C   UNL     1      48.578   6.861  14.628  0.00  0.00    +0.000 A 
ATOM     10  C   UNL     1      49.789   7.495  14.309  0.00  0.00    +0.000 A 
ATOM     11  C   UNL     1      50.863   7.413  15.187  0.00  0.00    +0.000 A 
ATOM     12  N   UNL     1      50.819   6.764  16.366  0.00  0.00    +0.000 NA
ATOM     13  C   UNL     1      49.649   6.174  16.679  0.00  0.00    +0.000 A 
ATOM     14  C   UNL     1      48.528   6.192  15.859  0.00  0.00    +0.000 A 
ENDBRANCH   5   9
BRANCH   8  15
ATOM     15  C   UNL     1      44.786   4.475  12.237  0.00  0.00    +0.000 C 
BRANCH  15  16
ATOM     16  S   UNL     1      43.667   4.623  10.806  0.00  0.00    +0.000 S 
BRANCH  16  17
ATOM     17  C   UNL     1      44.673   3.861   9.556  0.00  0.00    +0.000 A 
ATOM     18  N   UNL     1      45.289   4.639   8.651  0.00  0.00    +0.000 NA
ATOM     19  C   UNL     1      46.054   4.017   7.731  0.00  0.00    +0.000 A 
ATOM     20  C   UNL     1      46.233   2.656   7.683  0.00  0.00    +0.000 A 
ATOM     21  C   UNL     1      45.549   1.946   8.641  0.00  0.00    +0.000 A 
ATOM     22  N   UNL     1      44.770   2.521   9.582  0.00  0.00    +0.000 NA
BRANCH  20  23
ATOM     23  C   UNL     1      47.103   1.997   6.677  0.00  0.00    +0.000 C 
ATOM     24  F   UNL     1      48.430   2.234   6.872  0.00  0.00    +0.000 F 
ATOM     25  F   UNL     1      46.966   0.643   6.679  0.00  0.00    +0.000 F 
ATOM     26  F   UNL     1      46.837   2.397   5.404  0.00  0.00    +0.000 F 
ENDBRANCH  20  23
ENDBRANCH  16  17
ENDBRANCH  15  16
ENDBRANCH   8  15
TORSDOF 5
ENDMDL
MODEL 7
REMARK VINA RESULT:    -7.185      2.795      7.181
REMARK INTER + INTRA:          -9.868
REMARK INTER:                  -9.368
REMARK INTRA:                  -0.499
REMARK UNBOUND:                -0.582
REMARK  Name = 
REMARK  5 active torsions:
REMARK  status: ('A' for Active; 'I' for Inactive)
REMARK    1  A    between atoms: C_5  and  C_6
REMARK    2  A    between atoms: C_14  and  C_15
REMARK    3  A    between atoms: C_15  and  S_16
REMARK    4  A    between atoms: S_16  and  C_17
REMARK    5  A    between atoms: C_20  and  C_21
REMARK                            x       y       z     vdW  Elec       q    Type
REMARK                         _______ _______ _______ _____ _____    ______ ____
ROOT
ATOM      1  F   UNL     1      42.704   4.851  12.576  0.00  0.00    +0.000 F 
ATOM      2  C   UNL     1      43.473   4.385  11.583  0.00  0.00    +0.000 A 
ATOM      3  C   UNL     1      43.261   3.088  11.134  0.00  0.00    +0.000 A 
ATOM      4  C   UNL     1      44.025   2.581  10.082  0.00  0.00    +0.000 A 
ATOM      5  C   UNL     1      45.004   3.366   9.441  0.00  0.00    +0.000 A 
ATOM      6  C   UNL     1      45.187   4.678   9.934  0.00  0.00    +0.000 A 
ATOM      7  F   UNL     1      46.081   5.487   9.340  0.00  0.00    +0.000 F 
ATOM      8  C   UNL     1      44.449   5.198  11.010  0.00  0.00    +0.000 A 
ENDROOT
BRANCH   5   9
ATOM      9  C   UNL     1      45.800   2.809   8.316  0.00  0.00    +0.000 A 
ATOM     10  C   UNL     1      46.119   3.582   7.188  0.00  0.00    +0.000 A 
ATOM     11  C   UNL     1      46.818   3.008   6.133  0.00  0.00    +0.000 A 
ATOM     12  N   UNL     1      47.240   1.730   6.122  0.00  0.00    +0.000 NA
ATOM     13  C   UNL     1      46.949   0.996   7.213  0.00  0.00    +0.000 A 
ATOM     14  C   UNL     1      46.244   1.479   8.308  0.00  0.00    +0.000 A 
ENDBRANCH   5   9
BRANCH   8  15
ATOM     15  C   UNL     1      44.670   6.609  11.489  0.00  0.00    +0.000 C 
BRANCH  15  16
ATOM     16  S   UNL     1      45.822   6.720  12.897  0.00  0.00    +0.000 S 
BRANCH  16  17
ATOM     17  C   UNL     1      46.853   8.054  12.340  0.00  0.00    +0.000 A 
ATOM     18  N   UNL     1      46.310   9.272  12.175  0.00  0.00    +0.000 NA
ATOM     19  C   UNL     1      47.135  10.257  11.766  0.00  0.00    +0.000 A 
ATOM     20  C   UNL     1      48.475  10.078  11.523  0.00  0.00    +0.000 A 
ATOM     21  C   UNL     1      48.931   8.794  11.706  0.00  0.00    +0.000 A 
ATOM     22  N   UNL     1      48.147   7.773  12.112  0.00  0.00    +0.000 NA
BRANCH  20  23
ATOM     23  C   UNL     1      49.368  11.185  11.101  0.00  0.00    +0.000 C 
ATOM     24  F   UNL     1      50.413  10.773  10.330  0.00  0.00    +0.000 F 
ATOM     25  F   UNL     1      48.717  12.128  10.367  0.00  0.00    +0.000 F 
ATOM     26  F   UNL     1      49.921  11.849  12.153  0.00  0.00    +0.000 F 
ENDBRANCH  20  23
ENDBRANCH  16  17
ENDBRANCH  15  16
ENDBRANCH   8  15
TORSDOF 5
ENDMDL
MODEL 8
REMARK VINA RESULT:    -6.829      5.222      8.491
REMARK INTER + INTRA:          -9.408
REMARK INTER:                  -8.620
REMARK INTRA:                  -0.788
REMARK UNBOUND:                -0.582
REMARK  Name = 
REMARK  5 active torsions:
REMARK  status: ('A' for Active; 'I' for Inactive)
REMARK    1  A    between atoms: C_5  and  C_6
REMARK    2  A    between atoms: C_14  and  C_15
REMARK    3  A    between atoms: C_15  and  S_16
REMARK    4  A    between atoms: S_16  and  C_17
REMARK    5  A    between atoms: C_20  and  C_21
REMARK                            x       y       z     vdW  Elec       q    Type
REMARK                         _______ _______ _______ _____ _____    ______ ____
ROOT
ATOM      1  F   UNL     1      47.643   9.994  12.610  0.00  0.00    +0.000 F 
ATOM      2  C   UNL     1      47.029   8.874  12.203  0.00  0.00    +0.000 A 
ATOM      3  C   UNL     1      47.787   7.719  12.056  0.00  0.00    +0.000 A 
ATOM      4  C   UNL     1      47.174   6.529  11.662  0.00  0.00    +0.000 A 
ATOM      5  C   UNL     1      45.786   6.461  11.426  0.00  0.00    +0.000 A 
ATOM      6  C   UNL     1      45.057   7.662  11.586  0.00  0.00    +0.000 A 
ATOM      7  F   UNL     1      43.724   7.651  11.410  0.00  0.00    +0.000 F 
ATOM      8  C   UNL     1      45.658   8.876  11.953  0.00  0.00    +0.000 A 
ENDROOT
BRANCH   5   9
ATOM      9  C   UNL     1      45.152   5.181  11.017  0.00  0.00    +0.000 A 
ATOM     10  C   UNL     1      45.153   4.753   9.680  0.00  0.00    +0.000 A 
ATOM     11  C   UNL     1      44.502   3.577   9.331  0.00  0.00    +0.000 A 
ATOM     12  N   UNL     1      43.865   2.783  10.212  0.00  0.00    +0.000 NA
ATOM     13  C   UNL     1      43.882   3.185  11.498  0.00  0.00    +0.000 A 
ATOM     14  C   UNL     1      44.495   4.351  11.938  0.00  0.00    +0.000 A 
ENDBRANCH   5   9
BRANCH   8  15
ATOM     15  C   UNL     1      44.835  10.126  12.125  0.00  0.00    +0.000 C 
BRANCH  15  16
ATOM     16  S   UNL     1      44.100  10.725  10.568  0.00  0.00    +0.000 S 
BRANCH  16  17
ATOM     17  C   UNL     1      42.400  10.849  11.064  0.00  0.00    +0.000 A 
ATOM     18  N   UNL     1      41.458  10.248  10.318  0.00  0.00    +0.000 NA
ATOM     19  C   UNL     1      40.182  10.358  10.742  0.00  0.00    +0.000 A 
ATOM     20  C   UNL     1      39.812  11.034  11.879  0.00  0.00    +0.000 A 
ATOM     21  C   UNL     1      40.846  11.627  12.564  0.00  0.00    +0.000 A 
ATOM     22  N   UNL     1      42.139  11.549  12.180  0.00  0.00    +0.000 NA
BRANCH  20  23
ATOM     23  C   UNL     1      38.404  11.116  12.340  0.00  0.00    +0.000 C 
ATOM     24  F   UNL     1      37.762   9.915  12.333  0.00  0.00    +0.000 F 
ATOM     25  F   UNL     1      38.301  11.582  13.615  0.00  0.00    +0.000 F 
ATOM     26  F   UNL     1      37.645  11.949  11.577  0.00  0.00    +0.000 F 
ENDBRANCH  20  23
ENDBRANCH  16  17
ENDBRANCH  15  16
ENDBRANCH   8  15
TORSDOF 5
ENDMDL
MODEL 9
REMARK VINA RESULT:    -6.615      3.884      7.968
REMARK INTER + INTRA:          -9.131
REMARK INTER:                  -8.250
REMARK INTRA:                  -0.882
REMARK UNBOUND:                -0.582
REMARK  Name = 
REMARK  5 active torsions:
REMARK  status: ('A' for Active; 'I' for Inactive)
REMARK    1  A    between atoms: C_5  and  C_6
REMARK    2  A    between atoms: C_14  and  C_15
REMARK    3  A    between atoms: C_15  and  S_16
REMARK    4  A    between atoms: S_16  and  C_17
REMARK    5  A    between atoms: C_20  and  C_21
REMARK                            x       y       z     vdW  Elec       q    Type
REMARK                         _______ _______ _______ _____ _____    ______ ____
ROOT
ATOM      1  F   UNL     1      47.871  10.104  12.597  0.00  0.00    +0.000 F 
ATOM      2  C   UNL     1      47.153   8.986  12.426  0.00  0.00    +0.000 A 
ATOM      3  C   UNL     1      45.840   9.103  11.986  0.00  0.00    +0.000 A 
ATOM      4  C   UNL     1      45.073   7.957  11.769  0.00  0.00    +0.000 A 
ATOM      5  C   UNL     1      45.607   6.668  11.967  0.00  0.00    +0.000 A 
ATOM      6  C   UNL     1      46.945   6.599  12.417  0.00  0.00    +0.000 A 
ATOM      7  F   UNL     1      47.521   5.396  12.589  0.00  0.00    +0.000 F 
ATOM      8  C   UNL     1      47.725   7.739  12.669  0.00  0.00    +0.000 A 
ENDROOT
BRANCH   5   9
ATOM      9  C   UNL     1      44.775   5.461  11.720  0.00  0.00    +0.000 A 
ATOM     10  C   UNL     1      44.000   4.882  12.738  0.00  0.00    +0.000 A 
ATOM     11  C   UNL     1      43.279   3.722  12.480  0.00  0.00    +0.000 A 
ATOM     12  N   UNL     1      43.256   3.105  11.284  0.00  0.00    +0.000 NA
ATOM     13  C   UNL     1      43.985   3.673  10.305  0.00  0.00    +0.000 A 
ATOM     14  C   UNL     1      44.746   4.823  10.472  0.00  0.00    +0.000 A 
ENDBRANCH   5   9
BRANCH   8  15
ATOM     15  C   UNL     1      49.153   7.612  13.133  0.00  0.00    +0.000 C 
BRANCH  15  16
ATOM     16  S   UNL     1      49.412   8.212  14.835  0.00  0.00    +0.000 S 
BRANCH  16  17
ATOM     17  C   UNL     1      49.237   6.685  15.724  0.00  0.00    +0.000 A 
ATOM     18  N   UNL     1      50.282   6.217  16.427  0.00  0.00    +0.000 NA
ATOM     19  C   UNL     1      50.097   5.062  17.098  0.00  0.00    +0.000 A 
ATOM     20  C   UNL     1      48.915   4.363  17.101  0.00  0.00    +0.000 A 
ATOM     21  C   UNL     1      47.912   4.915  16.340  0.00  0.00    +0.000 A 
ATOM     22  N   UNL     1      48.047   6.067  15.649  0.00  0.00    +0.000 NA
BRANCH  20  23
ATOM     23  C   UNL     1      48.728   3.108  17.872  0.00  0.00    +0.000 C 
ATOM     24  F   UNL     1      47.669   2.364  17.445  0.00  0.00    +0.000 F 
ATOM     25  F   UNL     1      49.810   2.287  17.799  0.00  0.00    +0.000 F 
ATOM     26  F   UNL     1      48.516   3.329  19.198  0.00  0.00    +0.000 F 
ENDBRANCH  20  23
ENDBRANCH  16  17
ENDBRANCH  15  16
ENDBRANCH   8  15
TORSDOF 5
ENDMDL
