MODEL 1
REMARK VINA RESULT:    -7.743      0.000      0.000
REMARK INTER + INTRA:         -13.040
REMARK INTER:                 -12.043
REMARK INTRA:                  -0.997
REMARK UNBOUND:                -0.997
REMARK  Name = 
REMARK  10 active torsions:
REMARK  status: ('A' for Active; 'I' for Inactive)
REMARK    1  A    between atoms: N_1  and  C_2
REMARK    2  A    between atoms: C_2  and  C_3
REMARK    3  A    between atoms: C_3  and  N_4
REMARK    4  A    between atoms: C_3  and  C_12
REMARK    5  A    between atoms: N_4  and  C_5
REMARK    6  A    between atoms: C_5  and  C_6
REMARK    7  A    between atoms: C_15  and  C_16
REMARK    8  A    between atoms: C_16  and  N_17
REMARK    9  A    between atoms: N_17  and  C_18
REMARK   10  A    between atoms: C_18  and  C_19
REMARK                            x       y       z     vdW  Elec       q    Type
REMARK                         _______ _______ _______ _____ _____    ______ ____
ROOT
ATOM      1  C   UNL     1      47.132   5.997  12.741  0.00  0.00    +0.000 A 
ATOM      2  C   UNL     1      46.227   5.055  13.266  0.00  0.00    +0.000 A 
ATOM      3  C   UNL     1      45.076   4.690  12.562  0.00  0.00    +0.000 A 
ATOM      4  C   UNL     1      44.819   5.223  11.294  0.00  0.00    +0.000 A 
ATOM      5  C   UNL     1      45.737   6.123  10.744  0.00  0.00    +0.000 A 
ATOM      6  C   UNL     1      46.869   6.516  11.464  0.00  0.00    +0.000 A 
ENDROOT
BRANCH   1   7
ATOM      7  C   UNL     1      48.297   6.483  13.605  0.00  0.00    +0.000 C 
BRANCH   7   8
ATOM      8  N   UNL     1      47.874   6.778  14.993  0.00  0.00    +0.000 NA
ATOM      9  H   UNL     1      46.972   6.341  15.163  0.00  0.00    +0.000 HD
BRANCH   8  10
ATOM     10  C   UNL     1      48.833   6.375  16.017  0.00  0.00    +0.000 C 
BRANCH  10  11
ATOM     11  C   UNL     1      48.419   5.109  16.700  0.00  0.00    +0.000 A 
ATOM     12  C   UNL     1      47.185   4.523  16.482  0.00  0.00    +0.000 A 
ATOM     13  N   UNL     1      46.782   3.379  17.069  0.00  0.00    +0.000 NA
ATOM     14  C   UNL     1      47.668   2.815  17.900  0.00  0.00    +0.000 A 
ATOM     15  N   UNL     1      48.895   3.276  18.184  0.00  0.00    +0.000 NA
ATOM     16  C   UNL     1      49.241   4.426  17.570  0.00  0.00    +0.000 A 
ENDBRANCH  10  11
ENDBRANCH   8  10
ENDBRANCH   7   8
BRANCH   7  17
ATOM     17  C   UNL     1      49.001   7.742  12.980  0.00  0.00    +0.000 C 
BRANCH  17  18
ATOM     18  N   UNL     1      50.320   7.500  12.382  0.00  0.00    +0.000 NA
ATOM     19  H   UNL     1      50.508   8.214  11.681  0.00  0.00    +0.000 HD
ATOM     20  H   UNL     1      50.321   6.605  11.901  0.00  0.00    +0.000 HD
ENDBRANCH  17  18
ENDBRANCH   7  17
ENDBRANCH   1   7
BRANCH   4  21
ATOM     21  C   UNL     1      43.567   4.843  10.538  0.00  0.00    +0.000 C 
BRANCH  21  22
ATOM     22  N   UNL     1      43.901   4.252   9.246  0.00  0.00    +0.000 NA
ATOM     23  H   UNL     1      44.669   4.780   8.829  0.00  0.00    +0.000 HD
BRANCH  22  24
ATOM     24  C   UNL     1      44.345   2.861   9.404  0.00  0.00    +0.000 C 
BRANCH  24  25
ATOM     25  C   UNL     1      45.474   2.514   8.453  0.00  0.00    +0.000 A 
ATOM     26  C   UNL     1      46.006   3.491   7.613  0.00  0.00    +0.000 A 
ATOM     27  C   UNL     1      47.050   3.152   6.757  0.00  0.00    +0.000 A 
ATOM     28  C   UNL     1      47.533   1.849   6.759  0.00  0.00    +0.000 A 
ATOM     29  C   UNL     1      46.949   0.937   7.622  0.00  0.00    +0.000 A 
ATOM     30  N   UNL     1      45.937   1.238   8.468  0.00  0.00    +0.000 NA
ENDBRANCH  24  25
ENDBRANCH  22  24
ENDBRANCH  21  22
ENDBRANCH   4  21
TORSDOF 10
ENDMDL
MODEL 2
REMARK VINA RESULT:    -7.574      1.383      8.161
REMARK INTER + INTRA:         -12.777
REMARK INTER:                 -11.728
REMARK INTRA:                  -1.049
REMARK UNBOUND:                -0.997
REMARK  Name = 
REMARK  10 active torsions:
REMARK  status: ('A' for Active; 'I' for Inactive)
REMARK    1  A    between atoms: N_1  and  C_2
REMARK    2  A    between atoms: C_2  and  C_3
REMARK    3  A    between atoms: C_3  and  N_4
REMARK    4  A    between atoms: C_3  and  C_12
REMARK    5  A    between atoms: N_4  and  C_5
REMARK    6  A    between atoms: C_5  and  C_6
REMARK    7  A    between atoms: C_15  and  C_16
REMARK    8  A    between atoms: C_16  and  N_17
REMARK    9  A    between atoms: N_17  and  C_18
REMARK   10  A    between atoms: C_18  and  C_19
REMARK                            x       y       z     vdW  Elec       q    Type
REMARK                         _______ _______ _______ _____ _____    ______ ____
ROOT
ATOM      1  C   UNL     1      45.657   5.424  11.902  0.00  0.00    +0.000 A 
ATOM      2  C   UNL     1      45.936   4.863  13.162  0.00  0.00    +0.000 A 
ATOM      3  C   UNL     1      46.972   5.359  13.958  0.00  0.00    +0.000 A 
ATOM      4  C   UNL     1      47.730   6.457  13.538  0.00  0.00    +0.000 A 
ATOM      5  C   UNL     1      47.428   7.051  12.309  0.00  0.00    +0.000 A 
ATOM      6  C   UNL     1      46.415   6.531  11.495  0.00  0.00    +0.000 A 
ENDROOT
BRANCH   1   7
ATOM      7  C   UNL     1      44.617   4.758  10.996  0.00  0.00    +0.000 C 
BRANCH   7   8
ATOM      8  N   UNL     1      44.884   5.016   9.563  0.00  0.00    +0.000 NA
ATOM      9  H   UNL     1      45.884   5.146   9.432  0.00  0.00    +0.000 HD
BRANCH   8  10
ATOM     10  C   UNL     1      44.385   3.983   8.660  0.00  0.00    +0.000 C 
BRANCH  10  11
ATOM     11  C   UNL     1      45.487   3.103   8.157  0.00  0.00    +0.000 A 
ATOM     12  C   UNL     1      45.579   1.767   8.503  0.00  0.00    +0.000 A 
ATOM     13  N   UNL     1      46.549   0.942   8.060  0.00  0.00    +0.000 NA
ATOM     14  C   UNL     1      47.446   1.497   7.236  0.00  0.00    +0.000 A 
ATOM     15  N   UNL     1      47.458   2.772   6.819  0.00  0.00    +0.000 NA
ATOM     16  C   UNL     1      46.466   3.550   7.298  0.00  0.00    +0.000 A 
ENDBRANCH  10  11
ENDBRANCH   8  10
ENDBRANCH   7   8
BRANCH   7  17
ATOM     17  C   UNL     1      43.155   5.209  11.359  0.00  0.00    +0.000 C 
BRANCH  17  18
ATOM     18  N   UNL     1      42.803   6.584  10.986  0.00  0.00    +0.000 NA
ATOM     19  H   UNL     1      43.635   7.169  11.031  0.00  0.00    +0.000 HD
ATOM     20  H   UNL     1      42.138   6.963  11.655  0.00  0.00    +0.000 HD
ENDBRANCH  17  18
ENDBRANCH   7  17
ENDBRANCH   1   7
BRANCH   4  21
ATOM     21  C   UNL     1      48.861   6.984  14.389  0.00  0.00    +0.000 C 
BRANCH  21  22
ATOM     22  N   UNL     1      48.404   7.254  15.750  0.00  0.00    +0.000 NA
ATOM     23  H   UNL     1      47.488   6.824  15.882  0.00  0.00    +0.000 HD
BRANCH  22  24
ATOM     24  C   UNL     1      49.321   6.670  16.737  0.00  0.00    +0.000 C 
BRANCH  24  25
ATOM     25  C   UNL     1      48.973   5.228  17.051  0.00  0.00    +0.000 A 
ATOM     26  C   UNL     1      47.659   4.874  17.353  0.00  0.00    +0.000 A 
ATOM     27  C   UNL     1      47.362   3.542  17.626  0.00  0.00    +0.000 A 
ATOM     28  C   UNL     1      48.383   2.600  17.594  0.00  0.00    +0.000 A 
ATOM     29  C   UNL     1      49.662   3.031  17.287  0.00  0.00    +0.000 A 
ATOM     30  N   UNL     1      49.980   4.317  17.013  0.00  0.00    +0.000 NA
ENDBRANCH  24  25
ENDBRANCH  22  24
ENDBRANCH  21  22
ENDBRANCH   4  21
TORSDOF 10
ENDMDL
MODEL 3
REMARK VINA RESULT:    -7.432      1.373      8.232
REMARK INTER + INTRA:         -12.557
REMARK INTER:                 -11.591
REMARK INTRA:                  -0.966
REMARK UNBOUND:                -0.997
REMARK  Name = 
REMARK  10 active torsions:
REMARK  status: ('A' for Active; 'I' for Inactive)
REMARK    1  A    between atoms: N_1  and  C_2
REMARK    2  A    between atoms: C_2  and  C_3
REMARK    3  A    between atoms: C_3  and  N_4
REMARK    4  A    between atoms: C_3  and  C_12
REMARK    5  A    between atoms: N_4  and  C_5
REMARK    6  A    between atoms: C_5  and  C_6
REMARK    7  A    between atoms: C_15  and  C_16
REMARK    8  A    between atoms: C_16  and  N_17
REMARK    9  A    between atoms: N_17  and  C_18
REMARK   10  A    between atoms: C_18  and  C_19
REMARK                            x       y       z     vdW  Elec       q    Type
REMARK                         _______ _______ _______ _____ _____    ______ ____
ROOT
ATOM      1  C   UNL     1      45.730   5.338  11.690  0.00  0.00    +0.000 A 
ATOM      2  C   UNL     1      46.420   6.477  11.233  0.00  0.00    +0.000 A 
ATOM      3  C   UNL     1      47.325   7.150  12.058  0.00  0.00    +0.000 A 
ATOM      4  C   UNL     1      47.599   6.680  13.347  0.00  0.00    +0.000 A 
ATOM      5  C   UNL     1      46.954   5.522  13.791  0.00  0.00    +0.000 A 
ATOM      6  C   UNL     1      46.020   4.869  12.979  0.00  0.00    +0.000 A 
ENDROOT
BRANCH   1   7
ATOM      7  C   UNL     1      44.637   4.720  10.814  0.00  0.00    +0.000 C 
BRANCH   7   8
ATOM      8  N   UNL     1      44.850   5.005   9.376  0.00  0.00    +0.000 NA
ATOM      9  H   UNL     1      45.837   5.190   9.219  0.00  0.00    +0.000 HD
BRANCH   8  10
ATOM     10  C   UNL     1      44.382   3.956   8.476  0.00  0.00    +0.000 C 
BRANCH  10  11
ATOM     11  C   UNL     1      45.500   3.072   8.021  0.00  0.00    +0.000 A 
ATOM     12  C   UNL     1      46.497   3.522   7.175  0.00  0.00    +0.000 A 
ATOM     13  N   UNL     1      47.526   2.759   6.753  0.00  0.00    +0.000 NA
ATOM     14  C   UNL     1      47.538   1.502   7.214  0.00  0.00    +0.000 A 
ATOM     15  N   UNL     1      46.639   0.953   8.045  0.00  0.00    +0.000 NA
ATOM     16  C   UNL     1      45.631   1.763   8.429  0.00  0.00    +0.000 A 
ENDBRANCH  10  11
ENDBRANCH   8  10
ENDBRANCH   7   8
BRANCH   7  17
ATOM     17  C   UNL     1      43.203   5.195  11.249  0.00  0.00    +0.000 C 
BRANCH  17  18
ATOM     18  N   UNL     1      42.939   6.632  11.103  0.00  0.00    +0.000 NA
ATOM     19  H   UNL     1      43.519   7.007  10.354  0.00  0.00    +0.000 HD
ATOM     20  H   UNL     1      43.205   7.119  11.955  0.00  0.00    +0.000 HD
ENDBRANCH  17  18
ENDBRANCH   7  17
ENDBRANCH   1   7
BRANCH   4  21
ATOM     21  C   UNL     1      48.564   7.416  14.247  0.00  0.00    +0.000 C 
BRANCH  21  22
ATOM     22  N   UNL     1      48.226   7.206  15.651  0.00  0.00    +0.000 NA
ATOM     23  H   UNL     1      47.439   6.558  15.709  0.00  0.00    +0.000 HD
BRANCH  22  24
ATOM     24  C   UNL     1      49.354   6.610  16.379  0.00  0.00    +0.000 C 
BRANCH  24  25
ATOM     25  C   UNL     1      49.025   5.224  16.898  0.00  0.00    +0.000 A 
ATOM     26  C   UNL     1      47.702   4.870  17.161  0.00  0.00    +0.000 A 
ATOM     27  C   UNL     1      47.424   3.588  17.625  0.00  0.00    +0.000 A 
ATOM     28  C   UNL     1      48.471   2.695  17.817  0.00  0.00    +0.000 A 
ATOM     29  C   UNL     1      49.757   3.123  17.535  0.00  0.00    +0.000 A 
ATOM     30  N   UNL     1      50.057   4.361  17.079  0.00  0.00    +0.000 NA
ENDBRANCH  24  25
ENDBRANCH  22  24
ENDBRANCH  21  22
ENDBRANCH   4  21
TORSDOF 10
ENDMDL
MODEL 4
REMARK VINA RESULT:    -6.800      2.752      8.062
REMARK INTER + INTRA:         -11.573
REMARK INTER:                 -10.426
REMARK INTRA:                  -1.147
REMARK UNBOUND:                -0.997
REMARK  Name = 
REMARK  10 active torsions:
REMARK  status: ('A' for Active; 'I' for Inactive)
REMARK    1  A    between atoms: N_1  and  C_2
REMARK    2  A    between atoms: C_2  and  C_3
REMARK    3  A    between atoms: C_3  and  N_4
REMARK    4  A    between atoms: C_3  and  C_12
REMARK    5  A    between atoms: N_4  and  C_5
REMARK    6  A    between atoms: C_5  and  C_6
REMARK    7  A    between atoms: C_15  and  C_16
REMARK    8  A    between atoms: C_16  and  N_17
REMARK    9  A    between atoms: N_17  and  C_18
REMARK   10  A    between atoms: C_18  and  C_19
REMARK                            x       y       z     vdW  Elec       q    Type
REMARK                         _______ _______ _______ _____ _____    ______ ____
ROOT
ATOM      1  C   UNL     1      45.345   5.054  11.874  0.00  0.00    +0.000 A 
ATOM      2  C   UNL     1      45.847   6.053  11.019  0.00  0.00    +0.000 A 
ATOM      3  C   UNL     1      46.962   6.815  11.378  0.00  0.00    +0.000 A 
ATOM      4  C   UNL     1      47.634   6.571  12.580  0.00  0.00    +0.000 A 
ATOM      5  C   UNL     1      47.171   5.548  13.413  0.00  0.00    +0.000 A 
ATOM      6  C   UNL     1      46.033   4.811  13.072  0.00  0.00    +0.000 A 
ENDROOT
BRANCH   1   7
ATOM      7  C   UNL     1      44.036   4.347  11.516  0.00  0.00    +0.000 C 
BRANCH   7   8
ATOM      8  N   UNL     1      43.995   3.940  10.093  0.00  0.00    +0.000 NA
ATOM      9  H   UNL     1      44.457   4.652   9.533  0.00  0.00    +0.000 HD
BRANCH   8  10
ATOM     10  C   UNL     1      44.577   2.628   9.823  0.00  0.00    +0.000 C 
BRANCH  10  11
ATOM     11  C   UNL     1      45.486   2.656   8.634  0.00  0.00    +0.000 A 
ATOM     12  C   UNL     1      45.696   3.806   7.894  0.00  0.00    +0.000 A 
ATOM     13  N   UNL     1      46.515   3.872   6.826  0.00  0.00    +0.000 NA
ATOM     14  C   UNL     1      47.140   2.732   6.506  0.00  0.00    +0.000 A 
ATOM     15  N   UNL     1      47.028   1.559   7.149  0.00  0.00    +0.000 NA
ATOM     16  C   UNL     1      46.192   1.553   8.208  0.00  0.00    +0.000 A 
ENDBRANCH  10  11
ENDBRANCH   8  10
ENDBRANCH   7   8
BRANCH   7  17
ATOM     17  C   UNL     1      42.783   5.234  11.856  0.00  0.00    +0.000 C 
BRANCH  17  18
ATOM     18  N   UNL     1      42.568   5.508  13.282  0.00  0.00    +0.000 NA
ATOM     19  H   UNL     1      42.789   4.675  13.823  0.00  0.00    +0.000 HD
ATOM     20  H   UNL     1      41.586   5.717  13.448  0.00  0.00    +0.000 HD
ENDBRANCH  17  18
ENDBRANCH   7  17
ENDBRANCH   1   7
BRANCH   4  21
ATOM     21  C   UNL     1      48.830   7.405  12.978  0.00  0.00    +0.000 C 
BRANCH  21  22
ATOM     22  N   UNL     1      48.406   8.697  13.512  0.00  0.00    +0.000 NA
ATOM     23  H   UNL     1      48.724   8.775  14.479  0.00  0.00    +0.000 HD
BRANCH  22  24
ATOM     24  C   UNL     1      49.005   9.801  12.751  0.00  0.00    +0.000 C 
BRANCH  24  25
ATOM     25  C   UNL     1      47.975  10.539  11.918  0.00  0.00    +0.000 A 
ATOM     26  C   UNL     1      48.382  11.359  10.866  0.00  0.00    +0.000 A 
ATOM     27  C   UNL     1      47.418  12.016  10.109  0.00  0.00    +0.000 A 
ATOM     28  C   UNL     1      46.075  11.844  10.422  0.00  0.00    +0.000 A 
ATOM     29  C   UNL     1      45.752  11.015  11.483  0.00  0.00    +0.000 A 
ATOM     30  N   UNL     1      46.667  10.359  12.234  0.00  0.00    +0.000 NA
ENDBRANCH  24  25
ENDBRANCH  22  24
ENDBRANCH  21  22
ENDBRANCH   4  21
TORSDOF 10
ENDMDL
MODEL 5
REMARK VINA RESULT:    -6.619      2.686      7.811
REMARK INTER + INTRA:         -11.292
REMARK INTER:                 -10.709
REMARK INTRA:                  -0.583
REMARK UNBOUND:                -0.997
REMARK  Name = 
REMARK  10 active torsions:
REMARK  status: ('A' for Active; 'I' for Inactive)
REMARK    1  A    between atoms: N_1  and  C_2
REMARK    2  A    between atoms: C_2  and  C_3
REMARK    3  A    between atoms: C_3  and  N_4
REMARK    4  A    between atoms: C_3  and  C_12
REMARK    5  A    between atoms: N_4  and  C_5
REMARK    6  A    between atoms: C_5  and  C_6
REMARK    7  A    between atoms: C_15  and  C_16
REMARK    8  A    between atoms: C_16  and  N_17
REMARK    9  A    between atoms: N_17  and  C_18
REMARK   10  A    between atoms: C_18  and  C_19
REMARK                            x       y       z     vdW  Elec       q    Type
REMARK                         _______ _______ _______ _____ _____    ______ ____
ROOT
ATOM      1  C   UNL     1      44.995   4.812  11.817  0.00  0.00    +0.000 A 
ATOM      2  C   UNL     1      45.626   5.792  11.029  0.00  0.00    +0.000 A 
ATOM      3  C   UNL     1      46.738   6.493  11.504  0.00  0.00    +0.000 A 
ATOM      4  C   UNL     1      47.278   6.204  12.762  0.00  0.00    +0.000 A 
ATOM      5  C   UNL     1      46.686   5.198  13.532  0.00  0.00    +0.000 A 
ATOM      6  C   UNL     1      45.550   4.523  13.072  0.00  0.00    +0.000 A 
ENDROOT
BRANCH   1   7
ATOM      7  C   UNL     1      43.692   4.176  11.325  0.00  0.00    +0.000 C 
BRANCH   7   8
ATOM      8  N   UNL     1      43.744   3.851   9.882  0.00  0.00    +0.000 NA
ATOM      9  H   UNL     1      44.263   4.578   9.398  0.00  0.00    +0.000 HD
BRANCH   8  10
ATOM     10  C   UNL     1      44.310   2.539   9.578  0.00  0.00    +0.000 C 
BRANCH  10  11
ATOM     11  C   UNL     1      45.405   2.626   8.562  0.00  0.00    +0.000 A 
ATOM     12  C   UNL     1      45.698   3.801   7.893  0.00  0.00    +0.000 A 
ATOM     13  N   UNL     1      46.683   3.920   6.981  0.00  0.00    +0.000 NA
ATOM     14  C   UNL     1      47.393   2.809   6.750  0.00  0.00    +0.000 A 
ATOM     15  N   UNL     1      47.215   1.617   7.341  0.00  0.00    +0.000 NA
ATOM     16  C   UNL     1      46.212   1.557   8.241  0.00  0.00    +0.000 A 
ENDBRANCH  10  11
ENDBRANCH   8  10
ENDBRANCH   7   8
BRANCH   7  17
ATOM     17  C   UNL     1      42.449   5.090  11.624  0.00  0.00    +0.000 C 
BRANCH  17  18
ATOM     18  N   UNL     1      42.667   6.533  11.461  0.00  0.00    +0.000 NA
ATOM     19  H   UNL     1      43.449   6.685  10.827  0.00  0.00    +0.000 HD
ATOM     20  H   UNL     1      42.924   6.945  12.354  0.00  0.00    +0.000 HD
ENDBRANCH  17  18
ENDBRANCH   7  17
ENDBRANCH   1   7
BRANCH   4  21
ATOM     21  C   UNL     1      48.469   6.972  13.285  0.00  0.00    +0.000 C 
BRANCH  21  22
ATOM     22  N   UNL     1      49.637   6.759  12.434  0.00  0.00    +0.000 NA
ATOM     23  H   UNL     1      49.446   5.983  11.799  0.00  0.00    +0.000 HD
BRANCH  22  24
ATOM     24  C   UNL     1      49.917   7.948  11.619  0.00  0.00    +0.000 C 
BRANCH  24  25
ATOM     25  C   UNL     1      51.358   7.988  11.150  0.00  0.00    +0.000 A 
ATOM     26  C   UNL     1      51.784   7.143  10.125  0.00  0.00    +0.000 A 
ATOM     27  C   UNL     1      53.109   7.206   9.704  0.00  0.00    +0.000 A 
ATOM     28  C   UNL     1      53.973   8.104  10.317  0.00  0.00    +0.000 A 
ATOM     29  C   UNL     1      53.474   8.907  11.328  0.00  0.00    +0.000 A 
ATOM     30  N   UNL     1      52.191   8.872  11.756  0.00  0.00    +0.000 NA
ENDBRANCH  24  25
ENDBRANCH  22  24
ENDBRANCH  21  22
ENDBRANCH   4  21
TORSDOF 10
ENDMDL
MODEL 6
REMARK VINA RESULT:    -6.358      2.865      8.099
REMARK INTER + INTRA:         -10.886
REMARK INTER:                 -10.006
REMARK INTRA:                  -0.880
REMARK UNBOUND:                -0.997
REMARK  Name = 
REMARK  10 active torsions:
REMARK  status: ('A' for Active; 'I' for Inactive)
REMARK    1  A    between atoms: N_1  and  C_2
REMARK    2  A    between atoms: C_2  and  C_3
REMARK    3  A    between atoms: C_3  and  N_4
REMARK    4  A    between atoms: C_3  and  C_12
REMARK    5  A    between atoms: N_4  and  C_5
REMARK    6  A    between atoms: C_5  and  C_6
REMARK    7  A    between atoms: C_15  and  C_16
REMARK    8  A    between atoms: C_16  and  N_17
REMARK    9  A    between atoms: N_17  and  C_18
REMARK   10  A    between atoms: C_18  and  C_19
REMARK                            x       y       z     vdW  Elec       q    Type
REMARK                         _______ _______ _______ _____ _____    ______ ____
ROOT
ATOM      1  C   UNL     1      44.863   5.217  11.207  0.00  0.00    +0.000 A 
ATOM      2  C   UNL     1      43.852   6.195  11.239  0.00  0.00    +0.000 A 
ATOM      3  C   UNL     1      44.133   7.510  11.618  0.00  0.00    +0.000 A 
ATOM      4  C   UNL     1      45.441   7.896  11.933  0.00  0.00    +0.000 A 
ATOM      5  C   UNL     1      46.460   6.942  11.856  0.00  0.00    +0.000 A 
ATOM      6  C   UNL     1      46.172   5.617  11.513  0.00  0.00    +0.000 A 
ENDROOT
BRANCH   1   7
ATOM      7  C   UNL     1      44.488   3.757  10.935  0.00  0.00    +0.000 C 
BRANCH   7   8
ATOM      8  N   UNL     1      43.909   3.575   9.584  0.00  0.00    +0.000 NA
ATOM      9  H   UNL     1      42.990   4.010   9.558  0.00  0.00    +0.000 HD
BRANCH   8  10
ATOM     10  C   UNL     1      44.740   4.083   8.497  0.00  0.00    +0.000 C 
BRANCH  10  11
ATOM     11  C   UNL     1      45.684   3.041   7.983  0.00  0.00    +0.000 A 
ATOM     12  C   UNL     1      46.609   3.310   6.990  0.00  0.00    +0.000 A 
ATOM     13  N   UNL     1      47.482   2.402   6.511  0.00  0.00    +0.000 NA
ATOM     14  C   UNL     1      47.410   1.185   7.064  0.00  0.00    +0.000 A 
ATOM     15  N   UNL     1      46.568   0.805   8.038  0.00  0.00    +0.000 NA
ATOM     16  C   UNL     1      45.716   1.755   8.474  0.00  0.00    +0.000 A 
ENDBRANCH  10  11
ENDBRANCH   8  10
ENDBRANCH   7   8
BRANCH   7  17
ATOM     17  C   UNL     1      43.501   3.197  12.022  0.00  0.00    +0.000 C 
BRANCH  17  18
ATOM     18  N   UNL     1      42.921   1.880  11.735  0.00  0.00    +0.000 NA
ATOM     19  H   UNL     1      42.066   1.763  12.276  0.00  0.00    +0.000 HD
ATOM     20  H   UNL     1      43.562   1.149  12.033  0.00  0.00    +0.000 HD
ENDBRANCH  17  18
ENDBRANCH   7  17
ENDBRANCH   1   7
BRANCH   4  21
ATOM     21  C   UNL     1      45.745   9.314  12.359  0.00  0.00    +0.000 C 
BRANCH  21  22
ATOM     22  N   UNL     1      47.085   9.707  11.932  0.00  0.00    +0.000 NA
ATOM     23  H   UNL     1      47.004  10.416  11.203  0.00  0.00    +0.000 HD
BRANCH  22  24
ATOM     24  C   UNL     1      47.840  10.291  13.047  0.00  0.00    +0.000 C 
BRANCH  24  25
ATOM     25  C   UNL     1      48.664   9.251  13.781  0.00  0.00    +0.000 A 
ATOM     26  C   UNL     1      48.168   8.657  14.942  0.00  0.00    +0.000 A 
ATOM     27  C   UNL     1      48.937   7.696  15.591  0.00  0.00    +0.000 A 
ATOM     28  C   UNL     1      50.180   7.356  15.070  0.00  0.00    +0.000 A 
ATOM     29  C   UNL     1      50.601   7.993  13.915  0.00  0.00    +0.000 A 
ATOM     30  N   UNL     1      49.874   8.927  13.260  0.00  0.00    +0.000 NA
ENDBRANCH  24  25
ENDBRANCH  22  24
ENDBRANCH  21  22
ENDBRANCH   4  21
TORSDOF 10
ENDMDL
MODEL 7
REMARK VINA RESULT:    -6.283      2.434      8.746
REMARK INTER + INTRA:         -10.769
REMARK INTER:                  -9.832
REMARK INTRA:                  -0.937
REMARK UNBOUND:                -0.997
REMARK  Name = 
REMARK  10 active torsions:
REMARK  status: ('A' for Active; 'I' for Inactive)
REMARK    1  A    between atoms: N_1  and  C_2
REMARK    2  A    between atoms: C_2  and  C_3
REMARK    3  A    between atoms: C_3  and  N_4
REMARK    4  A    between atoms: C_3  and  C_12
REMARK    5  A    between atoms: N_4  and  C_5
REMARK    6  A    between atoms: C_5  and  C_6
REMARK    7  A    between atoms: C_15  and  C_16
REMARK    8  A    between atoms: C_16  and  N_17
REMARK    9  A    between atoms: N_17  and  C_18
REMARK   10  A    between atoms: C_18  and  C_19
REMARK                            x       y       z     vdW  Elec       q    Type
REMARK                         _______ _______ _______ _____ _____    ______ ____
ROOT
ATOM      1  C   UNL     1      45.635   4.878  12.301  0.00  0.00    +0.000 A 
ATOM      2  C   UNL     1      46.003   5.927  11.437  0.00  0.00    +0.000 A 
ATOM      3  C   UNL     1      47.015   6.825  11.784  0.00  0.00    +0.000 A 
ATOM      4  C   UNL     1      47.719   6.676  12.984  0.00  0.00    +0.000 A 
ATOM      5  C   UNL     1      47.392   5.609  13.826  0.00  0.00    +0.000 A 
ATOM      6  C   UNL     1      46.354   4.732  13.497  0.00  0.00    +0.000 A 
ENDROOT
BRANCH   1   7
ATOM      7  C   UNL     1      44.423   4.010  11.956  0.00  0.00    +0.000 C 
BRANCH   7   8
ATOM      8  N   UNL     1      44.811   2.777  11.233  0.00  0.00    +0.000 NA
ATOM      9  H   UNL     1      44.556   1.970  11.796  0.00  0.00    +0.000 HD
BRANCH   8  10
ATOM     10  C   UNL     1      44.245   2.659   9.893  0.00  0.00    +0.000 C 
BRANCH  10  11
ATOM     11  C   UNL     1      45.297   2.762   8.833  0.00  0.00    +0.000 A 
ATOM     12  C   UNL     1      45.990   1.656   8.373  0.00  0.00    +0.000 A 
ATOM     13  N   UNL     1      46.934   1.707   7.413  0.00  0.00    +0.000 NA
ATOM     14  C   UNL     1      47.174   2.922   6.904  0.00  0.00    +0.000 A 
ATOM     15  N   UNL     1      46.563   4.064   7.256  0.00  0.00    +0.000 NA
ATOM     16  C   UNL     1      45.631   3.951   8.224  0.00  0.00    +0.000 A 
ENDBRANCH  10  11
ENDBRANCH   8  10
ENDBRANCH   7   8
BRANCH   7  17
ATOM     17  C   UNL     1      43.354   4.806  11.122  0.00  0.00    +0.000 C 
BRANCH  17  18
ATOM     18  N   UNL     1      42.154   5.220  11.859  0.00  0.00    +0.000 NA
ATOM     19  H   UNL     1      41.327   4.998  11.307  0.00  0.00    +0.000 HD
ATOM     20  H   UNL     1      42.160   6.228  11.990  0.00  0.00    +0.000 HD
ENDBRANCH  17  18
ENDBRANCH   7  17
ENDBRANCH   1   7
BRANCH   4  21
ATOM     21  C   UNL     1      48.802   7.656  13.370  0.00  0.00    +0.000 C 
BRANCH  21  22
ATOM     22  N   UNL     1      49.951   6.960  13.942  0.00  0.00    +0.000 NA
ATOM     23  H   UNL     1      50.774   7.154  13.369  0.00  0.00    +0.000 HD
BRANCH  22  24
ATOM     24  C   UNL     1      50.228   7.435  15.303  0.00  0.00    +0.000 C 
BRANCH  24  25
ATOM     25  C   UNL     1      50.786   8.844  15.310  0.00  0.00    +0.000 A 
ATOM     26  C   UNL     1      50.156   9.844  16.051  0.00  0.00    +0.000 A 
ATOM     27  C   UNL     1      50.694  11.127  16.051  0.00  0.00    +0.000 A 
ATOM     28  C   UNL     1      51.841  11.382  15.310  0.00  0.00    +0.000 A 
ATOM     29  C   UNL     1      52.406  10.336  14.600  0.00  0.00    +0.000 A 
ATOM     30  N   UNL     1      51.909   9.078  14.584  0.00  0.00    +0.000 NA
ENDBRANCH  24  25
ENDBRANCH  22  24
ENDBRANCH  21  22
ENDBRANCH   4  21
TORSDOF 10
ENDMDL
MODEL 8
REMARK VINA RESULT:    -6.282      1.842      4.615
REMARK INTER + INTRA:         -10.767
REMARK INTER:                  -9.914
REMARK INTRA:                  -0.853
REMARK UNBOUND:                -0.997
REMARK  Name = 
REMARK  10 active torsions:
REMARK  status: ('A' for Active; 'I' for Inactive)
REMARK    1  A    between atoms: N_1  and  C_2
REMARK    2  A    between atoms: C_2  and  C_3
REMARK    3  A    between atoms: C_3  and  N_4
REMARK    4  A    between atoms: C_3  and  C_12
REMARK    5  A    between atoms: N_4  and  C_5
REMARK    6  A    between atoms: C_5  and  C_6
REMARK    7  A    between atoms: C_15  and  C_16
REMARK    8  A    between atoms: C_16  and  N_17
REMARK    9  A    between atoms: N_17  and  C_18
REMARK   10  A    between atoms: C_18  and  C_19
REMARK                            x       y       z     vdW  Elec       q    Type
REMARK                         _______ _______ _______ _____ _____    ______ ____
ROOT
ATOM      1  C   UNL     1      47.621   6.369  13.671  0.00  0.00    +0.000 A 
ATOM      2  C   UNL     1      46.873   5.195  13.875  0.00  0.00    +0.000 A 
ATOM      3  C   UNL     1      45.885   4.802  12.968  0.00  0.00    +0.000 A 
ATOM      4  C   UNL     1      45.646   5.549  11.809  0.00  0.00    +0.000 A 
ATOM      5  C   UNL     1      46.418   6.690  11.574  0.00  0.00    +0.000 A 
ATOM      6  C   UNL     1      47.381   7.103  12.500  0.00  0.00    +0.000 A 
ENDROOT
BRANCH   1   7
ATOM      7  C   UNL     1      48.586   6.845  14.760  0.00  0.00    +0.000 C 
BRANCH   7   8
ATOM      8  N   UNL     1      49.981   6.928  14.269  0.00  0.00    +0.000 NA
ATOM      9  H   UNL     1      50.004   6.645  13.293  0.00  0.00    +0.000 HD
BRANCH   8  10
ATOM     10  C   UNL     1      50.601   8.239  14.431  0.00  0.00    +0.000 C 
BRANCH  10  11
ATOM     11  C   UNL     1      50.875   8.893  13.113  0.00  0.00    +0.000 A 
ATOM     12  C   UNL     1      52.010   8.612  12.373  0.00  0.00    +0.000 A 
ATOM     13  N   UNL     1      52.285   9.171  11.178  0.00  0.00    +0.000 NA
ATOM     14  C   UNL     1      51.372  10.038  10.723  0.00  0.00    +0.000 A 
ATOM     15  N   UNL     1      50.231  10.384  11.338  0.00  0.00    +0.000 NA
ATOM     16  C   UNL     1      50.012   9.795  12.532  0.00  0.00    +0.000 A 
ENDBRANCH  10  11
ENDBRANCH   8  10
ENDBRANCH   7   8
BRANCH   7  17
ATOM     17  C   UNL     1      48.521   5.929  16.037  0.00  0.00    +0.000 C 
BRANCH  17  18
ATOM     18  N   UNL     1      48.121   6.600  17.279  0.00  0.00    +0.000 NA
ATOM     19  H   UNL     1      47.711   5.918  17.914  0.00  0.00    +0.000 HD
ATOM     20  H   UNL     1      47.402   7.291  17.082  0.00  0.00    +0.000 HD
ENDBRANCH  17  18
ENDBRANCH   7  17
ENDBRANCH   1   7
BRANCH   4  21
ATOM     21  C   UNL     1      44.566   5.136  10.836  0.00  0.00    +0.000 C 
BRANCH  21  22
ATOM     22  N   UNL     1      45.116   4.967   9.494  0.00  0.00    +0.000 NA
ATOM     23  H   UNL     1      46.129   4.866   9.562  0.00  0.00    +0.000 HD
BRANCH  22  24
ATOM     24  C   UNL     1      44.584   3.756   8.857  0.00  0.00    +0.000 C 
BRANCH  24  25
ATOM     25  C   UNL     1      45.627   3.059   8.004  0.00  0.00    +0.000 A 
ATOM     26  C   UNL     1      46.036   1.763   8.318  0.00  0.00    +0.000 A 
ATOM     27  C   UNL     1      46.985   1.140   7.513  0.00  0.00    +0.000 A 
ATOM     28  C   UNL     1      47.504   1.826   6.422  0.00  0.00    +0.000 A 
ATOM     29  C   UNL     1      47.048   3.110   6.179  0.00  0.00    +0.000 A 
ATOM     30  N   UNL     1      46.123   3.739   6.940  0.00  0.00    +0.000 NA
ENDBRANCH  24  25
ENDBRANCH  22  24
ENDBRANCH  21  22
ENDBRANCH   4  21
TORSDOF 10
ENDMDL
MODEL 9
REMARK VINA RESULT:    -6.177      2.277      3.619
REMARK INTER + INTRA:         -10.604
REMARK INTER:                  -9.848
REMARK INTRA:                  -0.756
REMARK UNBOUND:                -0.997
REMARK  Name = 
REMARK  10 active torsions:
REMARK  status: ('A' for Active; 'I' for Inactive)
REMARK    1  A    between atoms: N_1  and  C_2
REMARK    2  A    between atoms: C_2  and  C_3
REMARK    3  A    between atoms: C_3  and  N_4
REMARK    4  A    between atoms: C_3  and  C_12
REMARK    5  A    between atoms: N_4  and  C_5
REMARK    6  A    between atoms: C_5  and  C_6
REMARK    7  A    between atoms: C_15  and  C_16
REMARK    8  A    between atoms: C_16  and  N_17
REMARK    9  A    between atoms: N_17  and  C_18
REMARK   10  A    between atoms: C_18  and  C_19
REMARK                            x       y       z     vdW  Elec       q    Type
REMARK                         _______ _______ _______ _____ _____    ______ ____
ROOT
ATOM      1  C   UNL     1      47.088   6.451  12.781  0.00  0.00    +0.000 A 
ATOM      2  C   UNL     1      46.625   6.598  11.461  0.00  0.00    +0.000 A 
ATOM      3  C   UNL     1      45.644   5.749  10.942  0.00  0.00    +0.000 A 
ATOM      4  C   UNL     1      45.067   4.756  11.741  0.00  0.00    +0.000 A 
ATOM      5  C   UNL     1      45.488   4.634  13.069  0.00  0.00    +0.000 A 
ATOM      6  C   UNL     1      46.496   5.460  13.577  0.00  0.00    +0.000 A 
ENDROOT
BRANCH   1   7
ATOM      7  C   UNL     1      48.268   7.300  13.263  0.00  0.00    +0.000 C 
BRANCH   7   8
ATOM      8  N   UNL     1      49.231   6.509  14.063  0.00  0.00    +0.000 NA
ATOM      9  H   UNL     1      50.013   6.244  13.470  0.00  0.00    +0.000 HD
BRANCH   8  10
ATOM     10  C   UNL     1      49.712   7.180  15.266  0.00  0.00    +0.000 C 
BRANCH  10  11
ATOM     11  C   UNL     1      51.192   7.404  15.226  0.00  0.00    +0.000 A 
ATOM     12  C   UNL     1      52.061   6.736  16.070  0.00  0.00    +0.000 A 
ATOM     13  N   UNL     1      53.398   6.902  16.055  0.00  0.00    +0.000 NA
ATOM     14  C   UNL     1      53.861   7.771  15.148  0.00  0.00    +0.000 A 
ATOM     15  N   UNL     1      53.125   8.468  14.270  0.00  0.00    +0.000 NA
ATOM     16  C   UNL     1      51.793   8.264  14.335  0.00  0.00    +0.000 A 
ENDBRANCH  10  11
ENDBRANCH   8  10
ENDBRANCH   7   8
BRANCH   7  17
ATOM     17  C   UNL     1      47.787   8.551  14.086  0.00  0.00    +0.000 C 
BRANCH  17  18
ATOM     18  N   UNL     1      46.671   9.304  13.502  0.00  0.00    +0.000 NA
ATOM     19  H   UNL     1      46.044   9.607  14.244  0.00  0.00    +0.000 HD
ATOM     20  H   UNL     1      46.131   8.699  12.888  0.00  0.00    +0.000 HD
ENDBRANCH  17  18
ENDBRANCH   7  17
ENDBRANCH   1   7
BRANCH   4  21
ATOM     21  C   UNL     1      44.019   3.825  11.178  0.00  0.00    +0.000 C 
BRANCH  21  22
ATOM     22  N   UNL     1      44.169   3.690   9.731  0.00  0.00    +0.000 NA
ATOM     23  H   UNL     1      44.883   4.345   9.411  0.00  0.00    +0.000 HD
BRANCH  22  24
ATOM     24  C   UNL     1      44.608   2.335   9.373  0.00  0.00    +0.000 C 
BRANCH  24  25
ATOM     25  C   UNL     1      45.661   2.350   8.283  0.00  0.00    +0.000 A 
ATOM     26  C   UNL     1      46.391   1.197   7.999  0.00  0.00    +0.000 A 
ATOM     27  C   UNL     1      47.345   1.232   6.986  0.00  0.00    +0.000 A 
ATOM     28  C   UNL     1      47.549   2.415   6.287  0.00  0.00    +0.000 A 
ATOM     29  C   UNL     1      46.785   3.518   6.631  0.00  0.00    +0.000 A 
ATOM     30  N   UNL     1      45.848   3.513   7.606  0.00  0.00    +0.000 NA
ENDBRANCH  24  25
ENDBRANCH  22  24
ENDBRANCH  21  22
ENDBRANCH   4  21
TORSDOF 10
ENDMDL
