MODEL 1
REMARK VINA RESULT:    -6.660      0.000      0.000
REMARK INTER + INTRA:         -11.355
REMARK INTER:                 -10.164
REMARK INTRA:                  -1.190
REMARK UNBOUND:                -1.190
REMARK  Name = 
REMARK  16 active torsions:
REMARK  status: ('A' for Active; 'I' for Inactive)
REMARK    1  A    between atoms: C_1  and  C_2
REMARK    2  A    between atoms: C_5  and  O_6
REMARK    3  A    between atoms: O_6  and  C_7
REMARK    4  A    between atoms: C_7  and  C_8
REMARK    5  A    between atoms: C_8  and  C_9
REMARK    6  A    between atoms: C_8  and  C_10
REMARK    7  A    between atoms: C_14  and  C_15
REMARK    8  A    between atoms: C_15  and  C_16
REMARK    9  A    between atoms: C_19  and  O_21
REMARK   10  A    between atoms: O_21  and  C_22
REMARK   11  A    between atoms: C_22  and  C_23
REMARK   12  A    between atoms: C_22  and  C_24
REMARK   13  A    between atoms: C_22  and  C_25
REMARK   14  A    between atoms: C_29  and  C_30
REMARK   15  A    between atoms: C_30  and  C_31
REMARK   16  A    between atoms: C_30  and  C_32
REMARK                            x       y       z     vdW  Elec       q    Type
REMARK                         _______ _______ _______ _____ _____    ______ ____
ROOT
ATOM      1  C   UNL     1      47.434   8.482  12.618  0.00  0.00    +0.000 A 
ATOM      2  C   UNL     1      46.585   9.554  12.328  0.00  0.00    +0.000 A 
ATOM      3  C   UNL     1      45.262   9.289  12.009  0.00  0.00    +0.000 A 
ATOM      4  N   UNL     1      44.730   8.048  11.971  0.00  0.00    +0.000 NA
ATOM      5  C   UNL     1      45.548   7.010  12.266  0.00  0.00    +0.000 A 
ATOM      6  C   UNL     1      46.894   7.188  12.579  0.00  0.00    +0.000 A 
ENDROOT
BRANCH   1   7
ATOM      7  C   UNL     1      48.893   8.690  12.992  0.00  0.00    +0.000 C 
ATOM      8  C   UNL     1      49.631   9.518  11.932  0.00  0.00    +0.000 C 
BRANCH   7   9
ATOM      9  C   UNL     1      49.612   7.355  13.263  0.00  0.00    +0.000 C 
BRANCH   9  10
ATOM     10  O   UNL     1      50.373   7.468  14.472  0.00  0.00    +0.000 OA
BRANCH  10  15
ATOM     11  C   UNL     1      47.683   5.565  18.921  0.00  0.00    +0.000 C 
ATOM     12  C   UNL     1      48.385   6.028  17.687  0.00  0.00    +0.000 A 
ATOM     13  N   UNL     1      49.139   7.142  17.831  0.00  0.00    +0.000 NA
ATOM     14  N   UNL     1      49.806   7.631  16.761  0.00  0.00    +0.000 NA
ATOM     15  C   UNL     1      49.696   6.996  15.577  0.00  0.00    +0.000 A 
ATOM     16  N   UNL     1      48.958   5.895  15.368  0.00  0.00    +0.000 NA
ATOM     17  C   UNL     1      48.303   5.399  16.448  0.00  0.00    +0.000 A 
BRANCH  17  18
ATOM     18  C   UNL     1      47.436   4.171  16.211  0.00  0.00    +0.000 C 
ATOM     19  C   UNL     1      46.982   4.107  14.751  0.00  0.00    +0.000 C 
ATOM     20  C   UNL     1      48.148   2.861  16.582  0.00  0.00    +0.000 C 
ENDBRANCH  17  18
ENDBRANCH  10  15
ENDBRANCH   9  10
ENDBRANCH   7   9
ENDBRANCH   1   7
BRANCH   5  21
ATOM     21  C   UNL     1      44.908   5.647  12.346  0.00  0.00    +0.000 C 
BRANCH  21  22
ATOM     22  C   UNL     1      45.250   4.709  11.196  0.00  0.00    +0.000 C 
ATOM     23  C   UNL     1      44.938   4.990   9.698  0.00  0.00    +0.000 C 
ATOM     24  N   UNL     1      44.670   3.573   9.606  0.00  0.00    +0.000 N 
ATOM     25  C   UNL     1      44.692   2.607   8.644  0.00  0.00    +0.000 C 
ATOM     26  O   UNL     1      44.422   1.441   8.916  0.00  0.00    +0.000 OA
ATOM     27  C   UNL     1      44.460   3.396  11.032  0.00  0.00    +0.000 C 
BRANCH  25  28
ATOM     28  O   UNL     1      45.058   3.052   7.411  0.00  0.00    +0.000 OA
BRANCH  28  29
ATOM     29  C   UNL     1      46.451   2.873   7.006  0.00  0.00    +0.000 C 
ATOM     30  C   UNL     1      47.046   1.584   7.596  0.00  0.00    +0.000 C 
ATOM     31  C   UNL     1      46.460   2.732   5.473  0.00  0.00    +0.000 C 
ATOM     32  C   UNL     1      47.298   4.108   7.354  0.00  0.00    +0.000 C 
ENDBRANCH  28  29
ENDBRANCH  25  28
ENDBRANCH  21  22
ENDBRANCH   5  21
TORSDOF 9
ENDMDL
MODEL 2
REMARK VINA RESULT:    -6.494      0.876      2.052
REMARK INTER + INTRA:         -11.102
REMARK INTER:                 -10.426
REMARK INTRA:                  -0.676
REMARK UNBOUND:                -1.190
REMARK  Name = 
REMARK  16 active torsions:
REMARK  status: ('A' for Active; 'I' for Inactive)
REMARK    1  A    between atoms: C_1  and  C_2
REMARK    2  A    between atoms: C_5  and  O_6
REMARK    3  A    between atoms: O_6  and  C_7
REMARK    4  A    between atoms: C_7  and  C_8
REMARK    5  A    between atoms: C_8  and  C_9
REMARK    6  A    between atoms: C_8  and  C_10
REMARK    7  A    between atoms: C_14  and  C_15
REMARK    8  A    between atoms: C_15  and  C_16
REMARK    9  A    between atoms: C_19  and  O_21
REMARK   10  A    between atoms: O_21  and  C_22
REMARK   11  A    between atoms: C_22  and  C_23
REMARK   12  A    between atoms: C_22  and  C_24
REMARK   13  A    between atoms: C_22  and  C_25
REMARK   14  A    between atoms: C_29  and  C_30
REMARK   15  A    between atoms: C_30  and  C_31
REMARK   16  A    between atoms: C_30  and  C_32
REMARK                            x       y       z     vdW  Elec       q    Type
REMARK                         _______ _______ _______ _____ _____    ______ ____
ROOT
ATOM      1  C   UNL     1      47.005   8.586  12.310  0.00  0.00    +0.000 A 
ATOM      2  C   UNL     1      46.155   9.661  12.032  0.00  0.00    +0.000 A 
ATOM      3  C   UNL     1      44.853   9.396  11.636  0.00  0.00    +0.000 A 
ATOM      4  N   UNL     1      44.342   8.152  11.509  0.00  0.00    +0.000 NA
ATOM      5  C   UNL     1      45.160   7.111  11.793  0.00  0.00    +0.000 A 
ATOM      6  C   UNL     1      46.486   7.289  12.179  0.00  0.00    +0.000 A 
ENDROOT
BRANCH   1   7
ATOM      7  C   UNL     1      48.440   8.793  12.765  0.00  0.00    +0.000 C 
ATOM      8  C   UNL     1      49.313   9.350  11.634  0.00  0.00    +0.000 C 
BRANCH   7   9
ATOM      9  C   UNL     1      49.045   7.505  13.359  0.00  0.00    +0.000 C 
BRANCH   9  10
ATOM     10  O   UNL     1      49.125   7.638  14.783  0.00  0.00    +0.000 OA
BRANCH  10  15
ATOM     11  C   UNL     1      47.216   3.182  17.458  0.00  0.00    +0.000 C 
ATOM     12  C   UNL     1      47.745   4.410  16.794  0.00  0.00    +0.000 A 
ATOM     13  N   UNL     1      47.656   4.425  15.444  0.00  0.00    +0.000 NA
ATOM     14  N   UNL     1      48.116   5.500  14.764  0.00  0.00    +0.000 NA
ATOM     15  C   UNL     1      48.657   6.526  15.451  0.00  0.00    +0.000 A 
ATOM     16  N   UNL     1      48.782   6.566  16.787  0.00  0.00    +0.000 NA
ATOM     17  C   UNL     1      48.306   5.492  17.467  0.00  0.00    +0.000 A 
BRANCH  17  18
ATOM     18  C   UNL     1      48.477   5.515  18.978  0.00  0.00    +0.000 C 
ATOM     19  C   UNL     1      49.701   6.347  19.369  0.00  0.00    +0.000 C 
ATOM     20  C   UNL     1      47.238   6.058  19.708  0.00  0.00    +0.000 C 
ENDBRANCH  17  18
ENDBRANCH  10  15
ENDBRANCH   9  10
ENDBRANCH   7   9
ENDBRANCH   1   7
BRANCH   5  21
ATOM     21  C   UNL     1      44.536   5.738  11.773  0.00  0.00    +0.000 C 
BRANCH  21  22
ATOM     22  C   UNL     1      45.097   4.794  10.717  0.00  0.00    +0.000 C 
ATOM     23  C   UNL     1      44.701   4.809   9.213  0.00  0.00    +0.000 C 
ATOM     24  N   UNL     1      44.813   3.370   9.287  0.00  0.00    +0.000 N 
ATOM     25  C   UNL     1      45.075   2.337   8.435  0.00  0.00    +0.000 C 
ATOM     26  O   UNL     1      45.124   1.181   8.844  0.00  0.00    +0.000 OA
ATOM     27  C   UNL     1      44.677   3.311  10.732  0.00  0.00    +0.000 C 
BRANCH  25  28
ATOM     28  O   UNL     1      45.295   2.716   7.146  0.00  0.00    +0.000 OA
BRANCH  28  29
ATOM     29  C   UNL     1      46.674   2.724   6.663  0.00  0.00    +0.000 C 
ATOM     30  C   UNL     1      46.730   2.712   5.126  0.00  0.00    +0.000 C 
ATOM     31  C   UNL     1      47.312   4.041   7.142  0.00  0.00    +0.000 C 
ATOM     32  C   UNL     1      47.490   1.574   7.276  0.00  0.00    +0.000 C 
ENDBRANCH  28  29
ENDBRANCH  25  28
ENDBRANCH  21  22
ENDBRANCH   5  21
TORSDOF 9
ENDMDL
MODEL 3
REMARK VINA RESULT:    -6.433      2.904      7.530
REMARK INTER + INTRA:         -11.009
REMARK INTER:                  -9.378
REMARK INTRA:                  -1.630
REMARK UNBOUND:                -1.190
REMARK  Name = 
REMARK  16 active torsions:
REMARK  status: ('A' for Active; 'I' for Inactive)
REMARK    1  A    between atoms: C_1  and  C_2
REMARK    2  A    between atoms: C_5  and  O_6
REMARK    3  A    between atoms: O_6  and  C_7
REMARK    4  A    between atoms: C_7  and  C_8
REMARK    5  A    between atoms: C_8  and  C_9
REMARK    6  A    between atoms: C_8  and  C_10
REMARK    7  A    between atoms: C_14  and  C_15
REMARK    8  A    between atoms: C_15  and  C_16
REMARK    9  A    between atoms: C_19  and  O_21
REMARK   10  A    between atoms: O_21  and  C_22
REMARK   11  A    between atoms: C_22  and  C_23
REMARK   12  A    between atoms: C_22  and  C_24
REMARK   13  A    between atoms: C_22  and  C_25
REMARK   14  A    between atoms: C_29  and  C_30
REMARK   15  A    between atoms: C_30  and  C_31
REMARK   16  A    between atoms: C_30  and  C_32
REMARK                            x       y       z     vdW  Elec       q    Type
REMARK                         _______ _______ _______ _____ _____    ______ ____
ROOT
ATOM      1  C   UNL     1      49.557   4.421  17.387  0.00  0.00    +0.000 A 
ATOM      2  C   UNL     1      50.894   4.175  17.712  0.00  0.00    +0.000 A 
ATOM      3  C   UNL     1      51.749   5.255  17.875  0.00  0.00    +0.000 A 
ATOM      4  N   UNL     1      51.367   6.544  17.751  0.00  0.00    +0.000 NA
ATOM      5  C   UNL     1      50.068   6.783  17.452  0.00  0.00    +0.000 A 
ATOM      6  C   UNL     1      49.148   5.756  17.253  0.00  0.00    +0.000 A 
ENDROOT
BRANCH   1   7
ATOM      7  C   UNL     1      48.553   3.293  17.208  0.00  0.00    +0.000 C 
ATOM      8  C   UNL     1      49.219   2.036  16.633  0.00  0.00    +0.000 C 
BRANCH   7   9
ATOM      9  C   UNL     1      47.346   3.729  16.354  0.00  0.00    +0.000 C 
BRANCH   9  10
ATOM     10  O   UNL     1      47.477   3.178  15.039  0.00  0.00    +0.000 OA
BRANCH  10  15
ATOM     11  C   UNL     1      45.569   6.582  11.112  0.00  0.00    +0.000 C 
ATOM     12  C   UNL     1      46.039   5.621  12.153  0.00  0.00    +0.000 A 
ATOM     13  N   UNL     1      47.048   6.062  12.938  0.00  0.00    +0.000 NA
ATOM     14  N   UNL     1      47.536   5.251  13.904  0.00  0.00    +0.000 NA
ATOM     15  C   UNL     1      47.005   4.021  14.055  0.00  0.00    +0.000 A 
ATOM     16  N   UNL     1      46.011   3.523  13.303  0.00  0.00    +0.000 NA
ATOM     17  C   UNL     1      45.515   4.345  12.344  0.00  0.00    +0.000 A 
BRANCH  17  18
ATOM     18  C   UNL     1      44.412   3.774  11.465  0.00  0.00    +0.000 C 
ATOM     19  C   UNL     1      45.009   3.048  10.258  0.00  0.00    +0.000 C 
ATOM     20  C   UNL     1      43.481   2.818  12.226  0.00  0.00    +0.000 C 
ENDBRANCH  17  18
ENDBRANCH  10  15
ENDBRANCH   9  10
ENDBRANCH   7   9
ENDBRANCH   1   7
BRANCH   5  21
ATOM     21  C   UNL     1      49.631   8.227  17.446  0.00  0.00    +0.000 C 
BRANCH  21  22
ATOM     22  C   UNL     1      49.509   8.854  16.063  0.00  0.00    +0.000 C 
ATOM     23  C   UNL     1      48.285   8.687  15.118  0.00  0.00    +0.000 C 
ATOM     24  N   UNL     1      49.258   8.662  14.049  0.00  0.00    +0.000 N 
ATOM     25  C   UNL     1      49.296   8.957  12.718  0.00  0.00    +0.000 C 
ATOM     26  O   UNL     1      50.338   8.846  12.078  0.00  0.00    +0.000 OA
ATOM     27  C   UNL     1      50.374   8.310  14.909  0.00  0.00    +0.000 C 
BRANCH  25  28
ATOM     28  O   UNL     1      48.113   9.395  12.207  0.00  0.00    +0.000 OA
BRANCH  28  29
ATOM     29  C   UNL     1      47.988  10.819  11.900  0.00  0.00    +0.000 C 
ATOM     30  C   UNL     1      48.665  11.166  10.564  0.00  0.00    +0.000 C 
ATOM     31  C   UNL     1      46.484  11.117  11.751  0.00  0.00    +0.000 C 
ATOM     32  C   UNL     1      48.512  11.689  13.053  0.00  0.00    +0.000 C 
ENDBRANCH  28  29
ENDBRANCH  25  28
ENDBRANCH  21  22
ENDBRANCH   5  21
TORSDOF 9
ENDMDL
MODEL 4
REMARK VINA RESULT:    -6.354      3.417      7.799
REMARK INTER + INTRA:         -10.887
REMARK INTER:                  -9.303
REMARK INTRA:                  -1.584
REMARK UNBOUND:                -1.190
REMARK  Name = 
REMARK  16 active torsions:
REMARK  status: ('A' for Active; 'I' for Inactive)
REMARK    1  A    between atoms: C_1  and  C_2
REMARK    2  A    between atoms: C_5  and  O_6
REMARK    3  A    between atoms: O_6  and  C_7
REMARK    4  A    between atoms: C_7  and  C_8
REMARK    5  A    between atoms: C_8  and  C_9
REMARK    6  A    between atoms: C_8  and  C_10
REMARK    7  A    between atoms: C_14  and  C_15
REMARK    8  A    between atoms: C_15  and  C_16
REMARK    9  A    between atoms: C_19  and  O_21
REMARK   10  A    between atoms: O_21  and  C_22
REMARK   11  A    between atoms: C_22  and  C_23
REMARK   12  A    between atoms: C_22  and  C_24
REMARK   13  A    between atoms: C_22  and  C_25
REMARK   14  A    between atoms: C_29  and  C_30
REMARK   15  A    between atoms: C_30  and  C_31
REMARK   16  A    between atoms: C_30  and  C_32
REMARK                            x       y       z     vdW  Elec       q    Type
REMARK                         _______ _______ _______ _____ _____    ______ ____
ROOT
ATOM      1  C   UNL     1      48.797   4.673  18.164  0.00  0.00    +0.000 A 
ATOM      2  C   UNL     1      49.937   4.645  18.974  0.00  0.00    +0.000 A 
ATOM      3  C   UNL     1      50.449   5.845  19.444  0.00  0.00    +0.000 A 
ATOM      4  N   UNL     1      49.906   7.052  19.176  0.00  0.00    +0.000 NA
ATOM      5  C   UNL     1      48.794   7.078  18.405  0.00  0.00    +0.000 A 
ATOM      6  C   UNL     1      48.226   5.921  17.877  0.00  0.00    +0.000 A 
ENDROOT
BRANCH   1   7
ATOM      7  C   UNL     1      48.166   3.400  17.623  0.00  0.00    +0.000 C 
ATOM      8  C   UNL     1      49.220   2.462  17.022  0.00  0.00    +0.000 C 
BRANCH   7   9
ATOM      9  C   UNL     1      47.041   3.703  16.613  0.00  0.00    +0.000 C 
BRANCH   9  10
ATOM     10  O   UNL     1      47.492   3.369  15.295  0.00  0.00    +0.000 OA
BRANCH  10  15
ATOM     11  C   UNL     1      45.638   6.904  11.458  0.00  0.00    +0.000 C 
ATOM     12  C   UNL     1      46.083   5.917  12.486  0.00  0.00    +0.000 A 
ATOM     13  N   UNL     1      47.282   6.173  13.057  0.00  0.00    +0.000 NA
ATOM     14  N   UNL     1      47.762   5.325  13.995  0.00  0.00    +0.000 NA
ATOM     15  C   UNL     1      47.031   4.244  14.334  0.00  0.00    +0.000 A 
ATOM     16  N   UNL     1      45.841   3.931  13.798  0.00  0.00    +0.000 NA
ATOM     17  C   UNL     1      45.357   4.792  12.867  0.00  0.00    +0.000 A 
BRANCH  17  18
ATOM     18  C   UNL     1      44.025   4.424  12.231  0.00  0.00    +0.000 C 
ATOM     19  C   UNL     1      43.847   2.905  12.195  0.00  0.00    +0.000 C 
ATOM     20  C   UNL     1      42.827   5.061  12.952  0.00  0.00    +0.000 C 
ENDBRANCH  17  18
ENDBRANCH  10  15
ENDBRANCH   9  10
ENDBRANCH   7   9
ENDBRANCH   1   7
BRANCH   5  21
ATOM     21  C   UNL     1      48.128   8.420  18.226  0.00  0.00    +0.000 C 
BRANCH  21  22
ATOM     22  C   UNL     1      48.243   9.011  16.827  0.00  0.00    +0.000 C 
ATOM     23  C   UNL     1      49.356   8.652  15.801  0.00  0.00    +0.000 C 
ATOM     24  N   UNL     1      49.301  10.047  15.425  0.00  0.00    +0.000 N 
ATOM     25  C   UNL     1      49.572  10.802  14.323  0.00  0.00    +0.000 C 
ATOM     26  O   UNL     1      49.382  12.015  14.328  0.00  0.00    +0.000 OA
ATOM     27  C   UNL     1      48.676  10.482  16.663  0.00  0.00    +0.000 C 
BRANCH  25  28
ATOM     28  O   UNL     1      50.028  10.092  13.255  0.00  0.00    +0.000 OA
BRANCH  28  29
ATOM     29  C   UNL     1      49.085   9.797  12.178  0.00  0.00    +0.000 C 
ATOM     30  C   UNL     1      47.631   9.853  12.674  0.00  0.00    +0.000 C 
ATOM     31  C   UNL     1      49.257  10.899  11.115  0.00  0.00    +0.000 C 
ATOM     32  C   UNL     1      49.410   8.457  11.500  0.00  0.00    +0.000 C 
ENDBRANCH  28  29
ENDBRANCH  25  28
ENDBRANCH  21  22
ENDBRANCH   5  21
TORSDOF 9
ENDMDL
MODEL 5
REMARK VINA RESULT:    -6.349      2.884      4.677
REMARK INTER + INTRA:         -10.880
REMARK INTER:                  -9.353
REMARK INTRA:                  -1.526
REMARK UNBOUND:                -1.190
REMARK  Name = 
REMARK  16 active torsions:
REMARK  status: ('A' for Active; 'I' for Inactive)
REMARK    1  A    between atoms: C_1  and  C_2
REMARK    2  A    between atoms: C_5  and  O_6
REMARK    3  A    between atoms: O_6  and  C_7
REMARK    4  A    between atoms: C_7  and  C_8
REMARK    5  A    between atoms: C_8  and  C_9
REMARK    6  A    between atoms: C_8  and  C_10
REMARK    7  A    between atoms: C_14  and  C_15
REMARK    8  A    between atoms: C_15  and  C_16
REMARK    9  A    between atoms: C_19  and  O_21
REMARK   10  A    between atoms: O_21  and  C_22
REMARK   11  A    between atoms: C_22  and  C_23
REMARK   12  A    between atoms: C_22  and  C_24
REMARK   13  A    between atoms: C_22  and  C_25
REMARK   14  A    between atoms: C_29  and  C_30
REMARK   15  A    between atoms: C_30  and  C_31
REMARK   16  A    between atoms: C_30  and  C_32
REMARK                            x       y       z     vdW  Elec       q    Type
REMARK                         _______ _______ _______ _____ _____    ______ ____
ROOT
ATOM      1  C   UNL     1      48.797   9.004  16.143  0.00  0.00    +0.000 A 
ATOM      2  C   UNL     1      50.191   9.051  16.043  0.00  0.00    +0.000 A 
ATOM      3  C   UNL     1      50.778   8.835  14.806  0.00  0.00    +0.000 A 
ATOM      4  N   UNL     1      50.083   8.589  13.674  0.00  0.00    +0.000 NA
ATOM      5  C   UNL     1      48.733   8.558  13.767  0.00  0.00    +0.000 A 
ATOM      6  C   UNL     1      48.064   8.746  14.975  0.00  0.00    +0.000 A 
ENDROOT
BRANCH   1   7
ATOM      7  C   UNL     1      48.077   9.246  17.459  0.00  0.00    +0.000 C 
ATOM      8  C   UNL     1      48.132  10.725  17.864  0.00  0.00    +0.000 C 
BRANCH   7   9
ATOM      9  C   UNL     1      48.612   8.336  18.582  0.00  0.00    +0.000 C 
BRANCH   9  10
ATOM     10  O   UNL     1      47.648   7.313  18.857  0.00  0.00    +0.000 OA
BRANCH  10  15
ATOM     11  C   UNL     1      49.150   2.344  16.931  0.00  0.00    +0.000 C 
ATOM     12  C   UNL     1      48.807   3.701  17.452  0.00  0.00    +0.000 A 
ATOM     13  N   UNL     1      47.491   3.926  17.666  0.00  0.00    +0.000 NA
ATOM     14  N   UNL     1      47.094   5.131  18.134  0.00  0.00    +0.000 NA
ATOM     15  C   UNL     1      48.024   6.078  18.370  0.00  0.00    +0.000 A 
ATOM     16  N   UNL     1      49.341   5.919  18.169  0.00  0.00    +0.000 NA
ATOM     17  C   UNL     1      49.736   4.704  17.713  0.00  0.00    +0.000 A 
BRANCH  17  18
ATOM     18  C   UNL     1      51.225   4.529  17.450  0.00  0.00    +0.000 C 
ATOM     19  C   UNL     1      51.844   5.843  16.970  0.00  0.00    +0.000 C 
ATOM     20  C   UNL     1      51.990   4.024  18.682  0.00  0.00    +0.000 C 
ENDBRANCH  17  18
ENDBRANCH  10  15
ENDBRANCH   9  10
ENDBRANCH   7   9
ENDBRANCH   1   7
BRANCH   5  21
ATOM     21  C   UNL     1      47.970   8.413  12.474  0.00  0.00    +0.000 C 
BRANCH  21  22
ATOM     22  C   UNL     1      47.223   7.095  12.315  0.00  0.00    +0.000 C 
ATOM     23  C   UNL     1      45.818   6.793  12.912  0.00  0.00    +0.000 C 
ATOM     24  N   UNL     1      46.326   5.459  13.136  0.00  0.00    +0.000 N 
ATOM     25  C   UNL     1      45.820   4.198  13.256  0.00  0.00    +0.000 C 
ATOM     26  O   UNL     1      46.562   3.235  13.424  0.00  0.00    +0.000 OA
ATOM     27  C   UNL     1      47.724   5.848  13.069  0.00  0.00    +0.000 C 
BRANCH  25  28
ATOM     28  O   UNL     1      44.466   4.125  13.144  0.00  0.00    +0.000 OA
BRANCH  28  29
ATOM     29  C   UNL     1      43.904   3.831  11.827  0.00  0.00    +0.000 C 
ATOM     30  C   UNL     1      43.276   2.428  11.785  0.00  0.00    +0.000 C 
ATOM     31  C   UNL     1      42.778   4.853  11.579  0.00  0.00    +0.000 C 
ATOM     32  C   UNL     1      44.948   4.026  10.716  0.00  0.00    +0.000 C 
ENDBRANCH  28  29
ENDBRANCH  25  28
ENDBRANCH  21  22
ENDBRANCH   5  21
TORSDOF 9
ENDMDL
MODEL 6
REMARK VINA RESULT:    -6.224      2.185      9.643
REMARK INTER + INTRA:         -10.689
REMARK INTER:                 -10.727
REMARK INTRA:                   0.037
REMARK UNBOUND:                -1.190
REMARK  Name = 
REMARK  16 active torsions:
REMARK  status: ('A' for Active; 'I' for Inactive)
REMARK    1  A    between atoms: C_1  and  C_2
REMARK    2  A    between atoms: C_5  and  O_6
REMARK    3  A    between atoms: O_6  and  C_7
REMARK    4  A    between atoms: C_7  and  C_8
REMARK    5  A    between atoms: C_8  and  C_9
REMARK    6  A    between atoms: C_8  and  C_10
REMARK    7  A    between atoms: C_14  and  C_15
REMARK    8  A    between atoms: C_15  and  C_16
REMARK    9  A    between atoms: C_19  and  O_21
REMARK   10  A    between atoms: O_21  and  C_22
REMARK   11  A    between atoms: C_22  and  C_23
REMARK   12  A    between atoms: C_22  and  C_24
REMARK   13  A    between atoms: C_22  and  C_25
REMARK   14  A    between atoms: C_29  and  C_30
REMARK   15  A    between atoms: C_30  and  C_31
REMARK   16  A    between atoms: C_30  and  C_32
REMARK                            x       y       z     vdW  Elec       q    Type
REMARK                         _______ _______ _______ _____ _____    ______ ____
ROOT
ATOM      1  C   UNL     1      45.992   5.665  12.286  0.00  0.00    +0.000 A 
ATOM      2  C   UNL     1      45.887   4.415  12.904  0.00  0.00    +0.000 A 
ATOM      3  C   UNL     1      46.762   4.106  13.935  0.00  0.00    +0.000 A 
ATOM      4  N   UNL     1      47.712   4.949  14.394  0.00  0.00    +0.000 NA
ATOM      5  C   UNL     1      47.804   6.165  13.807  0.00  0.00    +0.000 A 
ATOM      6  C   UNL     1      46.977   6.548  12.753  0.00  0.00    +0.000 A 
ENDROOT
BRANCH   1   7
ATOM      7  C   UNL     1      45.061   6.085  11.160  0.00  0.00    +0.000 C 
ATOM      8  C   UNL     1      44.426   7.454  11.438  0.00  0.00    +0.000 C 
BRANCH   7   9
ATOM      9  C   UNL     1      43.987   5.016  10.874  0.00  0.00    +0.000 C 
BRANCH   9  10
ATOM     10  O   UNL     1      43.882   4.823   9.459  0.00  0.00    +0.000 OA
BRANCH  10  15
ATOM     11  C   UNL     1      46.734   0.415   7.701  0.00  0.00    +0.000 C 
ATOM     12  C   UNL     1      45.998   1.640   8.133  0.00  0.00    +0.000 A 
ATOM     13  N   UNL     1      45.097   1.458   9.125  0.00  0.00    +0.000 NA
ATOM     14  N   UNL     1      44.384   2.516   9.573  0.00  0.00    +0.000 NA
ATOM     15  C   UNL     1      44.589   3.725   9.014  0.00  0.00    +0.000 A 
ATOM     16  N   UNL     1      45.460   3.969   8.023  0.00  0.00    +0.000 NA
ATOM     17  C   UNL     1      46.184   2.907   7.586  0.00  0.00    +0.000 A 
BRANCH  17  18
ATOM     18  C   UNL     1      47.148   3.169   6.439  0.00  0.00    +0.000 C 
ATOM     19  C   UNL     1      48.472   2.438   6.671  0.00  0.00    +0.000 C 
ATOM     20  C   UNL     1      46.572   2.761   5.074  0.00  0.00    +0.000 C 
ENDBRANCH  17  18
ENDBRANCH  10  15
ENDBRANCH   9  10
ENDBRANCH   7   9
ENDBRANCH   1   7
BRANCH   5  21
ATOM     21  C   UNL     1      48.781   7.139  14.418  0.00  0.00    +0.000 C 
BRANCH  21  22
ATOM     22  C   UNL     1      49.412   6.677  15.725  0.00  0.00    +0.000 C 
ATOM     23  C   UNL     1      48.826   6.951  17.140  0.00  0.00    +0.000 C 
ATOM     24  N   UNL     1      50.202   7.102  17.556  0.00  0.00    +0.000 N 
ATOM     25  C   UNL     1      50.925   6.966  18.704  0.00  0.00    +0.000 C 
ATOM     26  O   UNL     1      52.138   7.154  18.710  0.00  0.00    +0.000 OA
ATOM     27  C   UNL     1      50.707   7.355  16.217  0.00  0.00    +0.000 C 
BRANCH  25  28
ATOM     28  O   UNL     1      50.192   6.587  19.786  0.00  0.00    +0.000 OA
BRANCH  28  29
ATOM     29  C   UNL     1      50.271   5.190  20.210  0.00  0.00    +0.000 C 
ATOM     30  C   UNL     1      48.898   4.661  20.656  0.00  0.00    +0.000 C 
ATOM     31  C   UNL     1      50.709   4.371  18.981  0.00  0.00    +0.000 C 
ATOM     32  C   UNL     1      51.343   4.993  21.293  0.00  0.00    +0.000 C 
ENDBRANCH  28  29
ENDBRANCH  25  28
ENDBRANCH  21  22
ENDBRANCH   5  21
TORSDOF 9
ENDMDL
MODEL 7
REMARK VINA RESULT:    -6.193      2.896      4.207
REMARK INTER + INTRA:         -10.642
REMARK INTER:                  -9.301
REMARK INTRA:                  -1.340
REMARK UNBOUND:                -1.190
REMARK  Name = 
REMARK  16 active torsions:
REMARK  status: ('A' for Active; 'I' for Inactive)
REMARK    1  A    between atoms: C_1  and  C_2
REMARK    2  A    between atoms: C_5  and  O_6
REMARK    3  A    between atoms: O_6  and  C_7
REMARK    4  A    between atoms: C_7  and  C_8
REMARK    5  A    between atoms: C_8  and  C_9
REMARK    6  A    between atoms: C_8  and  C_10
REMARK    7  A    between atoms: C_14  and  C_15
REMARK    8  A    between atoms: C_15  and  C_16
REMARK    9  A    between atoms: C_19  and  O_21
REMARK   10  A    between atoms: O_21  and  C_22
REMARK   11  A    between atoms: C_22  and  C_23
REMARK   12  A    between atoms: C_22  and  C_24
REMARK   13  A    between atoms: C_22  and  C_25
REMARK   14  A    between atoms: C_29  and  C_30
REMARK   15  A    between atoms: C_30  and  C_31
REMARK   16  A    between atoms: C_30  and  C_32
REMARK                            x       y       z     vdW  Elec       q    Type
REMARK                         _______ _______ _______ _____ _____    ______ ____
ROOT
ATOM      1  C   UNL     1      50.991   8.926  14.732  0.00  0.00    +0.000 A 
ATOM      2  C   UNL     1      50.132   9.608  15.599  0.00  0.00    +0.000 A 
ATOM      3  C   UNL     1      48.858   9.930  15.156  0.00  0.00    +0.000 A 
ATOM      4  N   UNL     1      48.383   9.614  13.932  0.00  0.00    +0.000 NA
ATOM      5  C   UNL     1      49.210   8.941  13.098  0.00  0.00    +0.000 A 
ATOM      6  C   UNL     1      50.511   8.595  13.457  0.00  0.00    +0.000 A 
ENDROOT
BRANCH   1   7
ATOM      7  C   UNL     1      52.397   8.523  15.148  0.00  0.00    +0.000 C 
ATOM      8  C   UNL     1      53.244   8.111  13.937  0.00  0.00    +0.000 C 
BRANCH   7   9
ATOM      9  C   UNL     1      52.383   7.420  16.225  0.00  0.00    +0.000 C 
BRANCH   9  10
ATOM     10  O   UNL     1      51.358   6.470  15.910  0.00  0.00    +0.000 OA
BRANCH  10  15
ATOM     11  C   UNL     1      48.773   4.558  20.417  0.00  0.00    +0.000 C 
ATOM     12  C   UNL     1      49.454   5.019  19.171  0.00  0.00    +0.000 A 
ATOM     13  N   UNL     1      50.068   6.221  19.255  0.00  0.00    +0.000 NA
ATOM     14  N   UNL     1      50.706   6.715  18.169  0.00  0.00    +0.000 NA
ATOM     15  C   UNL     1      50.708   5.995  17.029  0.00  0.00    +0.000 A 
ATOM     16  N   UNL     1      50.109   4.803  16.881  0.00  0.00    +0.000 NA
ATOM     17  C   UNL     1      49.483   4.305  17.977  0.00  0.00    +0.000 A 
BRANCH  17  18
ATOM     18  C   UNL     1      48.773   2.970  17.805  0.00  0.00    +0.000 C 
ATOM     19  C   UNL     1      47.344   3.182  17.300  0.00  0.00    +0.000 C 
ATOM     20  C   UNL     1      49.515   2.021  16.851  0.00  0.00    +0.000 C 
ENDBRANCH  17  18
ENDBRANCH  10  15
ENDBRANCH   9  10
ENDBRANCH   7   9
ENDBRANCH   1   7
BRANCH   5  21
ATOM     21  C   UNL     1      48.620   8.483  11.787  0.00  0.00    +0.000 C 
BRANCH  21  22
ATOM     22  C   UNL     1      47.669   7.298  11.891  0.00  0.00    +0.000 C 
ATOM     23  C   UNL     1      46.220   7.369  12.454  0.00  0.00    +0.000 C 
ATOM     24  N   UNL     1      46.495   6.064  13.012  0.00  0.00    +0.000 N 
ATOM     25  C   UNL     1      45.784   4.963  13.388  0.00  0.00    +0.000 C 
ATOM     26  O   UNL     1      46.353   3.964  13.820  0.00  0.00    +0.000 OA
ATOM     27  C   UNL     1      47.939   6.204  12.943  0.00  0.00    +0.000 C 
BRANCH  25  28
ATOM     28  O   UNL     1      44.440   5.076  13.214  0.00  0.00    +0.000 OA
BRANCH  28  29
ATOM     29  C   UNL     1      43.849   4.449  12.033  0.00  0.00    +0.000 C 
ATOM     30  C   UNL     1      43.480   2.981  12.303  0.00  0.00    +0.000 C 
ATOM     31  C   UNL     1      42.545   5.208  11.724  0.00  0.00    +0.000 C 
ATOM     32  C   UNL     1      44.762   4.595  10.805  0.00  0.00    +0.000 C 
ENDBRANCH  28  29
ENDBRANCH  25  28
ENDBRANCH  21  22
ENDBRANCH   5  21
TORSDOF 9
ENDMDL
MODEL 8
REMARK VINA RESULT:    -6.061      1.458      2.148
REMARK INTER + INTRA:         -10.441
REMARK INTER:                  -9.523
REMARK INTRA:                  -0.917
REMARK UNBOUND:                -1.190
REMARK  Name = 
REMARK  16 active torsions:
REMARK  status: ('A' for Active; 'I' for Inactive)
REMARK    1  A    between atoms: C_1  and  C_2
REMARK    2  A    between atoms: C_5  and  O_6
REMARK    3  A    between atoms: O_6  and  C_7
REMARK    4  A    between atoms: C_7  and  C_8
REMARK    5  A    between atoms: C_8  and  C_9
REMARK    6  A    between atoms: C_8  and  C_10
REMARK    7  A    between atoms: C_14  and  C_15
REMARK    8  A    between atoms: C_15  and  C_16
REMARK    9  A    between atoms: C_19  and  O_21
REMARK   10  A    between atoms: O_21  and  C_22
REMARK   11  A    between atoms: C_22  and  C_23
REMARK   12  A    between atoms: C_22  and  C_24
REMARK   13  A    between atoms: C_22  and  C_25
REMARK   14  A    between atoms: C_29  and  C_30
REMARK   15  A    between atoms: C_30  and  C_31
REMARK   16  A    between atoms: C_30  and  C_32
REMARK                            x       y       z     vdW  Elec       q    Type
REMARK                         _______ _______ _______ _____ _____    ______ ____
ROOT
ATOM      1  C   UNL     1      48.672   9.186  12.358  0.00  0.00    +0.000 A 
ATOM      2  C   UNL     1      48.524  10.570  12.229  0.00  0.00    +0.000 A 
ATOM      3  C   UNL     1      47.252  11.089  12.041  0.00  0.00    +0.000 A 
ATOM      4  N   UNL     1      46.131  10.337  11.986  0.00  0.00    +0.000 NA
ATOM      5  C   UNL     1      46.272   8.998  12.126  0.00  0.00    +0.000 A 
ATOM      6  C   UNL     1      47.516   8.394  12.300  0.00  0.00    +0.000 A 
ENDROOT
BRANCH   1   7
ATOM      7  C   UNL     1      50.030   8.541  12.583  0.00  0.00    +0.000 C 
ATOM      8  C   UNL     1      50.268   7.381  11.608  0.00  0.00    +0.000 C 
BRANCH   7   9
ATOM      9  C   UNL     1      50.218   8.093  14.046  0.00  0.00    +0.000 C 
BRANCH   9  10
ATOM     10  O   UNL     1      49.454   6.903  14.274  0.00  0.00    +0.000 OA
BRANCH  10  15
ATOM     11  C   UNL     1      47.978   6.309  19.577  0.00  0.00    +0.000 C 
ATOM     12  C   UNL     1      48.383   6.405  18.143  0.00  0.00    +0.000 A 
ATOM     13  N   UNL     1      48.457   7.659  17.643  0.00  0.00    +0.000 NA
ATOM     14  N   UNL     1      48.813   7.835  16.350  0.00  0.00    +0.000 NA
ATOM     15  C   UNL     1      49.080   6.752  15.593  0.00  0.00    +0.000 A 
ATOM     16  N   UNL     1      49.015   5.483  16.027  0.00  0.00    +0.000 NA
ATOM     17  C   UNL     1      48.672   5.313  17.329  0.00  0.00    +0.000 A 
BRANCH  17  18
ATOM     18  C   UNL     1      48.562   3.876  17.819  0.00  0.00    +0.000 C 
ATOM     19  C   UNL     1      47.306   3.209  17.253  0.00  0.00    +0.000 C 
ATOM     20  C   UNL     1      49.794   3.031  17.461  0.00  0.00    +0.000 C 
ENDBRANCH  17  18
ENDBRANCH  10  15
ENDBRANCH   9  10
ENDBRANCH   7   9
ENDBRANCH   1   7
BRANCH   5  21
ATOM     21  C   UNL     1      45.001   8.188  12.193  0.00  0.00    +0.000 C 
BRANCH  21  22
ATOM     22  C   UNL     1      45.193   6.682  12.062  0.00  0.00    +0.000 C 
ATOM     23  C   UNL     1      45.639   5.954  10.761  0.00  0.00    +0.000 C 
ATOM     24  N   UNL     1      44.726   4.910  11.169  0.00  0.00    +0.000 N 
ATOM     25  C   UNL     1      44.587   3.567  10.980  0.00  0.00    +0.000 C 
ATOM     26  O   UNL     1      43.672   2.947  11.514  0.00  0.00    +0.000 OA
ATOM     27  C   UNL     1      43.956   5.762  12.059  0.00  0.00    +0.000 C 
BRANCH  25  28
ATOM     28  O   UNL     1      45.547   3.009  10.193  0.00  0.00    +0.000 OA
BRANCH  28  29
ATOM     29  C   UNL     1      45.182   2.645   8.825  0.00  0.00    +0.000 C 
ATOM     30  C   UNL     1      44.414   3.779   8.128  0.00  0.00    +0.000 C 
ATOM     31  C   UNL     1      46.495   2.426   8.051  0.00  0.00    +0.000 C 
ATOM     32  C   UNL     1      44.406   1.318   8.787  0.00  0.00    +0.000 C 
ENDBRANCH  28  29
ENDBRANCH  25  28
ENDBRANCH  21  22
ENDBRANCH   5  21
TORSDOF 9
ENDMDL
MODEL 9
REMARK VINA RESULT:    -5.952      2.687      7.485
REMARK INTER + INTRA:         -10.274
REMARK INTER:                  -8.829
REMARK INTRA:                  -1.445
REMARK UNBOUND:                -1.190
REMARK  Name = 
REMARK  16 active torsions:
REMARK  status: ('A' for Active; 'I' for Inactive)
REMARK    1  A    between atoms: C_1  and  C_2
REMARK    2  A    between atoms: C_5  and  O_6
REMARK    3  A    between atoms: O_6  and  C_7
REMARK    4  A    between atoms: C_7  and  C_8
REMARK    5  A    between atoms: C_8  and  C_9
REMARK    6  A    between atoms: C_8  and  C_10
REMARK    7  A    between atoms: C_14  and  C_15
REMARK    8  A    between atoms: C_15  and  C_16
REMARK    9  A    between atoms: C_19  and  O_21
REMARK   10  A    between atoms: O_21  and  C_22
REMARK   11  A    between atoms: C_22  and  C_23
REMARK   12  A    between atoms: C_22  and  C_24
REMARK   13  A    between atoms: C_22  and  C_25
REMARK   14  A    between atoms: C_29  and  C_30
REMARK   15  A    between atoms: C_30  and  C_31
REMARK   16  A    between atoms: C_30  and  C_32
REMARK                            x       y       z     vdW  Elec       q    Type
REMARK                         _______ _______ _______ _____ _____    ______ ____
ROOT
ATOM      1  C   UNL     1      47.315  10.652  11.724  0.00  0.00    +0.000 A 
ATOM      2  C   UNL     1      48.244  11.080  10.771  0.00  0.00    +0.000 A 
ATOM      3  C   UNL     1      49.586  11.114  11.118  0.00  0.00    +0.000 A 
ATOM      4  N   UNL     1      50.062  10.746  12.327  0.00  0.00    +0.000 NA
ATOM      5  C   UNL     1      49.164  10.317  13.246  0.00  0.00    +0.000 A 
ATOM      6  C   UNL     1      47.796  10.270  12.985  0.00  0.00    +0.000 A 
ENDROOT
BRANCH   1   7
ATOM      7  C   UNL     1      45.829  10.571  11.417  0.00  0.00    +0.000 C 
ATOM      8  C   UNL     1      45.149  11.938  11.568  0.00  0.00    +0.000 C 
BRANCH   7   9
ATOM      9  C   UNL     1      45.124   9.496  12.268  0.00  0.00    +0.000 C 
BRANCH   9  10
ATOM     10  O   UNL     1      44.719   8.416  11.420  0.00  0.00    +0.000 OA
BRANCH  10  15
ATOM     11  C   UNL     1      46.489   3.492  13.230  0.00  0.00    +0.000 C 
ATOM     12  C   UNL     1      45.980   4.789  12.694  0.00  0.00    +0.000 A 
ATOM     13  N   UNL     1      46.393   5.894  13.357  0.00  0.00    +0.000 NA
ATOM     14  N   UNL     1      45.975   7.110  12.939  0.00  0.00    +0.000 NA
ATOM     15  C   UNL     1      45.153   7.188  11.873  0.00  0.00    +0.000 A 
ATOM     16  N   UNL     1      44.701   6.130  11.181  0.00  0.00    +0.000 NA
ATOM     17  C   UNL     1      45.135   4.913  11.595  0.00  0.00    +0.000 A 
BRANCH  17  18
ATOM     18  C   UNL     1      44.599   3.708  10.836  0.00  0.00    +0.000 C 
ATOM     19  C   UNL     1      43.306   3.200  11.477  0.00  0.00    +0.000 C 
ATOM     20  C   UNL     1      44.349   4.005   9.350  0.00  0.00    +0.000 C 
ENDBRANCH  17  18
ENDBRANCH  10  15
ENDBRANCH   9  10
ENDBRANCH   7   9
ENDBRANCH   1   7
BRANCH   5  21
ATOM     21  C   UNL     1      49.725   9.788  14.542  0.00  0.00    +0.000 C 
BRANCH  21  22
ATOM     22  C   UNL     1      48.953   8.621  15.145  0.00  0.00    +0.000 C 
ATOM     23  C   UNL     1      49.078   8.141  16.620  0.00  0.00    +0.000 C 
ATOM     24  N   UNL     1      48.929   6.809  16.079  0.00  0.00    +0.000 N 
ATOM     25  C   UNL     1      48.484   5.594  16.510  0.00  0.00    +0.000 C 
ATOM     26  O   UNL     1      48.466   4.627  15.754  0.00  0.00    +0.000 OA
ATOM     27  C   UNL     1      49.315   7.182  14.729  0.00  0.00    +0.000 C 
BRANCH  25  28
ATOM     28  O   UNL     1      48.055   5.579  17.801  0.00  0.00    +0.000 OA
BRANCH  28  29
ATOM     29  C   UNL     1      48.777   4.734  18.751  0.00  0.00    +0.000 C 
ATOM     30  C   UNL     1      50.296   4.951  18.652  0.00  0.00    +0.000 C 
ATOM     31  C   UNL     1      48.336   5.164  20.162  0.00  0.00    +0.000 C 
ATOM     32  C   UNL     1      48.397   3.254  18.585  0.00  0.00    +0.000 C 
ENDBRANCH  28  29
ENDBRANCH  25  28
ENDBRANCH  21  22
ENDBRANCH   5  21
TORSDOF 9
ENDMDL
