MODEL 1
REMARK VINA RESULT:    -8.223      0.000      0.000
REMARK INTER + INTRA:         -11.733
REMARK INTER:                 -11.347
REMARK INTRA:                  -0.386
REMARK UNBOUND:                -0.386
REMARK  Name = 
REMARK  7 active torsions:
REMARK  status: ('A' for Active; 'I' for Inactive)
REMARK    1  A    between atoms: N_1  and  C_2
REMARK    2  A    between atoms: C_2  and  O_3
REMARK    3  A    between atoms: C_2  and  C_17
REMARK    4  A    between atoms: O_3  and  C_4
REMARK    5  A    between atoms: C_7  and  C_8
REMARK    6  A    between atoms: C_8  and  N_9
REMARK    7  A    between atoms: C_17  and  C_19
REMARK                            x       y       z     vdW  Elec       q    Type
REMARK                         _______ _______ _______ _____ _____    ______ ____
ROOT
ATOM      1  C   UNL     1      47.168   4.212  14.738  0.00  0.00    +0.000 C 
ENDROOT
BRANCH   1   2
ATOM      2  N   UNL     1      47.495   2.883  14.194  0.00  0.00    +0.000 NA
ATOM      3  H   UNL     1      46.892   2.200  14.652  0.00  0.00    +0.000 HD
ATOM      4  H   UNL     1      48.434   2.664  14.536  0.00  0.00    +0.000 HD
ENDBRANCH   1   2
BRANCH   1   5
ATOM      5  C   UNL     1      47.303   4.166  16.290  0.00  0.00    +0.000 C 
ATOM      6  O   UNL     1      46.401   3.681  16.983  0.00  0.00    +0.000 OA
BRANCH   5   7
ATOM      7  C   UNL     1      48.566   4.564  16.935  0.00  0.00    +0.000 A 
ATOM      8  C   UNL     1      48.744   5.883  17.338  0.00  0.00    +0.000 A 
ATOM      9  S   UNL     1      50.207   6.147  18.175  0.00  0.00    +0.000 S 
ATOM     10  C   UNL     1      50.664   4.519  17.997  0.00  0.00    +0.000 A 
ATOM     11  N   UNL     1      51.825   4.053  18.541  0.00  0.00    +0.000 NA
ATOM     12  C   UNL     1      52.025   2.789  18.356  0.00  0.00    +0.000 A 
ATOM     13  N   UNL     1      51.194   1.960  17.648  0.00  0.00    +0.000 N 
ATOM     14  C   UNL     1      50.127   2.434  16.927  0.00  0.00    +0.000 A 
ATOM     15  O   UNL     1      49.600   1.762  16.052  0.00  0.00    +0.000 OA
ATOM     16  C   UNL     1      49.750   3.800  17.251  0.00  0.00    +0.000 A 
ATOM     17  H   UNL     1      51.463   1.004  17.466  0.00  0.00    +0.000 HD
ENDBRANCH   5   7
ENDBRANCH   1   5
BRANCH   1  18
ATOM     18  O   UNL     1      45.822   4.563  14.442  0.00  0.00    +0.000 OA
BRANCH  18  19
ATOM     19  C   UNL     1      45.397   4.466  13.153  0.00  0.00    +0.000 A 
ATOM     20  C   UNL     1      46.041   5.314  12.260  0.00  0.00    +0.000 A 
ATOM     21  C   UNL     1      45.644   5.345  10.929  0.00  0.00    +0.000 A 
ATOM     22  C   UNL     1      44.622   4.497  10.513  0.00  0.00    +0.000 A 
ATOM     23  N   UNL     1      44.002   3.631  11.360  0.00  0.00    +0.000 NA
ATOM     24  C   UNL     1      44.411   3.628  12.649  0.00  0.00    +0.000 A 
BRANCH  22  25
ATOM     25  C   UNL     1      44.158   4.522   9.070  0.00  0.00    +0.000 C 
BRANCH  25  26
ATOM     26  N   UNL     1      44.681   3.414   8.227  0.00  0.00    +0.000 NA
ATOM     27  C   UNL     1      45.819   3.898   7.421  0.00  0.00    +0.000 C 
ATOM     28  C   UNL     1      46.609   2.786   6.732  0.00  0.00    +0.000 C 
ATOM     29  C   UNL     1      47.049   1.732   7.733  0.00  0.00    +0.000 C 
ATOM     30  C   UNL     1      45.822   1.169   8.431  0.00  0.00    +0.000 C 
ATOM     31  C   UNL     1      45.009   2.277   9.102  0.00  0.00    +0.000 C 
ENDBRANCH  25  26
ENDBRANCH  22  25
ENDBRANCH  18  19
ENDBRANCH   1  18
TORSDOF 7
ENDMDL
MODEL 2
REMARK VINA RESULT:    -7.666      0.908      1.519
REMARK INTER + INTRA:         -10.965
REMARK INTER:                 -10.292
REMARK INTRA:                  -0.673
REMARK UNBOUND:                -0.386
REMARK  Name = 
REMARK  7 active torsions:
REMARK  status: ('A' for Active; 'I' for Inactive)
REMARK    1  A    between atoms: N_1  and  C_2
REMARK    2  A    between atoms: C_2  and  O_3
REMARK    3  A    between atoms: C_2  and  C_17
REMARK    4  A    between atoms: O_3  and  C_4
REMARK    5  A    between atoms: C_7  and  C_8
REMARK    6  A    between atoms: C_8  and  N_9
REMARK    7  A    between atoms: C_17  and  C_19
REMARK                            x       y       z     vdW  Elec       q    Type
REMARK                         _______ _______ _______ _____ _____    ______ ____
ROOT
ATOM      1  C   UNL     1      47.335   4.261  15.013  0.00  0.00    +0.000 C 
ENDROOT
BRANCH   1   2
ATOM      2  N   UNL     1      47.721   2.909  14.574  0.00  0.00    +0.000 NA
ATOM      3  H   UNL     1      47.860   2.338  15.406  0.00  0.00    +0.000 HD
ATOM      4  H   UNL     1      48.657   3.004  14.170  0.00  0.00    +0.000 HD
ENDBRANCH   1   2
BRANCH   1   5
ATOM      5  C   UNL     1      47.319   4.297  16.571  0.00  0.00    +0.000 C 
ATOM      6  O   UNL     1      46.411   3.740  17.200  0.00  0.00    +0.000 OA
BRANCH   5   7
ATOM      7  C   UNL     1      48.459   4.865  17.310  0.00  0.00    +0.000 A 
ATOM      8  C   UNL     1      48.403   6.183  17.750  0.00  0.00    +0.000 A 
ATOM      9  S   UNL     1      49.748   6.645  18.692  0.00  0.00    +0.000 S 
ATOM     10  C   UNL     1      50.463   5.112  18.515  0.00  0.00    +0.000 A 
ATOM     11  N   UNL     1      51.644   4.815  19.131  0.00  0.00    +0.000 NA
ATOM     12  C   UNL     1      52.049   3.602  18.937  0.00  0.00    +0.000 A 
ATOM     13  N   UNL     1      51.407   2.677  18.156  0.00  0.00    +0.000 N 
ATOM     14  C   UNL     1      50.329   3.002  17.371  0.00  0.00    +0.000 A 
ATOM     15  O   UNL     1      49.971   2.283  16.449  0.00  0.00    +0.000 OA
ATOM     16  C   UNL     1      49.724   4.283  17.694  0.00  0.00    +0.000 A 
ATOM     17  H   UNL     1      51.832   1.779  17.975  0.00  0.00    +0.000 HD
ENDBRANCH   5   7
ENDBRANCH   1   5
BRANCH   1  18
ATOM     18  O   UNL     1      46.022   4.581  14.570  0.00  0.00    +0.000 OA
BRANCH  18  19
ATOM     19  C   UNL     1      45.757   4.522  13.236  0.00  0.00    +0.000 A 
ATOM     20  C   UNL     1      45.128   3.355  12.817  0.00  0.00    +0.000 A 
ATOM     21  C   UNL     1      44.867   3.159  11.466  0.00  0.00    +0.000 A 
ATOM     22  C   UNL     1      45.218   4.158  10.563  0.00  0.00    +0.000 A 
ATOM     23  N   UNL     1      45.800   5.323  10.953  0.00  0.00    +0.000 NA
ATOM     24  C   UNL     1      46.042   5.482  12.274  0.00  0.00    +0.000 A 
BRANCH  22  25
ATOM     25  C   UNL     1      44.959   3.962   9.081  0.00  0.00    +0.000 C 
BRANCH  25  26
ATOM     26  N   UNL     1      46.086   3.351   8.327  0.00  0.00    +0.000 NA
ATOM     27  C   UNL     1      45.987   1.880   8.393  0.00  0.00    +0.000 C 
ATOM     28  C   UNL     1      46.921   1.150   7.429  0.00  0.00    +0.000 C 
ATOM     29  C   UNL     1      46.735   1.654   6.007  0.00  0.00    +0.000 C 
ATOM     30  C   UNL     1      46.988   3.152   5.976  0.00  0.00    +0.000 C 
ATOM     31  C   UNL     1      46.077   3.889   6.957  0.00  0.00    +0.000 C 
ENDBRANCH  25  26
ENDBRANCH  22  25
ENDBRANCH  18  19
ENDBRANCH   1  18
TORSDOF 7
ENDMDL
MODEL 3
REMARK VINA RESULT:    -7.321      1.811      3.016
REMARK INTER + INTRA:         -10.489
REMARK INTER:                  -9.785
REMARK INTRA:                  -0.704
REMARK UNBOUND:                -0.386
REMARK  Name = 
REMARK  7 active torsions:
REMARK  status: ('A' for Active; 'I' for Inactive)
REMARK    1  A    between atoms: N_1  and  C_2
REMARK    2  A    between atoms: C_2  and  O_3
REMARK    3  A    between atoms: C_2  and  C_17
REMARK    4  A    between atoms: O_3  and  C_4
REMARK    5  A    between atoms: C_7  and  C_8
REMARK    6  A    between atoms: C_8  and  N_9
REMARK    7  A    between atoms: C_17  and  C_19
REMARK                            x       y       z     vdW  Elec       q    Type
REMARK                         _______ _______ _______ _____ _____    ______ ____
ROOT
ATOM      1  C   UNL     1      48.545   5.938  17.351  0.00  0.00    +0.000 C 
ENDROOT
BRANCH   1   2
ATOM      2  N   UNL     1      49.165   7.185  17.832  0.00  0.00    +0.000 NA
ATOM      3  H   UNL     1      48.466   7.924  17.771  0.00  0.00    +0.000 HD
ATOM      4  H   UNL     1      49.865   7.437  17.130  0.00  0.00    +0.000 HD
ENDBRANCH   1   2
BRANCH   1   5
ATOM      5  C   UNL     1      49.008   4.763  18.266  0.00  0.00    +0.000 C 
ATOM      6  O   UNL     1      48.178   4.093  18.891  0.00  0.00    +0.000 OA
BRANCH   5   7
ATOM      7  C   UNL     1      50.421   4.349  18.281  0.00  0.00    +0.000 A 
ATOM      8  C   UNL     1      51.380   5.201  18.816  0.00  0.00    +0.000 A 
ATOM      9  S   UNL     1      52.944   4.521  18.867  0.00  0.00    +0.000 S 
ATOM     10  C   UNL     1      52.397   3.081  18.148  0.00  0.00    +0.000 A 
ATOM     11  N   UNL     1      53.246   2.032  17.944  0.00  0.00    +0.000 NA
ATOM     12  C   UNL     1      52.684   0.991  17.422  0.00  0.00    +0.000 A 
ATOM     13  N   UNL     1      51.367   0.915  17.051  0.00  0.00    +0.000 N 
ATOM     14  C   UNL     1      50.538   2.010  17.062  0.00  0.00    +0.000 A 
ATOM     15  O   UNL     1      49.488   2.020  16.436  0.00  0.00    +0.000 OA
ATOM     16  C   UNL     1      51.059   3.142  17.810  0.00  0.00    +0.000 A 
ATOM     17  H   UNL     1      51.020   0.102  16.563  0.00  0.00    +0.000 HD
ENDBRANCH   5   7
ENDBRANCH   1   5
BRANCH   1  18
ATOM     18  O   UNL     1      48.973   5.636  16.029  0.00  0.00    +0.000 OA
BRANCH  18  19
ATOM     19  C   UNL     1      48.025   5.413  15.078  0.00  0.00    +0.000 A 
ATOM     20  C   UNL     1      47.939   6.395  14.098  0.00  0.00    +0.000 A 
ATOM     21  C   UNL     1      46.963   6.301  13.113  0.00  0.00    +0.000 A 
ATOM     22  C   UNL     1      46.109   5.202  13.116  0.00  0.00    +0.000 A 
ATOM     23  N   UNL     1      46.199   4.210  14.041  0.00  0.00    +0.000 NA
ATOM     24  C   UNL     1      47.158   4.332  14.987  0.00  0.00    +0.000 A 
BRANCH  22  25
ATOM     25  C   UNL     1      45.025   5.084  12.061  0.00  0.00    +0.000 C 
BRANCH  25  26
ATOM     26  N   UNL     1      45.387   4.247  10.886  0.00  0.00    +0.000 NA
ATOM     27  C   UNL     1      44.389   3.173  10.717  0.00  0.00    +0.000 C 
ATOM     28  C   UNL     1      44.500   2.427   9.388  0.00  0.00    +0.000 C 
ATOM     29  C   UNL     1      44.475   3.395   8.218  0.00  0.00    +0.000 C 
ATOM     30  C   UNL     1      45.611   4.391   8.374  0.00  0.00    +0.000 C 
ATOM     31  C   UNL     1      45.525   5.124   9.713  0.00  0.00    +0.000 C 
ENDBRANCH  25  26
ENDBRANCH  22  25
ENDBRANCH  18  19
ENDBRANCH   1  18
TORSDOF 7
ENDMDL
MODEL 4
REMARK VINA RESULT:    -7.318      2.389      2.877
REMARK INTER + INTRA:         -10.485
REMARK INTER:                  -9.979
REMARK INTRA:                  -0.506
REMARK UNBOUND:                -0.386
REMARK  Name = 
REMARK  7 active torsions:
REMARK  status: ('A' for Active; 'I' for Inactive)
REMARK    1  A    between atoms: N_1  and  C_2
REMARK    2  A    between atoms: C_2  and  O_3
REMARK    3  A    between atoms: C_2  and  C_17
REMARK    4  A    between atoms: O_3  and  C_4
REMARK    5  A    between atoms: C_7  and  C_8
REMARK    6  A    between atoms: C_8  and  N_9
REMARK    7  A    between atoms: C_17  and  C_19
REMARK                            x       y       z     vdW  Elec       q    Type
REMARK                         _______ _______ _______ _____ _____    ______ ____
ROOT
ATOM      1  C   UNL     1      48.782   6.850  14.140  0.00  0.00    +0.000 C 
ENDROOT
BRANCH   1   2
ATOM      2  N   UNL     1      49.572   6.790  12.898  0.00  0.00    +0.000 NA
ATOM      3  H   UNL     1      48.966   6.437  12.158  0.00  0.00    +0.000 HD
ATOM      4  H   UNL     1      50.261   6.047  13.040  0.00  0.00    +0.000 HD
ENDBRANCH   1   2
BRANCH   1   5
ATOM      5  C   UNL     1      49.755   7.023  15.345  0.00  0.00    +0.000 C 
ATOM      6  O   UNL     1      50.948   7.287  15.153  0.00  0.00    +0.000 OA
BRANCH   5   7
ATOM      7  C   UNL     1      49.235   7.019  16.723  0.00  0.00    +0.000 A 
ATOM      8  C   UNL     1      48.604   8.154  17.221  0.00  0.00    +0.000 A 
ATOM      9  S   UNL     1      47.954   7.941  18.784  0.00  0.00    +0.000 S 
ATOM     10  C   UNL     1      48.523   6.341  18.859  0.00  0.00    +0.000 A 
ATOM     11  N   UNL     1      48.259   5.554  19.942  0.00  0.00    +0.000 NA
ATOM     12  C   UNL     1      48.722   4.350  19.844  0.00  0.00    +0.000 A 
ATOM     13  N   UNL     1      49.454   3.875  18.787  0.00  0.00    +0.000 N 
ATOM     14  C   UNL     1      49.901   4.693  17.779  0.00  0.00    +0.000 A 
ATOM     15  O   UNL     1      50.806   4.349  17.033  0.00  0.00    +0.000 OA
ATOM     16  C   UNL     1      49.256   5.995  17.740  0.00  0.00    +0.000 A 
ATOM     17  H   UNL     1      49.863   2.952  18.824  0.00  0.00    +0.000 HD
ENDBRANCH   5   7
ENDBRANCH   1   5
BRANCH   1  18
ATOM     18  O   UNL     1      48.068   5.637  14.345  0.00  0.00    +0.000 OA
BRANCH  18  19
ATOM     19  C   UNL     1      46.960   5.404  13.590  0.00  0.00    +0.000 A 
ATOM     20  C   UNL     1      46.617   4.064  13.454  0.00  0.00    +0.000 A 
ATOM     21  C   UNL     1      45.540   3.705  12.652  0.00  0.00    +0.000 A 
ATOM     22  C   UNL     1      44.807   4.708  12.024  0.00  0.00    +0.000 A 
ATOM     23  N   UNL     1      45.101   6.027  12.172  0.00  0.00    +0.000 NA
ATOM     24  C   UNL     1      46.156   6.342  12.957  0.00  0.00    +0.000 A 
BRANCH  22  25
ATOM     25  C   UNL     1      43.637   4.343  11.131  0.00  0.00    +0.000 C 
BRANCH  25  26
ATOM     26  N   UNL     1      44.015   3.793   9.802  0.00  0.00    +0.000 NA
ATOM     27  C   UNL     1      45.137   4.572   9.244  0.00  0.00    +0.000 C 
ATOM     28  C   UNL     1      45.790   3.930   8.019  0.00  0.00    +0.000 C 
ATOM     29  C   UNL     1      46.200   2.497   8.311  0.00  0.00    +0.000 C 
ATOM     30  C   UNL     1      44.976   1.709   8.746  0.00  0.00    +0.000 C 
ATOM     31  C   UNL     1      44.300   2.358   9.954  0.00  0.00    +0.000 C 
ENDBRANCH  25  26
ENDBRANCH  22  25
ENDBRANCH  18  19
ENDBRANCH   1  18
TORSDOF 7
ENDMDL
MODEL 5
REMARK VINA RESULT:    -7.224      3.151      8.590
REMARK INTER + INTRA:         -10.356
REMARK INTER:                  -9.441
REMARK INTRA:                  -0.915
REMARK UNBOUND:                -0.386
REMARK  Name = 
REMARK  7 active torsions:
REMARK  status: ('A' for Active; 'I' for Inactive)
REMARK    1  A    between atoms: N_1  and  C_2
REMARK    2  A    between atoms: C_2  and  O_3
REMARK    3  A    between atoms: C_2  and  C_17
REMARK    4  A    between atoms: O_3  and  C_4
REMARK    5  A    between atoms: C_7  and  C_8
REMARK    6  A    between atoms: C_8  and  N_9
REMARK    7  A    between atoms: C_17  and  C_19
REMARK                            x       y       z     vdW  Elec       q    Type
REMARK                         _______ _______ _______ _____ _____    ______ ____
ROOT
ATOM      1  C   UNL     1      47.474   6.720  12.232  0.00  0.00    +0.000 C 
ENDROOT
BRANCH   1   2
ATOM      2  N   UNL     1      48.452   7.604  11.575  0.00  0.00    +0.000 NA
ATOM      3  H   UNL     1      49.350   7.123  11.564  0.00  0.00    +0.000 HD
ATOM      4  H   UNL     1      48.591   8.390  12.215  0.00  0.00    +0.000 HD
ENDBRANCH   1   2
BRANCH   1   5
ATOM      5  C   UNL     1      46.102   6.863  11.506  0.00  0.00    +0.000 C 
ATOM      6  O   UNL     1      45.569   7.973  11.388  0.00  0.00    +0.000 OA
BRANCH   5   7
ATOM      7  C   UNL     1      45.499   5.703  10.827  0.00  0.00    +0.000 A 
ATOM      8  C   UNL     1      45.736   5.503   9.472  0.00  0.00    +0.000 A 
ATOM      9  S   UNL     1      45.068   4.053   8.870  0.00  0.00    +0.000 S 
ATOM     10  C   UNL     1      44.415   3.662  10.390  0.00  0.00    +0.000 A 
ATOM     11  N   UNL     1      43.741   2.492  10.584  0.00  0.00    +0.000 NA
ATOM     12  C   UNL     1      43.332   2.313  11.797  0.00  0.00    +0.000 A 
ATOM     13  N   UNL     1      43.500   3.209  12.821  0.00  0.00    +0.000 N 
ATOM     14  C   UNL     1      43.997   4.472  12.615  0.00  0.00    +0.000 A 
ATOM     15  O   UNL     1      43.842   5.360  13.441  0.00  0.00    +0.000 OA
ATOM     16  C   UNL     1      44.641   4.654  11.325  0.00  0.00    +0.000 A 
ATOM     17  H   UNL     1      43.071   3.042  13.720  0.00  0.00    +0.000 HD
ENDBRANCH   5   7
ENDBRANCH   1   5
BRANCH   1  18
ATOM     18  O   UNL     1      47.276   7.102  13.588  0.00  0.00    +0.000 OA
BRANCH  18  19
ATOM     19  C   UNL     1      47.728   6.272  14.566  0.00  0.00    +0.000 A 
ATOM     20  C   UNL     1      48.688   6.825  15.405  0.00  0.00    +0.000 A 
ATOM     21  C   UNL     1      49.266   6.046  16.400  0.00  0.00    +0.000 A 
ATOM     22  C   UNL     1      48.843   4.729  16.552  0.00  0.00    +0.000 A 
ATOM     23  N   UNL     1      47.879   4.177  15.769  0.00  0.00    +0.000 NA
ATOM     24  C   UNL     1      47.338   4.961  14.809  0.00  0.00    +0.000 A 
BRANCH  22  25
ATOM     25  C   UNL     1      49.469   3.853  17.620  0.00  0.00    +0.000 C 
BRANCH  25  26
ATOM     26  N   UNL     1      50.802   3.295  17.267  0.00  0.00    +0.000 NA
ATOM     27  C   UNL     1      51.840   3.915  18.113  0.00  0.00    +0.000 C 
ATOM     28  C   UNL     1      53.200   3.222  18.035  0.00  0.00    +0.000 C 
ATOM     29  C   UNL     1      53.069   1.735  18.319  0.00  0.00    +0.000 C 
ATOM     30  C   UNL     1      52.095   1.125  17.326  0.00  0.00    +0.000 C 
ATOM     31  C   UNL     1      50.738   1.828  17.377  0.00  0.00    +0.000 C 
ENDBRANCH  25  26
ENDBRANCH  22  25
ENDBRANCH  18  19
ENDBRANCH   1  18
TORSDOF 7
ENDMDL
MODEL 6
REMARK VINA RESULT:    -7.190      2.104      2.987
REMARK INTER + INTRA:         -10.308
REMARK INTER:                 -10.207
REMARK INTRA:                  -0.101
REMARK UNBOUND:                -0.386
REMARK  Name = 
REMARK  7 active torsions:
REMARK  status: ('A' for Active; 'I' for Inactive)
REMARK    1  A    between atoms: N_1  and  C_2
REMARK    2  A    between atoms: C_2  and  O_3
REMARK    3  A    between atoms: C_2  and  C_17
REMARK    4  A    between atoms: O_3  and  C_4
REMARK    5  A    between atoms: C_7  and  C_8
REMARK    6  A    between atoms: C_8  and  N_9
REMARK    7  A    between atoms: C_17  and  C_19
REMARK                            x       y       z     vdW  Elec       q    Type
REMARK                         _______ _______ _______ _____ _____    ______ ____
ROOT
ATOM      1  C   UNL     1      46.950   7.561  13.442  0.00  0.00    +0.000 C 
ENDROOT
BRANCH   1   2
ATOM      2  N   UNL     1      47.228   8.159  12.125  0.00  0.00    +0.000 NA
ATOM      3  H   UNL     1      46.936   7.492  11.411  0.00  0.00    +0.000 HD
ATOM      4  H   UNL     1      48.247   8.192  12.042  0.00  0.00    +0.000 HD
ENDBRANCH   1   2
BRANCH   1   5
ATOM      5  C   UNL     1      48.097   6.565  13.793  0.00  0.00    +0.000 C 
ATOM      6  O   UNL     1      48.819   6.104  12.901  0.00  0.00    +0.000 OA
BRANCH   5   7
ATOM      7  C   UNL     1      48.425   6.279  15.200  0.00  0.00    +0.000 A 
ATOM      8  C   UNL     1      49.140   7.214  15.941  0.00  0.00    +0.000 A 
ATOM      9  S   UNL     1      49.328   6.783  17.581  0.00  0.00    +0.000 S 
ATOM     10  C   UNL     1      48.492   5.321  17.346  0.00  0.00    +0.000 A 
ATOM     11  N   UNL     1      48.254   4.475  18.390  0.00  0.00    +0.000 NA
ATOM     12  C   UNL     1      47.577   3.421  18.070  0.00  0.00    +0.000 A 
ATOM     13  N   UNL     1      47.151   3.117  16.803  0.00  0.00    +0.000 N 
ATOM     14  C   UNL     1      47.541   3.844  15.705  0.00  0.00    +0.000 A 
ATOM     15  O   UNL     1      47.439   3.393  14.574  0.00  0.00    +0.000 OA
ATOM     16  C   UNL     1      48.135   5.131  16.025  0.00  0.00    +0.000 A 
ATOM     17  H   UNL     1      46.709   2.229  16.613  0.00  0.00    +0.000 HD
ENDBRANCH   5   7
ENDBRANCH   1   5
BRANCH   1  18
ATOM     18  O   UNL     1      45.739   6.816  13.416  0.00  0.00    +0.000 OA
BRANCH  18  19
ATOM     19  C   UNL     1      45.498   6.011  12.345  0.00  0.00    +0.000 A 
ATOM     20  C   UNL     1      45.039   4.739  12.663  0.00  0.00    +0.000 A 
ATOM     21  C   UNL     1      44.821   3.811  11.651  0.00  0.00    +0.000 A 
ATOM     22  C   UNL     1      45.043   4.193  10.331  0.00  0.00    +0.000 A 
ATOM     23  N   UNL     1      45.456   5.443   9.993  0.00  0.00    +0.000 NA
ATOM     24  C   UNL     1      45.660   6.321  11.001  0.00  0.00    +0.000 A 
BRANCH  22  25
ATOM     25  C   UNL     1      44.828   3.195   9.209  0.00  0.00    +0.000 C 
BRANCH  25  26
ATOM     26  N   UNL     1      46.044   2.883   8.412  0.00  0.00    +0.000 NA
ATOM     27  C   UNL     1      46.189   1.420   8.281  0.00  0.00    +0.000 C 
ATOM     28  C   UNL     1      47.236   0.990   7.254  0.00  0.00    +0.000 C 
ATOM     29  C   UNL     1      46.977   1.644   5.907  0.00  0.00    +0.000 C 
ATOM     30  C   UNL     1      46.979   3.153   6.081  0.00  0.00    +0.000 C 
ATOM     31  C   UNL     1      45.953   3.592   7.126  0.00  0.00    +0.000 C 
ENDBRANCH  25  26
ENDBRANCH  22  25
ENDBRANCH  18  19
ENDBRANCH   1  18
TORSDOF 7
ENDMDL
MODEL 7
REMARK VINA RESULT:    -7.175      2.449      2.890
REMARK INTER + INTRA:         -10.288
REMARK INTER:                  -9.513
REMARK INTRA:                  -0.776
REMARK UNBOUND:                -0.386
REMARK  Name = 
REMARK  7 active torsions:
REMARK  status: ('A' for Active; 'I' for Inactive)
REMARK    1  A    between atoms: N_1  and  C_2
REMARK    2  A    between atoms: C_2  and  O_3
REMARK    3  A    between atoms: C_2  and  C_17
REMARK    4  A    between atoms: O_3  and  C_4
REMARK    5  A    between atoms: C_7  and  C_8
REMARK    6  A    between atoms: C_8  and  N_9
REMARK    7  A    between atoms: C_17  and  C_19
REMARK                            x       y       z     vdW  Elec       q    Type
REMARK                         _______ _______ _______ _____ _____    ______ ____
ROOT
ATOM      1  C   UNL     1      49.040   7.250  14.319  0.00  0.00    +0.000 C 
ENDROOT
BRANCH   1   2
ATOM      2  N   UNL     1      50.448   7.530  13.991  0.00  0.00    +0.000 NA
ATOM      3  H   UNL     1      50.585   7.332  13.001  0.00  0.00    +0.000 HD
ATOM      4  H   UNL     1      50.995   6.812  14.473  0.00  0.00    +0.000 HD
ENDBRANCH   1   2
BRANCH   1   5
ATOM      5  C   UNL     1      48.875   7.258  15.869  0.00  0.00    +0.000 C 
ATOM      6  O   UNL     1      48.383   8.238  16.441  0.00  0.00    +0.000 OA
BRANCH   5   7
ATOM      7  C   UNL     1      49.166   6.044  16.650  0.00  0.00    +0.000 A 
ATOM      8  C   UNL     1      48.117   5.249  17.097  0.00  0.00    +0.000 A 
ATOM      9  S   UNL     1      48.630   3.821  17.878  0.00  0.00    +0.000 S 
ATOM     10  C   UNL     1      50.266   4.235  17.674  0.00  0.00    +0.000 A 
ATOM     11  N   UNL     1      51.258   3.396  18.088  0.00  0.00    +0.000 NA
ATOM     12  C   UNL     1      52.452   3.824  17.835  0.00  0.00    +0.000 A 
ATOM     13  N   UNL     1      52.744   5.026  17.244  0.00  0.00    +0.000 N 
ATOM     14  C   UNL     1      51.782   5.973  16.996  0.00  0.00    +0.000 A 
ATOM     15  O   UNL     1      52.077   7.140  16.783  0.00  0.00    +0.000 OA
ATOM     16  C   UNL     1      50.420   5.474  17.082  0.00  0.00    +0.000 A 
ATOM     17  H   UNL     1      53.703   5.335  17.164  0.00  0.00    +0.000 HD
ENDBRANCH   5   7
ENDBRANCH   1   5
BRANCH   1  18
ATOM     18  O   UNL     1      48.660   5.959  13.860  0.00  0.00    +0.000 OA
BRANCH  18  19
ATOM     19  C   UNL     1      47.515   5.842  13.133  0.00  0.00    +0.000 A 
ATOM     20  C   UNL     1      46.752   4.717  13.422  0.00  0.00    +0.000 A 
ATOM     21  C   UNL     1      45.595   4.464  12.695  0.00  0.00    +0.000 A 
ATOM     22  C   UNL     1      45.211   5.366  11.708  0.00  0.00    +0.000 A 
ATOM     23  N   UNL     1      45.921   6.493  11.433  0.00  0.00    +0.000 NA
ATOM     24  C   UNL     1      47.043   6.709  12.157  0.00  0.00    +0.000 A 
BRANCH  22  25
ATOM     25  C   UNL     1      43.961   5.105  10.890  0.00  0.00    +0.000 C 
BRANCH  25  26
ATOM     26  N   UNL     1      44.168   4.252   9.690  0.00  0.00    +0.000 NA
ATOM     27  C   UNL     1      45.401   4.666   8.993  0.00  0.00    +0.000 C 
ATOM     28  C   UNL     1      45.863   3.688   7.914  0.00  0.00    +0.000 C 
ATOM     29  C   UNL     1      45.990   2.282   8.473  0.00  0.00    +0.000 C 
ATOM     30  C   UNL     1      44.650   1.856   9.050  0.00  0.00    +0.000 C 
ATOM     31  C   UNL     1      44.166   2.842  10.113  0.00  0.00    +0.000 C 
ENDBRANCH  25  26
ENDBRANCH  22  25
ENDBRANCH  18  19
ENDBRANCH   1  18
TORSDOF 7
ENDMDL
MODEL 8
REMARK VINA RESULT:    -7.114      3.344      9.139
REMARK INTER + INTRA:         -10.204
REMARK INTER:                  -9.594
REMARK INTRA:                  -0.609
REMARK UNBOUND:                -0.386
REMARK  Name = 
REMARK  7 active torsions:
REMARK  status: ('A' for Active; 'I' for Inactive)
REMARK    1  A    between atoms: N_1  and  C_2
REMARK    2  A    between atoms: C_2  and  O_3
REMARK    3  A    between atoms: C_2  and  C_17
REMARK    4  A    between atoms: O_3  and  C_4
REMARK    5  A    between atoms: C_7  and  C_8
REMARK    6  A    between atoms: C_8  and  N_9
REMARK    7  A    between atoms: C_17  and  C_19
REMARK                            x       y       z     vdW  Elec       q    Type
REMARK                         _______ _______ _______ _____ _____    ______ ____
ROOT
ATOM      1  C   UNL     1      45.548   7.058  11.941  0.00  0.00    +0.000 C 
ENDROOT
BRANCH   1   2
ATOM      2  N   UNL     1      45.286   7.691  13.245  0.00  0.00    +0.000 NA
ATOM      3  H   UNL     1      45.632   8.648  13.204  0.00  0.00    +0.000 HD
ATOM      4  H   UNL     1      45.905   7.224  13.912  0.00  0.00    +0.000 HD
ENDBRANCH   1   2
BRANCH   1   5
ATOM      5  C   UNL     1      44.226   6.417  11.420  0.00  0.00    +0.000 C 
ATOM      6  O   UNL     1      43.277   7.132  11.074  0.00  0.00    +0.000 OA
BRANCH   5   7
ATOM      7  C   UNL     1      44.146   4.963  11.197  0.00  0.00    +0.000 A 
ATOM      8  C   UNL     1      43.534   4.155  12.148  0.00  0.00    +0.000 A 
ATOM      9  S   UNL     1      43.417   2.519  11.680  0.00  0.00    +0.000 S 
ATOM     10  C   UNL     1      44.209   2.831  10.208  0.00  0.00    +0.000 A 
ATOM     11  N   UNL     1      44.397   1.839   9.290  0.00  0.00    +0.000 NA
ATOM     12  C   UNL     1      44.980   2.229   8.204  0.00  0.00    +0.000 A 
ATOM     13  N   UNL     1      45.425   3.504   7.967  0.00  0.00    +0.000 N 
ATOM     14  C   UNL     1      45.427   4.471   8.941  0.00  0.00    +0.000 A 
ATOM     15  O   UNL     1      46.109   5.480   8.836  0.00  0.00    +0.000 OA
ATOM     16  C   UNL     1      44.618   4.146  10.104  0.00  0.00    +0.000 A 
ATOM     17  H   UNL     1      45.956   3.712   7.134  0.00  0.00    +0.000 HD
ENDBRANCH   5   7
ENDBRANCH   1   5
BRANCH   1  18
ATOM     18  O   UNL     1      46.502   6.012  12.069  0.00  0.00    +0.000 OA
BRANCH  18  19
ATOM     19  C   UNL     1      47.128   5.850  13.266  0.00  0.00    +0.000 A 
ATOM     20  C   UNL     1      46.617   4.830  14.060  0.00  0.00    +0.000 A 
ATOM     21  C   UNL     1      47.139   4.617  15.330  0.00  0.00    +0.000 A 
ATOM     22  C   UNL     1      48.189   5.419  15.768  0.00  0.00    +0.000 A 
ATOM     23  N   UNL     1      48.731   6.398  14.995  0.00  0.00    +0.000 NA
ATOM     24  C   UNL     1      48.199   6.581  13.765  0.00  0.00    +0.000 A 
BRANCH  22  25
ATOM     25  C   UNL     1      48.766   5.218  17.156  0.00  0.00    +0.000 C 
BRANCH  25  26
ATOM     26  N   UNL     1      47.933   5.761  18.262  0.00  0.00    +0.000 NA
ATOM     27  C   UNL     1      48.262   5.064  19.520  0.00  0.00    +0.000 C 
ATOM     28  C   UNL     1      47.676   5.724  20.768  0.00  0.00    +0.000 C 
ATOM     29  C   UNL     1      48.055   7.194  20.833  0.00  0.00    +0.000 C 
ATOM     30  C   UNL     1      47.565   7.889  19.574  0.00  0.00    +0.000 C 
ATOM     31  C   UNL     1      48.124   7.219  18.319  0.00  0.00    +0.000 C 
ENDBRANCH  25  26
ENDBRANCH  22  25
ENDBRANCH  18  19
ENDBRANCH   1  18
TORSDOF 7
ENDMDL
MODEL 9
REMARK VINA RESULT:    -6.762      2.875      3.789
REMARK INTER + INTRA:          -9.717
REMARK INTER:                  -9.265
REMARK INTRA:                  -0.453
REMARK UNBOUND:                -0.386
REMARK  Name = 
REMARK  7 active torsions:
REMARK  status: ('A' for Active; 'I' for Inactive)
REMARK    1  A    between atoms: N_1  and  C_2
REMARK    2  A    between atoms: C_2  and  O_3
REMARK    3  A    between atoms: C_2  and  C_17
REMARK    4  A    between atoms: O_3  and  C_4
REMARK    5  A    between atoms: C_7  and  C_8
REMARK    6  A    between atoms: C_8  and  N_9
REMARK    7  A    between atoms: C_17  and  C_19
REMARK                            x       y       z     vdW  Elec       q    Type
REMARK                         _______ _______ _______ _____ _____    ______ ____
ROOT
ATOM      1  C   UNL     1      48.595   7.072  14.894  0.00  0.00    +0.000 C 
ENDROOT
BRANCH   1   2
ATOM      2  N   UNL     1      49.086   8.389  14.453  0.00  0.00    +0.000 NA
ATOM      3  H   UNL     1      50.072   8.454  14.699  0.00  0.00    +0.000 HD
ATOM      4  H   UNL     1      48.626   9.075  15.058  0.00  0.00    +0.000 HD
ENDBRANCH   1   2
BRANCH   1   5
ATOM      5  C   UNL     1      49.571   6.508  15.970  0.00  0.00    +0.000 C 
ATOM      6  O   UNL     1      50.790   6.691  15.867  0.00  0.00    +0.000 OA
BRANCH   5   7
ATOM      7  C   UNL     1      49.042   5.880  17.193  0.00  0.00    +0.000 A 
ATOM      8  C   UNL     1      49.053   4.495  17.312  0.00  0.00    +0.000 A 
ATOM      9  S   UNL     1      48.520   3.938  18.834  0.00  0.00    +0.000 S 
ATOM     10  C   UNL     1      48.228   5.525  19.370  0.00  0.00    +0.000 A 
ATOM     11  N   UNL     1      47.792   5.766  20.640  0.00  0.00    +0.000 NA
ATOM     12  C   UNL     1      47.647   7.021  20.919  0.00  0.00    +0.000 A 
ATOM     13  N   UNL     1      47.859   8.049  20.037  0.00  0.00    +0.000 N 
ATOM     14  C   UNL     1      48.107   7.832  18.704  0.00  0.00    +0.000 A 
ATOM     15  O   UNL     1      47.970   8.722  17.878  0.00  0.00    +0.000 OA
ATOM     16  C   UNL     1      48.465   6.461  18.382  0.00  0.00    +0.000 A 
ATOM     17  H   UNL     1      47.635   8.999  20.298  0.00  0.00    +0.000 HD
ENDBRANCH   5   7
ENDBRANCH   1   5
BRANCH   1  18
ATOM     18  O   UNL     1      48.580   6.149  13.812  0.00  0.00    +0.000 OA
BRANCH  18  19
ATOM     19  C   UNL     1      47.413   5.961  13.138  0.00  0.00    +0.000 A 
ATOM     20  C   UNL     1      46.737   4.789  13.457  0.00  0.00    +0.000 A 
ATOM     21  C   UNL     1      45.565   4.464  12.784  0.00  0.00    +0.000 A 
ATOM     22  C   UNL     1      45.079   5.342  11.820  0.00  0.00    +0.000 A 
ATOM     23  N   UNL     1      45.702   6.512  11.518  0.00  0.00    +0.000 NA
ATOM     24  C   UNL     1      46.841   6.798  12.189  0.00  0.00    +0.000 A 
BRANCH  22  25
ATOM     25  C   UNL     1      43.811   5.004  11.060  0.00  0.00    +0.000 C 
BRANCH  25  26
ATOM     26  N   UNL     1      44.019   4.190   9.833  0.00  0.00    +0.000 NA
ATOM     27  C   UNL     1      45.211   4.675   9.111  0.00  0.00    +0.000 C 
ATOM     28  C   UNL     1      45.682   3.745   7.994  0.00  0.00    +0.000 C 
ATOM     29  C   UNL     1      45.886   2.332   8.513  0.00  0.00    +0.000 C 
ATOM     30  C   UNL     1      44.584   1.833   9.118  0.00  0.00    +0.000 C 
ATOM     31  C   UNL     1      44.090   2.772  10.219  0.00  0.00    +0.000 C 
ENDBRANCH  25  26
ENDBRANCH  22  25
ENDBRANCH  18  19
ENDBRANCH   1  18
TORSDOF 7
ENDMDL
