MODEL 1
REMARK VINA RESULT:    -8.064      0.000      0.000
REMARK INTER + INTRA:         -12.839
REMARK INTER:                 -11.599
REMARK INTRA:                  -1.239
REMARK UNBOUND:                -1.239
REMARK  Name = 
REMARK  9 active torsions:
REMARK  status: ('A' for Active; 'I' for Inactive)
REMARK    1  A    between atoms: C_1  and  N_2
REMARK    2  A    between atoms: C_4  and  C_5
REMARK    3  A    between atoms: N_7  and  C_8
REMARK    4  A    between atoms: C_8  and  C_9
REMARK    5  A    between atoms: C_12  and  C_13
REMARK    6  A    between atoms: C_13  and  N_14
REMARK    7  A    between atoms: N_14  and  C_15
REMARK    8  A    between atoms: C_15  and  C_16
REMARK    9  A    between atoms: C_26  and  O_27
REMARK                            x       y       z     vdW  Elec       q    Type
REMARK                         _______ _______ _______ _____ _____    ______ ____
ROOT
ATOM      1  C   UNL     1      47.768   7.108  13.327  0.00  0.00    +0.000 C 
ENDROOT
BRANCH   1   2
ATOM      2  C   UNL     1      46.611   6.299  12.803  0.00  0.00    +0.000 A 
ATOM      3  C   UNL     1      46.141   6.515  11.500  0.00  0.00    +0.000 A 
ATOM      4  C   UNL     1      45.075   5.765  10.992  0.00  0.00    +0.000 A 
ATOM      5  C   UNL     1      44.455   4.783  11.777  0.00  0.00    +0.000 A 
ATOM      6  C   UNL     1      44.914   4.584  13.085  0.00  0.00    +0.000 A 
ATOM      7  C   UNL     1      45.975   5.336  13.597  0.00  0.00    +0.000 A 
BRANCH   5   8
ATOM      8  C   UNL     1      43.310   3.947  11.250  0.00  0.00    +0.000 C 
BRANCH   8   9
ATOM      9  N   UNL     1      43.579   3.491   9.889  0.00  0.00    +0.000 NA
ATOM     10  H   UNL     1      44.031   4.253   9.379  0.00  0.00    +0.000 HD
BRANCH   9  11
ATOM     11  C   UNL     1      44.493   2.342   9.883  0.00  0.00    +0.000 C 
BRANCH  11  12
ATOM     12  C   UNL     1      45.412   2.362   8.674  0.00  0.00    +0.000 A 
ATOM     13  C   UNL     1      45.538   3.516   7.897  0.00  0.00    +0.000 A 
ATOM     14  C   UNL     1      46.409   3.511   6.809  0.00  0.00    +0.000 A 
ATOM     15  C   UNL     1      47.122   2.356   6.519  0.00  0.00    +0.000 A 
ATOM     16 CL   UNL     1      48.199   2.302   5.184  0.00  0.00    +0.000 Cl
ATOM     17  C   UNL     1      46.937   1.249   7.332  0.00  0.00    +0.000 A 
ATOM     18  N   UNL     1      46.105   1.225   8.403  0.00  0.00    +0.000 NA
ENDBRANCH  11  12
ENDBRANCH   9  11
ENDBRANCH   8   9
ENDBRANCH   5   8
ENDBRANCH   1   2
BRANCH   1  21
ATOM     19  C   UNL     1      49.184   6.929  15.319  0.00  0.00    +0.000 C 
ATOM     20  O   UNL     1      50.221   7.047  14.672  0.00  0.00    +0.000 OA
ATOM     21  N   UNL     1      47.936   6.946  14.746  0.00  0.00    +0.000 N 
ATOM     22  H   UNL     1      47.111   6.877  15.324  0.00  0.00    +0.000 HD
BRANCH  19  26
ATOM     23  C   UNL     1      49.633   7.761  20.239  0.00  0.00    +0.000 C 
ATOM     24  N   UNL     1      49.399   7.107  18.972  0.00  0.00    +0.000 N 
ATOM     25  C   UNL     1      49.514   7.699  17.740  0.00  0.00    +0.000 A 
ATOM     26  C   UNL     1      49.204   6.756  16.767  0.00  0.00    +0.000 A 
ATOM     27  C   UNL     1      48.896   5.538  17.467  0.00  0.00    +0.000 A 
ATOM     28  C   UNL     1      48.517   4.234  17.136  0.00  0.00    +0.000 A 
ATOM     29  N   UNL     1      48.300   3.323  18.100  0.00  0.00    +0.000 NA
ATOM     30  C   UNL     1      48.460   3.717  19.375  0.00  0.00    +0.000 A 
ATOM     31  N   UNL     1      48.820   4.930  19.831  0.00  0.00    +0.000 NA
ATOM     32  C   UNL     1      49.025   5.799  18.826  0.00  0.00    +0.000 A 
BRANCH  28  33
ATOM     33  O   UNL     1      48.340   3.780  15.853  0.00  0.00    +0.000 OA
ATOM     34  H   UNL     1      49.220   3.557  15.489  0.00  0.00    +0.000 HD
ENDBRANCH  28  33
ENDBRANCH  19  26
ENDBRANCH   1  21
TORSDOF 8
ENDMDL
MODEL 2
REMARK VINA RESULT:    -8.000      1.356      2.420
REMARK INTER + INTRA:         -12.747
REMARK INTER:                 -11.604
REMARK INTRA:                  -1.143
REMARK UNBOUND:                -1.239
REMARK  Name = 
REMARK  9 active torsions:
REMARK  status: ('A' for Active; 'I' for Inactive)
REMARK    1  A    between atoms: C_1  and  N_2
REMARK    2  A    between atoms: C_4  and  C_5
REMARK    3  A    between atoms: N_7  and  C_8
REMARK    4  A    between atoms: C_8  and  C_9
REMARK    5  A    between atoms: C_12  and  C_13
REMARK    6  A    between atoms: C_13  and  N_14
REMARK    7  A    between atoms: N_14  and  C_15
REMARK    8  A    between atoms: C_15  and  C_16
REMARK    9  A    between atoms: C_26  and  O_27
REMARK                            x       y       z     vdW  Elec       q    Type
REMARK                         _______ _______ _______ _____ _____    ______ ____
ROOT
ATOM      1  C   UNL     1      48.133   6.571  13.782  0.00  0.00    +0.000 C 
ENDROOT
BRANCH   1   2
ATOM      2  C   UNL     1      46.885   6.043  13.125  0.00  0.00    +0.000 A 
ATOM      3  C   UNL     1      46.156   5.014  13.735  0.00  0.00    +0.000 A 
ATOM      4  C   UNL     1      44.988   4.519  13.145  0.00  0.00    +0.000 A 
ATOM      5  C   UNL     1      44.525   5.043  11.930  0.00  0.00    +0.000 A 
ATOM      6  C   UNL     1      45.267   6.058  11.313  0.00  0.00    +0.000 A 
ATOM      7  C   UNL     1      46.437   6.550  11.898  0.00  0.00    +0.000 A 
BRANCH   5   8
ATOM      8  C   UNL     1      43.258   4.539  11.277  0.00  0.00    +0.000 C 
BRANCH   8   9
ATOM      9  N   UNL     1      43.531   4.005   9.945  0.00  0.00    +0.000 NA
ATOM     10  H   UNL     1      44.061   4.706   9.423  0.00  0.00    +0.000 HD
BRANCH   9  11
ATOM     11  C   UNL     1      44.347   2.787  10.018  0.00  0.00    +0.000 C 
BRANCH  11  12
ATOM     12  C   UNL     1      45.291   2.672   8.833  0.00  0.00    +0.000 A 
ATOM     13  C   UNL     1      45.526   3.771   8.004  0.00  0.00    +0.000 A 
ATOM     14  C   UNL     1      46.418   3.642   6.940  0.00  0.00    +0.000 A 
ATOM     15  C   UNL     1      47.041   2.421   6.725  0.00  0.00    +0.000 A 
ATOM     16 CL   UNL     1      48.139   2.214   5.424  0.00  0.00    +0.000 Cl
ATOM     17  C   UNL     1      46.750   1.375   7.587  0.00  0.00    +0.000 A 
ATOM     18  N   UNL     1      45.895   1.471   8.635  0.00  0.00    +0.000 NA
ENDBRANCH  11  12
ENDBRANCH   9  11
ENDBRANCH   8   9
ENDBRANCH   5   8
ENDBRANCH   1   2
BRANCH   1  21
ATOM     19  C   UNL     1      49.188   6.505  15.992  0.00  0.00    +0.000 C 
ATOM     20  O   UNL     1      50.323   6.570  15.525  0.00  0.00    +0.000 OA
ATOM     21  N   UNL     1      48.056   6.498  15.215  0.00  0.00    +0.000 N 
ATOM     22  H   UNL     1      47.144   6.475  15.648  0.00  0.00    +0.000 HD
BRANCH  19  26
ATOM     23  C   UNL     1      49.080   4.930  20.748  0.00  0.00    +0.000 C 
ATOM     24  N   UNL     1      48.903   5.739  19.564  0.00  0.00    +0.000 N 
ATOM     25  C   UNL     1      49.294   5.390  18.296  0.00  0.00    +0.000 A 
ATOM     26  C   UNL     1      48.961   6.425  17.431  0.00  0.00    +0.000 A 
ATOM     27  C   UNL     1      48.331   7.437  18.234  0.00  0.00    +0.000 A 
ATOM     28  C   UNL     1      47.764   8.700  18.033  0.00  0.00    +0.000 A 
ATOM     29  N   UNL     1      47.253   9.389  19.067  0.00  0.00    +0.000 NA
ATOM     30  C   UNL     1      47.312   8.820  20.283  0.00  0.00    +0.000 A 
ATOM     31  N   UNL     1      47.824   7.621  20.615  0.00  0.00    +0.000 NA
ATOM     32  C   UNL     1      48.318   6.976  19.545  0.00  0.00    +0.000 A 
BRANCH  28  33
ATOM     33  O   UNL     1      47.679   9.325  16.814  0.00  0.00    +0.000 OA
ATOM     34  H   UNL     1      48.338   8.914  16.219  0.00  0.00    +0.000 HD
ENDBRANCH  28  33
ENDBRANCH  19  26
ENDBRANCH   1  21
TORSDOF 8
ENDMDL
MODEL 3
REMARK VINA RESULT:    -7.859      1.221      1.354
REMARK INTER + INTRA:         -12.544
REMARK INTER:                 -11.439
REMARK INTRA:                  -1.105
REMARK UNBOUND:                -1.239
REMARK  Name = 
REMARK  9 active torsions:
REMARK  status: ('A' for Active; 'I' for Inactive)
REMARK    1  A    between atoms: C_1  and  N_2
REMARK    2  A    between atoms: C_4  and  C_5
REMARK    3  A    between atoms: N_7  and  C_8
REMARK    4  A    between atoms: C_8  and  C_9
REMARK    5  A    between atoms: C_12  and  C_13
REMARK    6  A    between atoms: C_13  and  N_14
REMARK    7  A    between atoms: N_14  and  C_15
REMARK    8  A    between atoms: C_15  and  C_16
REMARK    9  A    between atoms: C_26  and  O_27
REMARK                            x       y       z     vdW  Elec       q    Type
REMARK                         _______ _______ _______ _____ _____    ______ ____
ROOT
ATOM      1  C   UNL     1      48.298   6.647  13.871  0.00  0.00    +0.000 C 
ENDROOT
BRANCH   1   2
ATOM      2  C   UNL     1      47.002   6.298  13.188  0.00  0.00    +0.000 A 
ATOM      3  C   UNL     1      46.627   6.969  12.016  0.00  0.00    +0.000 A 
ATOM      4  C   UNL     1      45.433   6.651  11.362  0.00  0.00    +0.000 A 
ATOM      5  C   UNL     1      44.586   5.654  11.867  0.00  0.00    +0.000 A 
ATOM      6  C   UNL     1      44.954   4.999  13.049  0.00  0.00    +0.000 A 
ATOM      7  C   UNL     1      46.144   5.320  13.707  0.00  0.00    +0.000 A 
BRANCH   5   8
ATOM      8  C   UNL     1      43.296   5.278  11.173  0.00  0.00    +0.000 C 
BRANCH   8   9
ATOM      9  N   UNL     1      43.559   4.684   9.865  0.00  0.00    +0.000 NA
ATOM     10  H   UNL     1      44.252   5.261   9.385  0.00  0.00    +0.000 HD
BRANCH   9  11
ATOM     11  C   UNL     1      44.113   3.331   9.997  0.00  0.00    +0.000 C 
BRANCH  11  12
ATOM     12  C   UNL     1      45.130   3.033   8.909  0.00  0.00    +0.000 A 
ATOM     13  C   UNL     1      45.593   4.051   8.072  0.00  0.00    +0.000 A 
ATOM     14  C   UNL     1      46.547   3.751   7.100  0.00  0.00    +0.000 A 
ATOM     15  C   UNL     1      47.003   2.447   6.981  0.00  0.00    +0.000 A 
ATOM     16 CL   UNL     1      48.170   2.030   5.794  0.00  0.00    +0.000 Cl
ATOM     17  C   UNL     1      46.490   1.490   7.843  0.00  0.00    +0.000 A 
ATOM     18  N   UNL     1      45.570   1.752   8.805  0.00  0.00    +0.000 NA
ENDBRANCH  11  12
ENDBRANCH   9  11
ENDBRANCH   8   9
ENDBRANCH   5   8
ENDBRANCH   1   2
BRANCH   1  21
ATOM     19  C   UNL     1      48.996   6.575  16.219  0.00  0.00    +0.000 C 
ATOM     20  O   UNL     1      50.002   5.917  15.968  0.00  0.00    +0.000 OA
ATOM     21  N   UNL     1      48.103   6.977  15.256  0.00  0.00    +0.000 N 
ATOM     22  H   UNL     1      47.306   7.544  15.508  0.00  0.00    +0.000 HD
BRANCH  19  26
ATOM     23  C   UNL     1      47.714   9.277  20.239  0.00  0.00    +0.000 C 
ATOM     24  N   UNL     1      48.098   8.171  19.392  0.00  0.00    +0.000 N 
ATOM     25  C   UNL     1      48.332   8.247  18.043  0.00  0.00    +0.000 A 
ATOM     26  C   UNL     1      48.671   6.981  17.582  0.00  0.00    +0.000 A 
ATOM     27  C   UNL     1      48.641   6.112  18.727  0.00  0.00    +0.000 A 
ATOM     28  C   UNL     1      48.870   4.758  18.992  0.00  0.00    +0.000 A 
ATOM     29  N   UNL     1      48.737   4.277  20.239  0.00  0.00    +0.000 NA
ATOM     30  C   UNL     1      48.379   5.142  21.204  0.00  0.00    +0.000 A 
ATOM     31  N   UNL     1      48.132   6.459  21.089  0.00  0.00    +0.000 NA
ATOM     32  C   UNL     1      48.280   6.885  19.824  0.00  0.00    +0.000 A 
BRANCH  28  33
ATOM     33  O   UNL     1      49.237   3.834  18.045  0.00  0.00    +0.000 OA
ATOM     34  H   UNL     1      50.190   3.953  17.862  0.00  0.00    +0.000 HD
ENDBRANCH  28  33
ENDBRANCH  19  26
ENDBRANCH   1  21
TORSDOF 8
ENDMDL
MODEL 4
REMARK VINA RESULT:    -7.149      1.718      2.236
REMARK INTER + INTRA:         -11.523
REMARK INTER:                 -10.493
REMARK INTRA:                  -1.030
REMARK UNBOUND:                -1.239
REMARK  Name = 
REMARK  9 active torsions:
REMARK  status: ('A' for Active; 'I' for Inactive)
REMARK    1  A    between atoms: C_1  and  N_2
REMARK    2  A    between atoms: C_4  and  C_5
REMARK    3  A    between atoms: N_7  and  C_8
REMARK    4  A    between atoms: C_8  and  C_9
REMARK    5  A    between atoms: C_12  and  C_13
REMARK    6  A    between atoms: C_13  and  N_14
REMARK    7  A    between atoms: N_14  and  C_15
REMARK    8  A    between atoms: C_15  and  C_16
REMARK    9  A    between atoms: C_26  and  O_27
REMARK                            x       y       z     vdW  Elec       q    Type
REMARK                         _______ _______ _______ _____ _____    ______ ____
ROOT
ATOM      1  C   UNL     1      48.181   6.856  13.928  0.00  0.00    +0.000 C 
ENDROOT
BRANCH   1   2
ATOM      2  C   UNL     1      46.904   6.212  13.458  0.00  0.00    +0.000 A 
ATOM      3  C   UNL     1      46.757   4.820  13.528  0.00  0.00    +0.000 A 
ATOM      4  C   UNL     1      45.573   4.205  13.106  0.00  0.00    +0.000 A 
ATOM      5  C   UNL     1      44.511   4.970  12.604  0.00  0.00    +0.000 A 
ATOM      6  C   UNL     1      44.670   6.359  12.517  0.00  0.00    +0.000 A 
ATOM      7  C   UNL     1      45.853   6.974  12.932  0.00  0.00    +0.000 A 
BRANCH   5   8
ATOM      8  C   UNL     1      43.215   4.334  12.155  0.00  0.00    +0.000 C 
BRANCH   8   9
ATOM      9  N   UNL     1      43.410   3.548  10.940  0.00  0.00    +0.000 NA
ATOM     10  H   UNL     1      42.516   3.120  10.689  0.00  0.00    +0.000 HD
BRANCH   9  11
ATOM     11  C   UNL     1      43.832   4.397   9.819  0.00  0.00    +0.000 C 
BRANCH  11  12
ATOM     12  C   UNL     1      44.899   3.723   8.975  0.00  0.00    +0.000 A 
ATOM     13  C   UNL     1      45.107   2.344   9.062  0.00  0.00    +0.000 A 
ATOM     14  C   UNL     1      46.077   1.750   8.255  0.00  0.00    +0.000 A 
ATOM     15  C   UNL     1      46.820   2.546   7.395  0.00  0.00    +0.000 A 
ATOM     16 CL   UNL     1      48.029   1.859   6.390  0.00  0.00    +0.000 Cl
ATOM     17  C   UNL     1      46.561   3.908   7.372  0.00  0.00    +0.000 A 
ATOM     18  N   UNL     1      45.618   4.513   8.136  0.00  0.00    +0.000 NA
ENDBRANCH  11  12
ENDBRANCH   9  11
ENDBRANCH   8   9
ENDBRANCH   5   8
ENDBRANCH   1   2
BRANCH   1  21
ATOM     19  C   UNL     1      48.617   7.366  16.285  0.00  0.00    +0.000 C 
ATOM     20  O   UNL     1      48.418   8.568  16.130  0.00  0.00    +0.000 OA
ATOM     21  N   UNL     1      48.525   6.452  15.265  0.00  0.00    +0.000 N 
ATOM     22  H   UNL     1      48.667   5.469  15.449  0.00  0.00    +0.000 HD
BRANCH  19  26
ATOM     23  C   UNL     1      48.488   5.950  21.090  0.00  0.00    +0.000 C 
ATOM     24  N   UNL     1      48.937   6.173  19.735  0.00  0.00    +0.000 N 
ATOM     25  C   UNL     1      48.214   6.797  18.750  0.00  0.00    +0.000 A 
ATOM     26  C   UNL     1      48.975   6.815  17.588  0.00  0.00    +0.000 A 
ATOM     27  C   UNL     1      50.220   6.172  17.909  0.00  0.00    +0.000 A 
ATOM     28  C   UNL     1      51.410   5.854  17.247  0.00  0.00    +0.000 A 
ATOM     29  N   UNL     1      52.399   5.216  17.895  0.00  0.00    +0.000 NA
ATOM     30  C   UNL     1      52.196   4.903  19.185  0.00  0.00    +0.000 A 
ATOM     31  N   UNL     1      51.109   5.149  19.939  0.00  0.00    +0.000 NA
ATOM     32  C   UNL     1      50.154   5.787  19.243  0.00  0.00    +0.000 A 
BRANCH  28  33
ATOM     33  O   UNL     1      51.667   6.151  15.932  0.00  0.00    +0.000 OA
ATOM     34  H   UNL     1      50.810   6.257  15.474  0.00  0.00    +0.000 HD
ENDBRANCH  28  33
ENDBRANCH  19  26
ENDBRANCH   1  21
TORSDOF 8
ENDMDL
MODEL 5
REMARK VINA RESULT:    -7.129      1.746      1.981
REMARK INTER + INTRA:         -11.494
REMARK INTER:                 -10.270
REMARK INTRA:                  -1.224
REMARK UNBOUND:                -1.239
REMARK  Name = 
REMARK  9 active torsions:
REMARK  status: ('A' for Active; 'I' for Inactive)
REMARK    1  A    between atoms: C_1  and  N_2
REMARK    2  A    between atoms: C_4  and  C_5
REMARK    3  A    between atoms: N_7  and  C_8
REMARK    4  A    between atoms: C_8  and  C_9
REMARK    5  A    between atoms: C_12  and  C_13
REMARK    6  A    between atoms: C_13  and  N_14
REMARK    7  A    between atoms: N_14  and  C_15
REMARK    8  A    between atoms: C_15  and  C_16
REMARK    9  A    between atoms: C_26  and  O_27
REMARK                            x       y       z     vdW  Elec       q    Type
REMARK                         _______ _______ _______ _____ _____    ______ ____
ROOT
ATOM      1  C   UNL     1      48.685   7.414  13.019  0.00  0.00    +0.000 C 
ENDROOT
BRANCH   1   2
ATOM      2  C   UNL     1      47.314   6.794  12.959  0.00  0.00    +0.000 A 
ATOM      3  C   UNL     1      46.201   7.587  12.651  0.00  0.00    +0.000 A 
ATOM      4  C   UNL     1      44.921   7.027  12.579  0.00  0.00    +0.000 A 
ATOM      5  C   UNL     1      44.728   5.658  12.815  0.00  0.00    +0.000 A 
ATOM      6  C   UNL     1      45.840   4.872  13.142  0.00  0.00    +0.000 A 
ATOM      7  C   UNL     1      47.118   5.432  13.220  0.00  0.00    +0.000 A 
BRANCH   5   8
ATOM      8  C   UNL     1      43.359   5.021  12.730  0.00  0.00    +0.000 C 
BRANCH   8   9
ATOM      9  N   UNL     1      43.308   4.031  11.658  0.00  0.00    +0.000 NA
ATOM     10  H   UNL     1      42.380   3.604  11.661  0.00  0.00    +0.000 HD
BRANCH   9  11
ATOM     11  C   UNL     1      43.510   4.656  10.345  0.00  0.00    +0.000 C 
BRANCH  11  12
ATOM     12  C   UNL     1      44.463   3.850   9.480  0.00  0.00    +0.000 A 
ATOM     13  C   UNL     1      45.308   4.489   8.569  0.00  0.00    +0.000 A 
ATOM     14  C   UNL     1      46.189   3.724   7.807  0.00  0.00    +0.000 A 
ATOM     15  C   UNL     1      46.197   2.345   7.963  0.00  0.00    +0.000 A 
ATOM     16 CL   UNL     1      47.259   1.364   7.040  0.00  0.00    +0.000 Cl
ATOM     17  C   UNL     1      45.322   1.784   8.881  0.00  0.00    +0.000 A 
ATOM     18  N   UNL     1      44.461   2.501   9.644  0.00  0.00    +0.000 NA
ENDBRANCH  11  12
ENDBRANCH   9  11
ENDBRANCH   8   9
ENDBRANCH   5   8
ENDBRANCH   1   2
BRANCH   1  21
ATOM     19  C   UNL     1      49.805   7.752  15.172  0.00  0.00    +0.000 C 
ATOM     20  O   UNL     1      49.507   8.943  15.215  0.00  0.00    +0.000 OA
ATOM     21  N   UNL     1      49.446   6.925  14.136  0.00  0.00    +0.000 N 
ATOM     22  H   UNL     1      49.687   5.945  14.162  0.00  0.00    +0.000 HD
BRANCH  19  26
ATOM     23  C   UNL     1      53.488   6.520  18.338  0.00  0.00    +0.000 C 
ATOM     24  N   UNL     1      52.211   6.556  17.663  0.00  0.00    +0.000 N 
ATOM     25  C   UNL     1      51.893   7.370  16.606  0.00  0.00    +0.000 A 
ATOM     26  C   UNL     1      50.577   7.121  16.237  0.00  0.00    +0.000 A 
ATOM     27  C   UNL     1      50.095   6.098  17.125  0.00  0.00    +0.000 A 
ATOM     28  C   UNL     1      48.906   5.388  17.320  0.00  0.00    +0.000 A 
ATOM     29  N   UNL     1      48.815   4.468  18.295  0.00  0.00    +0.000 NA
ATOM     30  C   UNL     1      49.901   4.265  19.061  0.00  0.00    +0.000 A 
ATOM     31  N   UNL     1      51.099   4.872  18.982  0.00  0.00    +0.000 NA
ATOM     32  C   UNL     1      51.133   5.779  17.992  0.00  0.00    +0.000 A 
BRANCH  28  33
ATOM     33  O   UNL     1      47.770   5.556  16.568  0.00  0.00    +0.000 OA
ATOM     34  H   UNL     1      47.236   4.741  16.644  0.00  0.00    +0.000 HD
ENDBRANCH  28  33
ENDBRANCH  19  26
ENDBRANCH   1  21
TORSDOF 8
ENDMDL
MODEL 6
REMARK VINA RESULT:    -7.042      4.981      9.564
REMARK INTER + INTRA:         -11.369
REMARK INTER:                 -10.424
REMARK INTRA:                  -0.944
REMARK UNBOUND:                -1.239
REMARK  Name = 
REMARK  9 active torsions:
REMARK  status: ('A' for Active; 'I' for Inactive)
REMARK    1  A    between atoms: C_1  and  N_2
REMARK    2  A    between atoms: C_4  and  C_5
REMARK    3  A    between atoms: N_7  and  C_8
REMARK    4  A    between atoms: C_8  and  C_9
REMARK    5  A    between atoms: C_12  and  C_13
REMARK    6  A    between atoms: C_13  and  N_14
REMARK    7  A    between atoms: N_14  and  C_15
REMARK    8  A    between atoms: C_15  and  C_16
REMARK    9  A    between atoms: C_26  and  O_27
REMARK                            x       y       z     vdW  Elec       q    Type
REMARK                         _______ _______ _______ _____ _____    ______ ____
ROOT
ATOM      1  C   UNL     1      47.249   3.308  16.776  0.00  0.00    +0.000 C 
ENDROOT
BRANCH   1   2
ATOM      2  C   UNL     1      48.706   3.382  17.147  0.00  0.00    +0.000 A 
ATOM      3  C   UNL     1      49.509   2.237  17.057  0.00  0.00    +0.000 A 
ATOM      4  C   UNL     1      50.867   2.289  17.387  0.00  0.00    +0.000 A 
ATOM      5  C   UNL     1      51.452   3.489  17.815  0.00  0.00    +0.000 A 
ATOM      6  C   UNL     1      50.642   4.627  17.923  0.00  0.00    +0.000 A 
ATOM      7  C   UNL     1      49.284   4.575  17.599  0.00  0.00    +0.000 A 
BRANCH   5   8
ATOM      8  C   UNL     1      52.920   3.580  18.164  0.00  0.00    +0.000 C 
BRANCH   8   9
ATOM      9  N   UNL     1      53.265   2.641  19.228  0.00  0.00    +0.000 NA
ATOM     10  H   UNL     1      52.645   1.832  19.155  0.00  0.00    +0.000 HD
BRANCH   9  11
ATOM     11  C   UNL     1      54.646   2.163  19.090  0.00  0.00    +0.000 C 
BRANCH  11  12
ATOM     12  C   UNL     1      54.705   0.807  18.407  0.00  0.00    +0.000 A 
ATOM     13  C   UNL     1      54.937   0.715  17.032  0.00  0.00    +0.000 A 
ATOM     14  C   UNL     1      55.012  -0.544  16.438  0.00  0.00    +0.000 A 
ATOM     15  C   UNL     1      54.841  -1.674  17.226  0.00  0.00    +0.000 A 
ATOM     16 CL   UNL     1      54.916  -3.243  16.536  0.00  0.00    +0.000 Cl
ATOM     17  C   UNL     1      54.606  -1.500  18.581  0.00  0.00    +0.000 A 
ATOM     18  N   UNL     1      54.538  -0.290  19.190  0.00  0.00    +0.000 NA
ENDBRANCH  11  12
ENDBRANCH   9  11
ENDBRANCH   8   9
ENDBRANCH   5   8
ENDBRANCH   1   2
BRANCH   1  21
ATOM     19  C   UNL     1      46.932   4.164  14.501  0.00  0.00    +0.000 C 
ATOM     20  O   UNL     1      47.300   3.113  13.984  0.00  0.00    +0.000 OA
ATOM     21  N   UNL     1      46.875   4.352  15.861  0.00  0.00    +0.000 N 
ATOM     22  H   UNL     1      46.535   5.225  16.238  0.00  0.00    +0.000 HD
BRANCH  19  26
ATOM     23  C   UNL     1      46.858   8.591  12.155  0.00  0.00    +0.000 C 
ATOM     24  N   UNL     1      46.473   7.284  12.635  0.00  0.00    +0.000 N 
ATOM     25  C   UNL     1      47.226   6.486  13.459  0.00  0.00    +0.000 A 
ATOM     26  C   UNL     1      46.525   5.309  13.694  0.00  0.00    +0.000 A 
ATOM     27  C   UNL     1      45.287   5.424  12.972  0.00  0.00    +0.000 A 
ATOM     28  C   UNL     1      44.144   4.645  12.768  0.00  0.00    +0.000 A 
ATOM     29  N   UNL     1      43.143   5.095  11.992  0.00  0.00    +0.000 NA
ATOM     30  C   UNL     1      43.289   6.308  11.431  0.00  0.00    +0.000 A 
ATOM     31  N   UNL     1      44.327   7.156  11.544  0.00  0.00    +0.000 NA
ATOM     32  C   UNL     1      45.296   6.656  12.330  0.00  0.00    +0.000 A 
BRANCH  28  33
ATOM     33  O   UNL     1      43.945   3.402  13.316  0.00  0.00    +0.000 OA
ATOM     34  H   UNL     1      43.491   2.849  12.650  0.00  0.00    +0.000 HD
ENDBRANCH  28  33
ENDBRANCH  19  26
ENDBRANCH   1  21
TORSDOF 8
ENDMDL
MODEL 7
REMARK VINA RESULT:    -6.901      5.987      8.646
REMARK INTER + INTRA:         -11.166
REMARK INTER:                 -10.743
REMARK INTRA:                  -0.423
REMARK UNBOUND:                -1.239
REMARK  Name = 
REMARK  9 active torsions:
REMARK  status: ('A' for Active; 'I' for Inactive)
REMARK    1  A    between atoms: C_1  and  N_2
REMARK    2  A    between atoms: C_4  and  C_5
REMARK    3  A    between atoms: N_7  and  C_8
REMARK    4  A    between atoms: C_8  and  C_9
REMARK    5  A    between atoms: C_12  and  C_13
REMARK    6  A    between atoms: C_13  and  N_14
REMARK    7  A    between atoms: N_14  and  C_15
REMARK    8  A    between atoms: C_15  and  C_16
REMARK    9  A    between atoms: C_26  and  O_27
REMARK                            x       y       z     vdW  Elec       q    Type
REMARK                         _______ _______ _______ _____ _____    ______ ____
ROOT
ATOM      1  C   UNL     1      43.899   9.199  11.089  0.00  0.00    +0.000 C 
ENDROOT
BRANCH   1   2
ATOM      2  C   UNL     1      44.210   7.754  11.376  0.00  0.00    +0.000 A 
ATOM      3  C   UNL     1      45.540   7.311  11.369  0.00  0.00    +0.000 A 
ATOM      4  C   UNL     1      45.850   5.975  11.644  0.00  0.00    +0.000 A 
ATOM      5  C   UNL     1      44.834   5.052  11.932  0.00  0.00    +0.000 A 
ATOM      6  C   UNL     1      43.505   5.494  11.919  0.00  0.00    +0.000 A 
ATOM      7  C   UNL     1      43.194   6.827  11.638  0.00  0.00    +0.000 A 
BRANCH   5   8
ATOM      8  C   UNL     1      45.140   3.605  12.248  0.00  0.00    +0.000 C 
BRANCH   8   9
ATOM      9  N   UNL     1      44.379   2.708  11.383  0.00  0.00    +0.000 NA
ATOM     10  H   UNL     1      43.505   2.471  11.857  0.00  0.00    +0.000 HD
BRANCH   9  11
ATOM     11  C   UNL     1      44.039   3.356  10.111  0.00  0.00    +0.000 C 
BRANCH  11  12
ATOM     12  C   UNL     1      45.067   3.055   9.034  0.00  0.00    +0.000 A 
ATOM     13  C   UNL     1      45.589   4.082   8.245  0.00  0.00    +0.000 A 
ATOM     14  C   UNL     1      46.550   3.778   7.282  0.00  0.00    +0.000 A 
ATOM     15  C   UNL     1      46.955   2.460   7.124  0.00  0.00    +0.000 A 
ATOM     16 CL   UNL     1      48.129   2.038   5.946  0.00  0.00    +0.000 Cl
ATOM     17  C   UNL     1      46.384   1.496   7.940  0.00  0.00    +0.000 A 
ATOM     18  N   UNL     1      45.456   1.761   8.892  0.00  0.00    +0.000 NA
ENDBRANCH  11  12
ENDBRANCH   9  11
ENDBRANCH   8   9
ENDBRANCH   5   8
ENDBRANCH   1   2
BRANCH   1  21
ATOM     19  C   UNL     1      41.943  10.633  11.438  0.00  0.00    +0.000 C 
ATOM     20  O   UNL     1      42.619  11.559  11.881  0.00  0.00    +0.000 OA
ATOM     21  N   UNL     1      42.483   9.439  11.027  0.00  0.00    +0.000 N 
ATOM     22  H   UNL     1      41.889   8.721  10.640  0.00  0.00    +0.000 HD
BRANCH  19  26
ATOM     23  C   UNL     1      37.229  10.248   9.785  0.00  0.00    +0.000 C 
ATOM     24  N   UNL     1      38.377  10.576  10.599  0.00  0.00    +0.000 N 
ATOM     25  C   UNL     1      39.679  10.265  10.298  0.00  0.00    +0.000 A 
ATOM     26  C   UNL     1      40.493  10.738  11.320  0.00  0.00    +0.000 A 
ATOM     27  C   UNL     1      39.621  11.371  12.272  0.00  0.00    +0.000 A 
ATOM     28  C   UNL     1      39.750  12.039  13.494  0.00  0.00    +0.000 A 
ATOM     29  N   UNL     1      38.664  12.511  14.129  0.00  0.00    +0.000 NA
ATOM     30  C   UNL     1      37.469  12.316  13.546  0.00  0.00    +0.000 A 
ATOM     31  N   UNL     1      37.204  11.696  12.381  0.00  0.00    +0.000 NA
ATOM     32  C   UNL     1      38.323  11.246  11.791  0.00  0.00    +0.000 A 
BRANCH  28  33
ATOM     33  O   UNL     1      40.944  12.265  14.131  0.00  0.00    +0.000 OA
ATOM     34  H   UNL     1      41.615  12.466  13.449  0.00  0.00    +0.000 HD
ENDBRANCH  28  33
ENDBRANCH  19  26
ENDBRANCH   1  21
TORSDOF 8
ENDMDL
MODEL 8
REMARK VINA RESULT:    -6.778      4.714     10.193
REMARK INTER + INTRA:         -10.989
REMARK INTER:                  -9.760
REMARK INTRA:                  -1.229
REMARK UNBOUND:                -1.239
REMARK  Name = 
REMARK  9 active torsions:
REMARK  status: ('A' for Active; 'I' for Inactive)
REMARK    1  A    between atoms: C_1  and  N_2
REMARK    2  A    between atoms: C_4  and  C_5
REMARK    3  A    between atoms: N_7  and  C_8
REMARK    4  A    between atoms: C_8  and  C_9
REMARK    5  A    between atoms: C_12  and  C_13
REMARK    6  A    between atoms: C_13  and  N_14
REMARK    7  A    between atoms: N_14  and  C_15
REMARK    8  A    between atoms: C_15  and  C_16
REMARK    9  A    between atoms: C_26  and  O_27
REMARK                            x       y       z     vdW  Elec       q    Type
REMARK                         _______ _______ _______ _____ _____    ______ ____
ROOT
ATOM      1  C   UNL     1      47.322   3.410  16.935  0.00  0.00    +0.000 C 
ENDROOT
BRANCH   1   2
ATOM      2  C   UNL     1      48.804   3.335  17.196  0.00  0.00    +0.000 A 
ATOM      3  C   UNL     1      49.506   4.487  17.573  0.00  0.00    +0.000 A 
ATOM      4  C   UNL     1      50.880   4.435  17.830  0.00  0.00    +0.000 A 
ATOM      5  C   UNL     1      51.581   3.226  17.715  0.00  0.00    +0.000 A 
ATOM      6  C   UNL     1      50.880   2.080  17.319  0.00  0.00    +0.000 A 
ATOM      7  C   UNL     1      49.509   2.133  17.056  0.00  0.00    +0.000 A 
BRANCH   5   8
ATOM      8  C   UNL     1      53.063   3.136  18.002  0.00  0.00    +0.000 C 
BRANCH   8   9
ATOM      9  N   UNL     1      53.310   2.486  19.286  0.00  0.00    +0.000 NA
ATOM     10  H   UNL     1      53.865   1.645  19.118  0.00  0.00    +0.000 HD
BRANCH   9  11
ATOM     11  C   UNL     1      54.077   3.357  20.185  0.00  0.00    +0.000 C 
BRANCH  11  12
ATOM     12  C   UNL     1      53.281   4.585  20.593  0.00  0.00    +0.000 A 
ATOM     13  C   UNL     1      53.659   5.855  20.151  0.00  0.00    +0.000 A 
ATOM     14  C   UNL     1      52.893   6.960  20.522  0.00  0.00    +0.000 A 
ATOM     15  C   UNL     1      51.781   6.770  21.329  0.00  0.00    +0.000 A 
ATOM     16 CL   UNL     1      50.814   8.101  21.816  0.00  0.00    +0.000 Cl
ATOM     17  C   UNL     1      51.475   5.480  21.733  0.00  0.00    +0.000 A 
ATOM     18  N   UNL     1      52.193   4.385  21.382  0.00  0.00    +0.000 NA
ENDBRANCH  11  12
ENDBRANCH   9  11
ENDBRANCH   8   9
ENDBRANCH   5   8
ENDBRANCH   1   2
BRANCH   1  21
ATOM     19  C   UNL     1      46.983   4.196  14.639  0.00  0.00    +0.000 C 
ATOM     20  O   UNL     1      47.245   3.098  14.155  0.00  0.00    +0.000 OA
ATOM     21  N   UNL     1      46.996   4.443  15.990  0.00  0.00    +0.000 N 
ATOM     22  H   UNL     1      46.742   5.354  16.341  0.00  0.00    +0.000 HD
BRANCH  19  26
ATOM     23  C   UNL     1      47.100   8.590  12.235  0.00  0.00    +0.000 C 
ATOM     24  N   UNL     1      46.669   7.296  12.713  0.00  0.00    +0.000 N 
ATOM     25  C   UNL     1      47.367   6.498  13.583  0.00  0.00    +0.000 A 
ATOM     26  C   UNL     1      46.636   5.336  13.798  0.00  0.00    +0.000 A 
ATOM     27  C   UNL     1      45.436   5.462  13.016  0.00  0.00    +0.000 A 
ATOM     28  C   UNL     1      44.291   4.699  12.766  0.00  0.00    +0.000 A 
ATOM     29  N   UNL     1      43.337   5.155  11.937  0.00  0.00    +0.000 NA
ATOM     30  C   UNL     1      43.531   6.357  11.368  0.00  0.00    +0.000 A 
ATOM     31  N   UNL     1      44.577   7.190  11.521  0.00  0.00    +0.000 NA
ATOM     32  C   UNL     1      45.497   6.685  12.359  0.00  0.00    +0.000 A 
BRANCH  28  33
ATOM     33  O   UNL     1      44.044   3.468  13.320  0.00  0.00    +0.000 OA
ATOM     34  H   UNL     1      44.711   3.313  14.018  0.00  0.00    +0.000 HD
ENDBRANCH  28  33
ENDBRANCH  19  26
ENDBRANCH   1  21
TORSDOF 8
ENDMDL
MODEL 9
REMARK VINA RESULT:    -6.757      3.570      9.263
REMARK INTER + INTRA:         -10.958
REMARK INTER:                  -9.375
REMARK INTRA:                  -1.583
REMARK UNBOUND:                -1.239
REMARK  Name = 
REMARK  9 active torsions:
REMARK  status: ('A' for Active; 'I' for Inactive)
REMARK    1  A    between atoms: C_1  and  N_2
REMARK    2  A    between atoms: C_4  and  C_5
REMARK    3  A    between atoms: N_7  and  C_8
REMARK    4  A    between atoms: C_8  and  C_9
REMARK    5  A    between atoms: C_12  and  C_13
REMARK    6  A    between atoms: C_13  and  N_14
REMARK    7  A    between atoms: N_14  and  C_15
REMARK    8  A    between atoms: C_15  and  C_16
REMARK    9  A    between atoms: C_26  and  O_27
REMARK                            x       y       z     vdW  Elec       q    Type
REMARK                         _______ _______ _______ _____ _____    ______ ____
ROOT
ATOM      1  C   UNL     1      47.455   3.599  16.679  0.00  0.00    +0.000 C 
ENDROOT
BRANCH   1   2
ATOM      2  C   UNL     1      47.814   4.337  17.942  0.00  0.00    +0.000 A 
ATOM      3  C   UNL     1      49.003   4.030  18.616  0.00  0.00    +0.000 A 
ATOM      4  C   UNL     1      49.359   4.713  19.784  0.00  0.00    +0.000 A 
ATOM      5  C   UNL     1      48.531   5.718  20.303  0.00  0.00    +0.000 A 
ATOM      6  C   UNL     1      47.333   6.009  19.637  0.00  0.00    +0.000 A 
ATOM      7  C   UNL     1      46.973   5.323  18.474  0.00  0.00    +0.000 A 
BRANCH   5   8
ATOM      8  C   UNL     1      48.896   6.484  21.555  0.00  0.00    +0.000 C 
BRANCH   8   9
ATOM      9  N   UNL     1      48.806   7.925  21.333  0.00  0.00    +0.000 NA
ATOM     10  H   UNL     1      48.859   8.392  22.240  0.00  0.00    +0.000 HD
BRANCH   9  11
ATOM     11  C   UNL     1      49.925   8.408  20.514  0.00  0.00    +0.000 C 
BRANCH  11  12
ATOM     12  C   UNL     1      49.514   8.609  19.065  0.00  0.00    +0.000 A 
ATOM     13  C   UNL     1      50.207   7.968  18.036  0.00  0.00    +0.000 A 
ATOM     14  C   UNL     1      49.790   8.151  16.718  0.00  0.00    +0.000 A 
ATOM     15  C   UNL     1      48.705   8.976  16.462  0.00  0.00    +0.000 A 
ATOM     16 CL   UNL     1      48.162   9.238  14.855  0.00  0.00    +0.000 Cl
ATOM     17  C   UNL     1      48.074   9.584  17.536  0.00  0.00    +0.000 A 
ATOM     18  N   UNL     1      48.448   9.418  18.829  0.00  0.00    +0.000 NA
ENDBRANCH  11  12
ENDBRANCH   9  11
ENDBRANCH   8   9
ENDBRANCH   5   8
ENDBRANCH   1   2
BRANCH   1  21
ATOM     19  C   UNL     1      46.818   4.151  14.378  0.00  0.00    +0.000 C 
ATOM     20  O   UNL     1      47.344   3.139  13.921  0.00  0.00    +0.000 OA
ATOM     21  N   UNL     1      46.823   4.460  15.716  0.00  0.00    +0.000 N 
ATOM     22  H   UNL     1      46.349   5.287  16.048  0.00  0.00    +0.000 HD
BRANCH  19  26
ATOM     23  C   UNL     1      45.443   8.382  12.075  0.00  0.00    +0.000 C 
ATOM     24  N   UNL     1      45.513   6.995  12.474  0.00  0.00    +0.000 N 
ATOM     25  C   UNL     1      46.369   6.481  13.414  0.00  0.00    +0.000 A 
ATOM     26  C   UNL     1      46.142   5.114  13.516  0.00  0.00    +0.000 A 
ATOM     27  C   UNL     1      45.088   4.808  12.588  0.00  0.00    +0.000 A 
ATOM     28  C   UNL     1      44.377   3.674  12.182  0.00  0.00    +0.000 A 
ATOM     29  N   UNL     1      43.421   3.771  11.243  0.00  0.00    +0.000 NA
ATOM     30  C   UNL     1      43.182   4.987  10.722  0.00  0.00    +0.000 A 
ATOM     31  N   UNL     1      43.785   6.152  11.020  0.00  0.00    +0.000 NA
ATOM     32  C   UNL     1      44.730   5.996  11.963  0.00  0.00    +0.000 A 
BRANCH  28  33
ATOM     33  O   UNL     1      44.581   2.412  12.681  0.00  0.00    +0.000 OA
ATOM     34  H   UNL     1      45.468   2.115  12.395  0.00  0.00    +0.000 HD
ENDBRANCH  28  33
ENDBRANCH  19  26
ENDBRANCH   1  21
TORSDOF 8
ENDMDL
