MODEL 1
REMARK VINA RESULT:    -7.678      0.000      0.000
REMARK INTER + INTRA:         -11.634
REMARK INTER:                 -10.819
REMARK INTRA:                  -0.814
REMARK UNBOUND:                -0.814
REMARK  Name = 
REMARK  12 active torsions:
REMARK  status: ('A' for Active; 'I' for Inactive)
REMARK    1  A    between atoms: C_1  and  C_2
REMARK    2  A    between atoms: C_4  and  C_5
REMARK    3  A    between atoms: C_7  and  O_8
REMARK    4  A    between atoms: O_8  and  C_9
REMARK    5  A    between atoms: C_9  and  C_10
REMARK    6  A    between atoms: C_10  and  C_11
REMARK    7  A    between atoms: C_10  and  C_12
REMARK    8  A    between atoms: C_16  and  O_17
REMARK    9  A    between atoms: O_17  and  C_18
REMARK   10  A    between atoms: N_20  and  S_21
REMARK   11  A    between atoms: S_21  and  C_22
REMARK   12  A    between atoms: C_26  and  C_27
REMARK                            x       y       z     vdW  Elec       q    Type
REMARK                         _______ _______ _______ _____ _____    ______ ____
ROOT
ATOM      1  C   UNL     1      44.994   5.079  12.088  0.00  0.00    +0.000 A 
ATOM      2  C   UNL     1      45.777   6.139  11.608  0.00  0.00    +0.000 A 
ATOM      3  C   UNL     1      46.962   6.505  12.254  0.00  0.00    +0.000 A 
ATOM      4  C   UNL     1      47.365   5.847  13.419  0.00  0.00    +0.000 A 
ATOM      5  C   UNL     1      46.553   4.858  13.963  0.00  0.00    +0.000 A 
ATOM      6  C   UNL     1      45.382   4.488  13.296  0.00  0.00    +0.000 A 
ENDROOT
BRANCH   1   7
ATOM      7  C   UNL     1      43.781   4.601  11.291  0.00  0.00    +0.000 C 
ATOM      8  C   UNL     1      42.656   5.645  11.399  0.00  0.00    +0.000 C 
BRANCH   7   9
ATOM      9  C   UNL     1      44.023   4.331   9.787  0.00  0.00    +0.000 C 
BRANCH   9  10
ATOM     10  O   UNL     1      44.171   2.923   9.562  0.00  0.00    +0.000 OA
BRANCH  10  17
ATOM     11  C   UNL     1      47.052   3.920   5.666  0.00  0.00    +0.000 C 
ATOM     12  C   UNL     1      46.547   2.979   6.718  0.00  0.00    +0.000 A 
ATOM     13  C   UNL     1      46.948   1.637   6.744  0.00  0.00    +0.000 A 
ATOM     14  C   UNL     1      46.443   0.759   7.710  0.00  0.00    +0.000 A 
ATOM     15  C   UNL     1      46.870  -0.680   7.741  0.00  0.00    +0.000 C 
ATOM     16  C   UNL     1      45.530   1.241   8.657  0.00  0.00    +0.000 A 
ATOM     17  C   UNL     1      45.127   2.577   8.645  0.00  0.00    +0.000 A 
ATOM     18  C   UNL     1      45.640   3.444   7.680  0.00  0.00    +0.000 A 
ENDBRANCH  10  17
ENDBRANCH   9  10
ENDBRANCH   7   9
ENDBRANCH   1   7
BRANCH   5  19
ATOM     19  O   UNL     1      46.739   4.191  15.133  0.00  0.00    +0.000 OA
BRANCH  19  20
ATOM     20  C   UNL     1      48.058   3.995  15.651  0.00  0.00    +0.000 C 
ATOM     21  C   UNL     1      48.351   5.200  16.573  0.00  0.00    +0.000 C 
ATOM     22  N   UNL     1      47.741   4.824  17.868  0.00  0.00    +0.000 NA
ATOM     23  C   UNL     1      47.380   3.395  17.866  0.00  0.00    +0.000 C 
ATOM     24  C   UNL     1      48.085   2.817  16.633  0.00  0.00    +0.000 C 
ATOM     25  C   UNL     1      49.509   2.364  16.956  0.00  0.00    +0.000 C 
BRANCH  22  26
ATOM     26  S   UNL     1      48.127   5.622  19.278  0.00  0.00    +0.000 S 
ATOM     27  C   UNL     1      48.812   7.160  18.697  0.00  0.00    +0.000 C 
ATOM     28  O   UNL     1      46.893   5.927  19.967  0.00  0.00    +0.000 OA
ATOM     29  O   UNL     1      49.196   4.890  19.924  0.00  0.00    +0.000 OA
ENDBRANCH  22  26
ENDBRANCH  19  20
ENDBRANCH   5  19
TORSDOF 7
ENDMDL
MODEL 2
REMARK VINA RESULT:    -7.552      3.404      7.922
REMARK INTER + INTRA:         -11.456
REMARK INTER:                  -9.623
REMARK INTRA:                  -1.834
REMARK UNBOUND:                -0.814
REMARK  Name = 
REMARK  12 active torsions:
REMARK  status: ('A' for Active; 'I' for Inactive)
REMARK    1  A    between atoms: C_1  and  C_2
REMARK    2  A    between atoms: C_4  and  C_5
REMARK    3  A    between atoms: C_7  and  O_8
REMARK    4  A    between atoms: O_8  and  C_9
REMARK    5  A    between atoms: C_9  and  C_10
REMARK    6  A    between atoms: C_10  and  C_11
REMARK    7  A    between atoms: C_10  and  C_12
REMARK    8  A    between atoms: C_16  and  O_17
REMARK    9  A    between atoms: O_17  and  C_18
REMARK   10  A    between atoms: N_20  and  S_21
REMARK   11  A    between atoms: S_21  and  C_22
REMARK   12  A    between atoms: C_26  and  C_27
REMARK                            x       y       z     vdW  Elec       q    Type
REMARK                         _______ _______ _______ _____ _____    ______ ____
ROOT
ATOM      1  C   UNL     1      49.134   5.382  17.155  0.00  0.00    +0.000 A 
ATOM      2  C   UNL     1      49.553   4.279  17.914  0.00  0.00    +0.000 A 
ATOM      3  C   UNL     1      49.042   3.001  17.663  0.00  0.00    +0.000 A 
ATOM      4  C   UNL     1      48.070   2.808  16.679  0.00  0.00    +0.000 A 
ATOM      5  C   UNL     1      47.574   3.904  15.981  0.00  0.00    +0.000 A 
ATOM      6  C   UNL     1      48.107   5.172  16.227  0.00  0.00    +0.000 A 
ENDROOT
BRANCH   1   7
ATOM      7  C   UNL     1      49.805   6.742  17.345  0.00  0.00    +0.000 C 
ATOM      8  C   UNL     1      51.097   6.563  18.162  0.00  0.00    +0.000 C 
BRANCH   7   9
ATOM      9  C   UNL     1      50.174   7.502  16.049  0.00  0.00    +0.000 C 
BRANCH   9  10
ATOM     10  O   UNL     1      49.032   8.216  15.560  0.00  0.00    +0.000 OA
BRANCH  10  17
ATOM     11  C   UNL     1      50.915   7.639  11.022  0.00  0.00    +0.000 C 
ATOM     12  C   UNL     1      49.882   8.199  11.953  0.00  0.00    +0.000 A 
ATOM     13  C   UNL     1      48.882   9.064  11.490  0.00  0.00    +0.000 A 
ATOM     14  C   UNL     1      47.942   9.609  12.374  0.00  0.00    +0.000 A 
ATOM     15  C   UNL     1      46.870  10.536  11.883  0.00  0.00    +0.000 C 
ATOM     16  C   UNL     1      48.014   9.275  13.734  0.00  0.00    +0.000 A 
ATOM     17  C   UNL     1      49.003   8.410  14.205  0.00  0.00    +0.000 A 
ATOM     18  C   UNL     1      49.930   7.870  13.314  0.00  0.00    +0.000 A 
ENDBRANCH  10  17
ENDBRANCH   9  10
ENDBRANCH   7   9
ENDBRANCH   1   7
BRANCH   5  19
ATOM     19  O   UNL     1      46.565   3.912  15.069  0.00  0.00    +0.000 OA
BRANCH  19  20
ATOM     20  C   UNL     1      46.830   4.246  13.704  0.00  0.00    +0.000 C 
ATOM     21  C   UNL     1      46.011   3.259  12.844  0.00  0.00    +0.000 C 
ATOM     22  N   UNL     1      44.664   3.866  12.774  0.00  0.00    +0.000 NA
ATOM     23  C   UNL     1      44.705   5.255  13.266  0.00  0.00    +0.000 C 
ATOM     24  C   UNL     1      46.198   5.597  13.344  0.00  0.00    +0.000 C 
ATOM     25  C   UNL     1      46.722   6.147  12.017  0.00  0.00    +0.000 C 
BRANCH  22  26
ATOM     26  S   UNL     1      43.542   3.377  11.645  0.00  0.00    +0.000 S 
ATOM     27  C   UNL     1      44.519   3.177  10.168  0.00  0.00    +0.000 C 
ATOM     28  O   UNL     1      43.064   2.070  12.031  0.00  0.00    +0.000 OA
ATOM     29  O   UNL     1      42.634   4.481  11.414  0.00  0.00    +0.000 OA
ENDBRANCH  22  26
ENDBRANCH  19  20
ENDBRANCH   5  19
TORSDOF 7
ENDMDL
MODEL 3
REMARK VINA RESULT:    -7.542      2.405      3.947
REMARK INTER + INTRA:         -11.443
REMARK INTER:                 -10.378
REMARK INTRA:                  -1.064
REMARK UNBOUND:                -0.814
REMARK  Name = 
REMARK  12 active torsions:
REMARK  status: ('A' for Active; 'I' for Inactive)
REMARK    1  A    between atoms: C_1  and  C_2
REMARK    2  A    between atoms: C_4  and  C_5
REMARK    3  A    between atoms: C_7  and  O_8
REMARK    4  A    between atoms: O_8  and  C_9
REMARK    5  A    between atoms: C_9  and  C_10
REMARK    6  A    between atoms: C_10  and  C_11
REMARK    7  A    between atoms: C_10  and  C_12
REMARK    8  A    between atoms: C_16  and  O_17
REMARK    9  A    between atoms: O_17  and  C_18
REMARK   10  A    between atoms: N_20  and  S_21
REMARK   11  A    between atoms: S_21  and  C_22
REMARK   12  A    between atoms: C_26  and  C_27
REMARK                            x       y       z     vdW  Elec       q    Type
REMARK                         _______ _______ _______ _____ _____    ______ ____
ROOT
ATOM      1  C   UNL     1      47.091   8.438  12.939  0.00  0.00    +0.000 A 
ATOM      2  C   UNL     1      47.881   9.231  12.093  0.00  0.00    +0.000 A 
ATOM      3  C   UNL     1      49.277   9.142  12.125  0.00  0.00    +0.000 A 
ATOM      4  C   UNL     1      49.912   8.291  13.033  0.00  0.00    +0.000 A 
ATOM      5  C   UNL     1      49.148   7.569  13.943  0.00  0.00    +0.000 A 
ATOM      6  C   UNL     1      47.754   7.652  13.888  0.00  0.00    +0.000 A 
ENDROOT
BRANCH   1   7
ATOM      7  C   UNL     1      45.570   8.444  12.793  0.00  0.00    +0.000 C 
ATOM      8  C   UNL     1      45.144   9.652  11.941  0.00  0.00    +0.000 C 
BRANCH   7   9
ATOM      9  C   UNL     1      44.947   7.180  12.153  0.00  0.00    +0.000 C 
BRANCH   9  10
ATOM     10  O   UNL     1      45.740   6.756  11.038  0.00  0.00    +0.000 OA
BRANCH  10  17
ATOM     11  C   UNL     1      45.636   3.440   7.367  0.00  0.00    +0.000 C 
ATOM     12  C   UNL     1      45.299   3.860   8.767  0.00  0.00    +0.000 A 
ATOM     13  C   UNL     1      44.521   3.046   9.601  0.00  0.00    +0.000 A 
ATOM     14  C   UNL     1      44.185   3.464  10.894  0.00  0.00    +0.000 A 
ATOM     15  C   UNL     1      43.352   2.596  11.791  0.00  0.00    +0.000 C 
ATOM     16  C   UNL     1      44.639   4.710  11.347  0.00  0.00    +0.000 A 
ATOM     17  C   UNL     1      45.419   5.527  10.527  0.00  0.00    +0.000 A 
ATOM     18  C   UNL     1      45.752   5.098   9.242  0.00  0.00    +0.000 A 
ENDBRANCH  10  17
ENDBRANCH   9  10
ENDBRANCH   7   9
ENDBRANCH   1   7
BRANCH   5  19
ATOM     19  O   UNL     1      49.600   6.777  14.953  0.00  0.00    +0.000 OA
BRANCH  19  20
ATOM     20  C   UNL     1      48.792   6.555  16.112  0.00  0.00    +0.000 C 
ATOM     21  C   UNL     1      48.341   5.079  16.057  0.00  0.00    +0.000 C 
ATOM     22  N   UNL     1      49.471   4.330  16.649  0.00  0.00    +0.000 NA
ATOM     23  C   UNL     1      50.408   5.257  17.309  0.00  0.00    +0.000 C 
ATOM     24  C   UNL     1      49.650   6.589  17.384  0.00  0.00    +0.000 C 
ATOM     25  C   UNL     1      48.802   6.685  18.653  0.00  0.00    +0.000 C 
BRANCH  22  26
ATOM     26  S   UNL     1      49.301   2.755  17.162  0.00  0.00    +0.000 S 
ATOM     27  C   UNL     1      50.960   2.303  17.631  0.00  0.00    +0.000 C 
ATOM     28  O   UNL     1      48.497   2.763  18.363  0.00  0.00    +0.000 OA
ATOM     29  O   UNL     1      48.943   1.950  16.014  0.00  0.00    +0.000 OA
ENDBRANCH  22  26
ENDBRANCH  19  20
ENDBRANCH   5  19
TORSDOF 7
ENDMDL
MODEL 4
REMARK VINA RESULT:    -7.265      1.634      2.382
REMARK INTER + INTRA:         -11.053
REMARK INTER:                  -9.986
REMARK INTRA:                  -1.066
REMARK UNBOUND:                -0.814
REMARK  Name = 
REMARK  12 active torsions:
REMARK  status: ('A' for Active; 'I' for Inactive)
REMARK    1  A    between atoms: C_1  and  C_2
REMARK    2  A    between atoms: C_4  and  C_5
REMARK    3  A    between atoms: C_7  and  O_8
REMARK    4  A    between atoms: O_8  and  C_9
REMARK    5  A    between atoms: C_9  and  C_10
REMARK    6  A    between atoms: C_10  and  C_11
REMARK    7  A    between atoms: C_10  and  C_12
REMARK    8  A    between atoms: C_16  and  O_17
REMARK    9  A    between atoms: O_17  and  C_18
REMARK   10  A    between atoms: N_20  and  S_21
REMARK   11  A    between atoms: S_21  and  C_22
REMARK   12  A    between atoms: C_26  and  C_27
REMARK                            x       y       z     vdW  Elec       q    Type
REMARK                         _______ _______ _______ _____ _____    ______ ____
ROOT
ATOM      1  C   UNL     1      45.410   5.193  12.264  0.00  0.00    +0.000 A 
ATOM      2  C   UNL     1      45.288   6.424  11.603  0.00  0.00    +0.000 A 
ATOM      3  C   UNL     1      46.246   7.429  11.777  0.00  0.00    +0.000 A 
ATOM      4  C   UNL     1      47.319   7.240  12.651  0.00  0.00    +0.000 A 
ATOM      5  C   UNL     1      47.404   6.063  13.387  0.00  0.00    +0.000 A 
ATOM      6  C   UNL     1      46.452   5.059  13.188  0.00  0.00    +0.000 A 
ENDROOT
BRANCH   1   7
ATOM      7  C   UNL     1      44.435   4.058  11.953  0.00  0.00    +0.000 C 
ATOM      8  C   UNL     1      43.121   4.647  11.411  0.00  0.00    +0.000 C 
BRANCH   7   9
ATOM      9  C   UNL     1      44.929   3.002  10.935  0.00  0.00    +0.000 C 
BRANCH   9  10
ATOM     10  O   UNL     1      44.605   3.420   9.603  0.00  0.00    +0.000 OA
BRANCH  10  17
ATOM     11  C   UNL     1      47.065   3.816   5.329  0.00  0.00    +0.000 C 
ATOM     12  C   UNL     1      46.614   3.017   6.516  0.00  0.00    +0.000 A 
ATOM     13  C   UNL     1      46.902   1.650   6.621  0.00  0.00    +0.000 A 
ATOM     14  C   UNL     1      46.447   0.906   7.716  0.00  0.00    +0.000 A 
ATOM     15  C   UNL     1      46.753  -0.559   7.833  0.00  0.00    +0.000 C 
ATOM     16  C   UNL     1      45.698   1.548   8.712  0.00  0.00    +0.000 A 
ATOM     17  C   UNL     1      45.410   2.911   8.620  0.00  0.00    +0.000 A 
ATOM     18  C   UNL     1      45.873   3.643   7.527  0.00  0.00    +0.000 A 
ENDBRANCH  10  17
ENDBRANCH   9  10
ENDBRANCH   7   9
ENDBRANCH   1   7
BRANCH   5  19
ATOM     19  O   UNL     1      48.317   5.756  14.347  0.00  0.00    +0.000 OA
BRANCH  19  20
ATOM     20  C   UNL     1      48.114   6.179  15.698  0.00  0.00    +0.000 C 
ATOM     21  C   UNL     1      48.518   4.989  16.596  0.00  0.00    +0.000 C 
ATOM     22  N   UNL     1      49.986   5.119  16.733  0.00  0.00    +0.000 NA
ATOM     23  C   UNL     1      50.430   6.435  16.241  0.00  0.00    +0.000 C 
ATOM     24  C   UNL     1      49.140   7.250  16.090  0.00  0.00    +0.000 C 
ATOM     25  C   UNL     1      48.766   7.963  17.391  0.00  0.00    +0.000 C 
BRANCH  22  26
ATOM     26  S   UNL     1      50.828   4.303  17.916  0.00  0.00    +0.000 S 
ATOM     27  C   UNL     1      52.516   4.790  17.617  0.00  0.00    +0.000 C 
ATOM     28  O   UNL     1      50.437   4.849  19.196  0.00  0.00    +0.000 OA
ATOM     29  O   UNL     1      50.732   2.887  17.633  0.00  0.00    +0.000 OA
ENDBRANCH  22  26
ENDBRANCH  19  20
ENDBRANCH   5  19
TORSDOF 7
ENDMDL
MODEL 5
REMARK VINA RESULT:    -7.251      3.292      8.823
REMARK INTER + INTRA:         -11.033
REMARK INTER:                  -8.794
REMARK INTRA:                  -2.238
REMARK UNBOUND:                -0.814
REMARK  Name = 
REMARK  12 active torsions:
REMARK  status: ('A' for Active; 'I' for Inactive)
REMARK    1  A    between atoms: C_1  and  C_2
REMARK    2  A    between atoms: C_4  and  C_5
REMARK    3  A    between atoms: C_7  and  O_8
REMARK    4  A    between atoms: O_8  and  C_9
REMARK    5  A    between atoms: C_9  and  C_10
REMARK    6  A    between atoms: C_10  and  C_11
REMARK    7  A    between atoms: C_10  and  C_12
REMARK    8  A    between atoms: C_16  and  O_17
REMARK    9  A    between atoms: O_17  and  C_18
REMARK   10  A    between atoms: N_20  and  S_21
REMARK   11  A    between atoms: S_21  and  C_22
REMARK   12  A    between atoms: C_26  and  C_27
REMARK                            x       y       z     vdW  Elec       q    Type
REMARK                         _______ _______ _______ _____ _____    ______ ____
ROOT
ATOM      1  C   UNL     1      47.824   4.449  18.338  0.00  0.00    +0.000 A 
ATOM      2  C   UNL     1      48.846   3.492  18.254  0.00  0.00    +0.000 A 
ATOM      3  C   UNL     1      49.090   2.807  17.058  0.00  0.00    +0.000 A 
ATOM      4  C   UNL     1      48.288   3.033  15.937  0.00  0.00    +0.000 A 
ATOM      5  C   UNL     1      47.212   3.908  16.030  0.00  0.00    +0.000 A 
ATOM      6  C   UNL     1      46.991   4.601  17.223  0.00  0.00    +0.000 A 
ENDROOT
BRANCH   1   7
ATOM      7  C   UNL     1      47.664   5.288  19.604  0.00  0.00    +0.000 C 
ATOM      8  C   UNL     1      48.744   4.885  20.624  0.00  0.00    +0.000 C 
BRANCH   7   9
ATOM      9  C   UNL     1      47.751   6.822  19.416  0.00  0.00    +0.000 C 
BRANCH   9  10
ATOM     10  O   UNL     1      49.122   7.234  19.386  0.00  0.00    +0.000 OA
BRANCH  10  17
ATOM     11  C   UNL     1      49.051   8.118  14.519  0.00  0.00    +0.000 C 
ATOM     12  C   UNL     1      49.735   7.602  15.750  0.00  0.00    +0.000 A 
ATOM     13  C   UNL     1      50.983   6.969  15.674  0.00  0.00    +0.000 A 
ATOM     14  C   UNL     1      51.597   6.461  16.825  0.00  0.00    +0.000 A 
ATOM     15  C   UNL     1      52.933   5.782  16.749  0.00  0.00    +0.000 C 
ATOM     16  C   UNL     1      50.947   6.595  18.060  0.00  0.00    +0.000 A 
ATOM     17  C   UNL     1      49.706   7.228  18.148  0.00  0.00    +0.000 A 
ATOM     18  C   UNL     1      49.106   7.735  16.995  0.00  0.00    +0.000 A 
ENDBRANCH  10  17
ENDBRANCH   9  10
ENDBRANCH   7   9
ENDBRANCH   1   7
BRANCH   5  19
ATOM     19  O   UNL     1      46.277   4.168  15.076  0.00  0.00    +0.000 OA
BRANCH  19  20
ATOM     20  C   UNL     1      46.676   4.440  13.730  0.00  0.00    +0.000 C 
ATOM     21  C   UNL     1      45.773   3.578  12.822  0.00  0.00    +0.000 C 
ATOM     22  N   UNL     1      44.541   4.382  12.664  0.00  0.00    +0.000 NA
ATOM     23  C   UNL     1      44.761   5.754  13.153  0.00  0.00    +0.000 C 
ATOM     24  C   UNL     1      46.281   5.867  13.326  0.00  0.00    +0.000 C 
ATOM     25  C   UNL     1      46.965   6.315  12.034  0.00  0.00    +0.000 C 
BRANCH  22  26
ATOM     26  S   UNL     1      43.432   4.054  11.465  0.00  0.00    +0.000 S 
ATOM     27  C   UNL     1      44.366   4.315   9.970  0.00  0.00    +0.000 C 
ATOM     28  O   UNL     1      43.105   2.648  11.534  0.00  0.00    +0.000 OA
ATOM     29  O   UNL     1      42.407   5.075  11.516  0.00  0.00    +0.000 OA
ENDBRANCH  22  26
ENDBRANCH  19  20
ENDBRANCH   5  19
TORSDOF 7
ENDMDL
MODEL 6
REMARK VINA RESULT:    -7.132      3.244      8.691
REMARK INTER + INTRA:         -10.865
REMARK INTER:                  -9.590
REMARK INTRA:                  -1.275
REMARK UNBOUND:                -0.814
REMARK  Name = 
REMARK  12 active torsions:
REMARK  status: ('A' for Active; 'I' for Inactive)
REMARK    1  A    between atoms: C_1  and  C_2
REMARK    2  A    between atoms: C_4  and  C_5
REMARK    3  A    between atoms: C_7  and  O_8
REMARK    4  A    between atoms: O_8  and  C_9
REMARK    5  A    between atoms: C_9  and  C_10
REMARK    6  A    between atoms: C_10  and  C_11
REMARK    7  A    between atoms: C_10  and  C_12
REMARK    8  A    between atoms: C_16  and  O_17
REMARK    9  A    between atoms: O_17  and  C_18
REMARK   10  A    between atoms: N_20  and  S_21
REMARK   11  A    between atoms: S_21  and  C_22
REMARK   12  A    between atoms: C_26  and  C_27
REMARK                            x       y       z     vdW  Elec       q    Type
REMARK                         _______ _______ _______ _____ _____    ______ ____
ROOT
ATOM      1  C   UNL     1      49.208   7.954  14.819  0.00  0.00    +0.000 A 
ATOM      2  C   UNL     1      50.011   8.418  13.767  0.00  0.00    +0.000 A 
ATOM      3  C   UNL     1      49.784   7.997  12.452  0.00  0.00    +0.000 A 
ATOM      4  C   UNL     1      48.779   7.069  12.170  0.00  0.00    +0.000 A 
ATOM      5  C   UNL     1      48.035   6.527  13.212  0.00  0.00    +0.000 A 
ATOM      6  C   UNL     1      48.258   6.971  14.519  0.00  0.00    +0.000 A 
ENDROOT
BRANCH   1   7
ATOM      7  C   UNL     1      49.377   8.533  16.223  0.00  0.00    +0.000 C 
ATOM      8  C   UNL     1      48.301   9.606  16.466  0.00  0.00    +0.000 C 
BRANCH   7   9
ATOM      9  C   UNL     1      49.295   7.517  17.388  0.00  0.00    +0.000 C 
BRANCH   9  10
ATOM     10  O   UNL     1      50.446   6.664  17.374  0.00  0.00    +0.000 OA
BRANCH  10  17
ATOM     11  C   UNL     1      47.311   2.838  17.472  0.00  0.00    +0.000 C 
ATOM     12  C   UNL     1      48.704   3.394  17.460  0.00  0.00    +0.000 A 
ATOM     13  C   UNL     1      49.820   2.556  17.577  0.00  0.00    +0.000 A 
ATOM     14  C   UNL     1      51.115   3.089  17.599  0.00  0.00    +0.000 A 
ATOM     15  C   UNL     1      52.314   2.196  17.724  0.00  0.00    +0.000 C 
ATOM     16  C   UNL     1      51.281   4.477  17.502  0.00  0.00    +0.000 A 
ATOM     17  C   UNL     1      50.176   5.322  17.380  0.00  0.00    +0.000 A 
ATOM     18  C   UNL     1      48.892   4.779  17.354  0.00  0.00    +0.000 A 
ENDBRANCH  10  17
ENDBRANCH   9  10
ENDBRANCH   7   9
ENDBRANCH   1   7
BRANCH   5  19
ATOM     19  O   UNL     1      47.095   5.548  13.131  0.00  0.00    +0.000 OA
BRANCH  19  20
ATOM     20  C   UNL     1      45.737   5.875  12.824  0.00  0.00    +0.000 C 
ATOM     21  C   UNL     1      45.648   5.983  11.286  0.00  0.00    +0.000 C 
ATOM     22  N   UNL     1      45.458   4.587  10.833  0.00  0.00    +0.000 NA
ATOM     23  C   UNL     1      45.135   3.719  11.979  0.00  0.00    +0.000 C 
ATOM     24  C   UNL     1      44.812   4.688  13.123  0.00  0.00    +0.000 C 
ATOM     25  C   UNL     1      43.336   5.088  13.125  0.00  0.00    +0.000 C 
BRANCH  22  26
ATOM     26  S   UNL     1      44.924   4.233   9.295  0.00  0.00    +0.000 S 
ATOM     27  C   UNL     1      44.966   2.453   9.255  0.00  0.00    +0.000 C 
ATOM     28  O   UNL     1      43.540   4.639   9.202  0.00  0.00    +0.000 OA
ATOM     29  O   UNL     1      45.920   4.709   8.359  0.00  0.00    +0.000 OA
ENDBRANCH  22  26
ENDBRANCH  19  20
ENDBRANCH   5  19
TORSDOF 7
ENDMDL
MODEL 7
REMARK VINA RESULT:    -7.018      3.792      8.692
REMARK INTER + INTRA:         -10.704
REMARK INTER:                  -8.788
REMARK INTRA:                  -1.915
REMARK UNBOUND:                -0.814
REMARK  Name = 
REMARK  12 active torsions:
REMARK  status: ('A' for Active; 'I' for Inactive)
REMARK    1  A    between atoms: C_1  and  C_2
REMARK    2  A    between atoms: C_4  and  C_5
REMARK    3  A    between atoms: C_7  and  O_8
REMARK    4  A    between atoms: O_8  and  C_9
REMARK    5  A    between atoms: C_9  and  C_10
REMARK    6  A    between atoms: C_10  and  C_11
REMARK    7  A    between atoms: C_10  and  C_12
REMARK    8  A    between atoms: C_16  and  O_17
REMARK    9  A    between atoms: O_17  and  C_18
REMARK   10  A    between atoms: N_20  and  S_21
REMARK   11  A    between atoms: S_21  and  C_22
REMARK   12  A    between atoms: C_26  and  C_27
REMARK                            x       y       z     vdW  Elec       q    Type
REMARK                         _______ _______ _______ _____ _____    ______ ____
ROOT
ATOM      1  C   UNL     1      47.866   5.042  18.536  0.00  0.00    +0.000 A 
ATOM      2  C   UNL     1      48.875   4.101  18.791  0.00  0.00    +0.000 A 
ATOM      3  C   UNL     1      49.192   3.117  17.849  0.00  0.00    +0.000 A 
ATOM      4  C   UNL     1      48.477   3.026  16.653  0.00  0.00    +0.000 A 
ATOM      5  C   UNL     1      47.411   3.890  16.424  0.00  0.00    +0.000 A 
ATOM      6  C   UNL     1      47.118   4.882  17.364  0.00  0.00    +0.000 A 
ENDROOT
BRANCH   1   7
ATOM      7  C   UNL     1      47.631   6.195  19.511  0.00  0.00    +0.000 C 
ATOM      8  C   UNL     1      47.761   5.677  20.954  0.00  0.00    +0.000 C 
BRANCH   7   9
ATOM      9  C   UNL     1      48.577   7.410  19.364  0.00  0.00    +0.000 C 
BRANCH   9  10
ATOM     10  O   UNL     1      48.177   8.208  18.243  0.00  0.00    +0.000 OA
BRANCH  10  17
ATOM     11  C   UNL     1      52.366   6.876  15.974  0.00  0.00    +0.000 C 
ATOM     12  C   UNL     1      50.995   7.482  15.948  0.00  0.00    +0.000 A 
ATOM     13  C   UNL     1      50.482   8.065  14.782  0.00  0.00    +0.000 A 
ATOM     14  C   UNL     1      49.213   8.658  14.779  0.00  0.00    +0.000 A 
ATOM     15  C   UNL     1      48.659   9.284  13.532  0.00  0.00    +0.000 C 
ATOM     16  C   UNL     1      48.460   8.661  15.960  0.00  0.00    +0.000 A 
ATOM     17  C   UNL     1      48.959   8.078  17.127  0.00  0.00    +0.000 A 
ATOM     18  C   UNL     1      50.221   7.486  17.117  0.00  0.00    +0.000 A 
ENDBRANCH  10  17
ENDBRANCH   9  10
ENDBRANCH   7   9
ENDBRANCH   1   7
BRANCH   5  19
ATOM     19  O   UNL     1      46.552   3.878  15.370  0.00  0.00    +0.000 OA
BRANCH  19  20
ATOM     20  C   UNL     1      47.005   4.249  14.065  0.00  0.00    +0.000 C 
ATOM     21  C   UNL     1      46.364   3.251  13.077  0.00  0.00    +0.000 C 
ATOM     22  N   UNL     1      45.020   3.810  12.815  0.00  0.00    +0.000 NA
ATOM     23  C   UNL     1      44.932   5.189  13.328  0.00  0.00    +0.000 C 
ATOM     24  C   UNL     1      46.381   5.584  13.635  0.00  0.00    +0.000 C 
ATOM     25  C   UNL     1      47.076   6.181  12.410  0.00  0.00    +0.000 C 
BRANCH  22  26
ATOM     26  S   UNL     1      44.100   3.304  11.521  0.00  0.00    +0.000 S 
ATOM     27  C   UNL     1      43.209   4.776  11.060  0.00  0.00    +0.000 C 
ATOM     28  O   UNL     1      44.999   2.981  10.437  0.00  0.00    +0.000 OA
ATOM     29  O   UNL     1      43.130   2.349  12.013  0.00  0.00    +0.000 OA
ENDBRANCH  22  26
ENDBRANCH  19  20
ENDBRANCH   5  19
TORSDOF 7
ENDMDL
MODEL 8
REMARK VINA RESULT:    -6.876      2.601      4.162
REMARK INTER + INTRA:         -10.505
REMARK INTER:                  -9.497
REMARK INTRA:                  -1.008
REMARK UNBOUND:                -0.814
REMARK  Name = 
REMARK  12 active torsions:
REMARK  status: ('A' for Active; 'I' for Inactive)
REMARK    1  A    between atoms: C_1  and  C_2
REMARK    2  A    between atoms: C_4  and  C_5
REMARK    3  A    between atoms: C_7  and  O_8
REMARK    4  A    between atoms: O_8  and  C_9
REMARK    5  A    between atoms: C_9  and  C_10
REMARK    6  A    between atoms: C_10  and  C_11
REMARK    7  A    between atoms: C_10  and  C_12
REMARK    8  A    between atoms: C_16  and  O_17
REMARK    9  A    between atoms: O_17  and  C_18
REMARK   10  A    between atoms: N_20  and  S_21
REMARK   11  A    between atoms: S_21  and  C_22
REMARK   12  A    between atoms: C_26  and  C_27
REMARK                            x       y       z     vdW  Elec       q    Type
REMARK                         _______ _______ _______ _____ _____    ______ ____
ROOT
ATOM      1  C   UNL     1      46.934   8.595  12.576  0.00  0.00    +0.000 A 
ATOM      2  C   UNL     1      47.813   9.438  11.880  0.00  0.00    +0.000 A 
ATOM      3  C   UNL     1      49.198   9.270  11.982  0.00  0.00    +0.000 A 
ATOM      4  C   UNL     1      49.732   8.285  12.816  0.00  0.00    +0.000 A 
ATOM      5  C   UNL     1      48.878   7.503  13.587  0.00  0.00    +0.000 A 
ATOM      6  C   UNL     1      47.496   7.668  13.460  0.00  0.00    +0.000 A 
ENDROOT
BRANCH   1   7
ATOM      7  C   UNL     1      45.427   8.701  12.342  0.00  0.00    +0.000 C 
ATOM      8  C   UNL     1      45.094  10.095  11.784  0.00  0.00    +0.000 C 
BRANCH   7   9
ATOM      9  C   UNL     1      44.817   7.654  11.379  0.00  0.00    +0.000 C 
BRANCH   9  10
ATOM     10  O   UNL     1      45.799   6.665  11.048  0.00  0.00    +0.000 OA
BRANCH  10  17
ATOM     11  C   UNL     1      43.348   2.426  11.754  0.00  0.00    +0.000 C 
ATOM     12  C   UNL     1      44.137   3.357  10.882  0.00  0.00    +0.000 A 
ATOM     13  C   UNL     1      44.508   2.992   9.581  0.00  0.00    +0.000 A 
ATOM     14  C   UNL     1      45.274   3.855   8.788  0.00  0.00    +0.000 A 
ATOM     15  C   UNL     1      45.674   3.468   7.395  0.00  0.00    +0.000 C 
ATOM     16  C   UNL     1      45.665   5.094   9.313  0.00  0.00    +0.000 A 
ATOM     17  C   UNL     1      45.297   5.471  10.605  0.00  0.00    +0.000 A 
ATOM     18  C   UNL     1      44.530   4.605  11.385  0.00  0.00    +0.000 A 
ENDBRANCH  10  17
ENDBRANCH   9  10
ENDBRANCH   7   9
ENDBRANCH   1   7
BRANCH   5  19
ATOM     19  O   UNL     1      49.226   6.575  14.518  0.00  0.00    +0.000 OA
BRANCH  19  20
ATOM     20  C   UNL     1      49.015   6.834  15.909  0.00  0.00    +0.000 C 
ATOM     21  C   UNL     1      48.925   5.458  16.603  0.00  0.00    +0.000 C 
ATOM     22  N   UNL     1      50.334   5.078  16.845  0.00  0.00    +0.000 NA
ATOM     23  C   UNL     1      51.220   6.235  16.621  0.00  0.00    +0.000 C 
ATOM     24  C   UNL     1      50.274   7.440  16.543  0.00  0.00    +0.000 C 
ATOM     25  C   UNL     1      49.999   8.032  17.926  0.00  0.00    +0.000 C 
BRANCH  22  26
ATOM     26  S   UNL     1      50.741   3.865  17.911  0.00  0.00    +0.000 S 
ATOM     27  C   UNL     1      50.545   4.644  19.501  0.00  0.00    +0.000 C 
ATOM     28  O   UNL     1      49.740   2.828  17.807  0.00  0.00    +0.000 OA
ATOM     29  O   UNL     1      52.150   3.579  17.742  0.00  0.00    +0.000 OA
ENDBRANCH  22  26
ENDBRANCH  19  20
ENDBRANCH   5  19
TORSDOF 7
ENDMDL
MODEL 9
REMARK VINA RESULT:    -6.842      3.872      8.541
REMARK INTER + INTRA:         -10.456
REMARK INTER:                  -9.039
REMARK INTRA:                  -1.417
REMARK UNBOUND:                -0.814
REMARK  Name = 
REMARK  12 active torsions:
REMARK  status: ('A' for Active; 'I' for Inactive)
REMARK    1  A    between atoms: C_1  and  C_2
REMARK    2  A    between atoms: C_4  and  C_5
REMARK    3  A    between atoms: C_7  and  O_8
REMARK    4  A    between atoms: O_8  and  C_9
REMARK    5  A    between atoms: C_9  and  C_10
REMARK    6  A    between atoms: C_10  and  C_11
REMARK    7  A    between atoms: C_10  and  C_12
REMARK    8  A    between atoms: C_16  and  O_17
REMARK    9  A    between atoms: O_17  and  C_18
REMARK   10  A    between atoms: N_20  and  S_21
REMARK   11  A    between atoms: S_21  and  C_22
REMARK   12  A    between atoms: C_26  and  C_27
REMARK                            x       y       z     vdW  Elec       q    Type
REMARK                         _______ _______ _______ _____ _____    ______ ____
ROOT
ATOM      1  C   UNL     1      49.772   8.177  14.538  0.00  0.00    +0.000 A 
ATOM      2  C   UNL     1      50.855   8.537  13.722  0.00  0.00    +0.000 A 
ATOM      3  C   UNL     1      50.863   8.218  12.361  0.00  0.00    +0.000 A 
ATOM      4  C   UNL     1      49.810   7.493  11.797  0.00  0.00    +0.000 A 
ATOM      5  C   UNL     1      48.774   7.046  12.609  0.00  0.00    +0.000 A 
ATOM      6  C   UNL     1      48.768   7.389  13.964  0.00  0.00    +0.000 A 
ENDROOT
BRANCH   1   7
ATOM      7  C   UNL     1      49.713   8.656  15.988  0.00  0.00    +0.000 C 
ATOM      8  C   UNL     1      48.639   9.751  16.120  0.00  0.00    +0.000 C 
BRANCH   7   9
ATOM      9  C   UNL     1      49.405   7.572  17.048  0.00  0.00    +0.000 C 
BRANCH   9  10
ATOM     10  O   UNL     1      50.523   6.685  17.177  0.00  0.00    +0.000 OA
BRANCH  10  17
ATOM     11  C   UNL     1      47.259   2.971  17.330  0.00  0.00    +0.000 C 
ATOM     12  C   UNL     1      48.670   3.480  17.341  0.00  0.00    +0.000 A 
ATOM     13  C   UNL     1      49.753   2.612  17.528  0.00  0.00    +0.000 A 
ATOM     14  C   UNL     1      51.064   3.103  17.572  0.00  0.00    +0.000 A 
ATOM     15  C   UNL     1      52.227   2.177  17.772  0.00  0.00    +0.000 C 
ATOM     16  C   UNL     1      51.280   4.480  17.422  0.00  0.00    +0.000 A 
ATOM     17  C   UNL     1      50.209   5.354  17.230  0.00  0.00    +0.000 A 
ATOM     18  C   UNL     1      48.908   4.852  17.184  0.00  0.00    +0.000 A 
ENDBRANCH  10  17
ENDBRANCH   9  10
ENDBRANCH   7   9
ENDBRANCH   1   7
BRANCH   5  19
ATOM     19  O   UNL     1      47.730   6.251  12.251  0.00  0.00    +0.000 OA
BRANCH  19  20
ATOM     20  C   UNL     1      46.669   6.773  11.447  0.00  0.00    +0.000 C 
ATOM     21  C   UNL     1      45.864   5.557  10.938  0.00  0.00    +0.000 C 
ATOM     22  N   UNL     1      44.932   5.248  12.044  0.00  0.00    +0.000 NA
ATOM     23  C   UNL     1      44.919   6.350  13.023  0.00  0.00    +0.000 C 
ATOM     24  C   UNL     1      45.640   7.505  12.318  0.00  0.00    +0.000 C 
ATOM     25  C   UNL     1      44.674   8.352  11.487  0.00  0.00    +0.000 C 
BRANCH  22  26
ATOM     26  S   UNL     1      43.602   4.270  11.819  0.00  0.00    +0.000 S 
ATOM     27  C   UNL     1      42.253   5.432  11.758  0.00  0.00    +0.000 C 
ATOM     28  O   UNL     1      43.714   3.664  10.512  0.00  0.00    +0.000 OA
ATOM     29  O   UNL     1      43.430   3.472  13.014  0.00  0.00    +0.000 OA
ENDBRANCH  22  26
ENDBRANCH  19  20
ENDBRANCH   5  19
TORSDOF 7
ENDMDL
