MODEL 1
REMARK VINA RESULT:    -8.726      0.000      0.000
REMARK INTER + INTRA:         -12.615
REMARK INTER:                 -11.786
REMARK INTRA:                  -0.829
REMARK UNBOUND:                -0.829
REMARK  Name = 
REMARK  7 active torsions:
REMARK  status: ('A' for Active; 'I' for Inactive)
REMARK    1  A    between atoms: C_1  and  N_2
REMARK    2  A    between atoms: N_2  and  C_3
REMARK    3  A    between atoms: C_3  and  C_4
REMARK    4  A    between atoms: C_7  and  C_8
REMARK    5  A    between atoms: C_8  and  N_9
REMARK    6  A    between atoms: C_10  and  C_12
REMARK    7  A    between atoms: C_24  and  C_26
REMARK                            x       y       z     vdW  Elec       q    Type
REMARK                         _______ _______ _______ _____ _____    ______ ____
ROOT
ATOM      1  C   UNL     1      46.385   4.419  13.286  0.00  0.00    +0.000 A 
ATOM      2  C   UNL     1      46.759   5.679  12.823  0.00  0.00    +0.000 A 
ATOM      3  C   UNL     1      47.605   6.469  13.595  0.00  0.00    +0.000 A 
ATOM      4  C   UNL     1      48.038   5.985  14.826  0.00  0.00    +0.000 A 
ATOM      5  N   UNL     1      47.714   4.749  15.283  0.00  0.00    +0.000 NA
ATOM      6  C   UNL     1      46.907   3.999  14.507  0.00  0.00    +0.000 A 
ENDROOT
BRANCH   1   7
ATOM      7  C   UNL     1      45.440   3.545  12.519  0.00  0.00    +0.000 C 
BRANCH   7   9
ATOM      8  C   UNL     1      43.290   4.831  12.947  0.00  0.00    +0.000 C 
ATOM      9  N   UNL     1      44.196   4.152  12.024  0.00  0.00    +0.000 N 
ATOM     10  C   UNL     1      43.947   4.403  10.661  0.00  0.00    +0.000 C 
ATOM     11  O   UNL     1      43.024   5.135  10.297  0.00  0.00    +0.000 OA
BRANCH  10  12
ATOM     12  C   UNL     1      44.806   3.838   9.591  0.00  0.00    +0.000 A 
ATOM     13  C   UNL     1      44.936   2.478   9.306  0.00  0.00    +0.000 A 
ATOM     14  C   UNL     1      45.813   2.059   8.306  0.00  0.00    +0.000 A 
ATOM     15  C   UNL     1      46.483   3.021   7.572  0.00  0.00    +0.000 A 
ATOM     16  N   UNL     1      46.332   4.346   7.769  0.00  0.00    +0.000 NA
ATOM     17  C   UNL     1      45.492   4.725   8.767  0.00  0.00    +0.000 A 
ENDBRANCH  10  12
ENDBRANCH   7   9
ENDBRANCH   1   7
BRANCH   4  18
ATOM     18  C   UNL     1      48.916   6.831  15.712  0.00  0.00    +0.000 C 
BRANCH  18  19
ATOM     19  N   UNL     1      50.000   6.069  16.281  0.00  0.00    +0.000 N 
ATOM     20  C   UNL     1      49.943   5.524  17.532  0.00  0.00    +0.000 C 
ATOM     21  O   UNL     1      48.956   5.641  18.254  0.00  0.00    +0.000 OA
ATOM     22  H   UNL     1      50.898   6.183  15.820  0.00  0.00    +0.000 HD
BRANCH  20  23
ATOM     23  C   UNL     1      51.100   4.716  17.937  0.00  0.00    +0.000 A 
ATOM     24  C   UNL     1      52.163   5.319  18.596  0.00  0.00    +0.000 A 
ATOM     25  S   UNL     1      53.385   4.227  19.065  0.00  0.00    +0.000 S 
ATOM     26  C   UNL     1      52.562   2.916  18.358  0.00  0.00    +0.000 A 
ATOM     27  N   UNL     1      53.085   1.661  18.392  0.00  0.00    +0.000 NA
ATOM     28  C   UNL     1      52.372   0.767  17.793  0.00  0.00    +0.000 A 
ATOM     29  N   UNL     1      51.180   1.014  17.163  0.00  0.00    +0.000 N 
ATOM     30  C   UNL     1      50.591   2.256  17.142  0.00  0.00    +0.000 A 
ATOM     31  O   UNL     1      49.490   2.425  16.633  0.00  0.00    +0.000 OA
ATOM     32  C   UNL     1      51.365   3.303  17.787  0.00  0.00    +0.000 A 
ATOM     33  H   UNL     1      50.657   0.270  16.724  0.00  0.00    +0.000 HD
ENDBRANCH  20  23
ENDBRANCH  18  19
ENDBRANCH   4  18
TORSDOF 6
ENDMDL
MODEL 2
REMARK VINA RESULT:    -8.011      1.909      3.145
REMARK INTER + INTRA:         -11.650
REMARK INTER:                 -10.608
REMARK INTRA:                  -1.042
REMARK UNBOUND:                -0.829
REMARK  Name = 
REMARK  7 active torsions:
REMARK  status: ('A' for Active; 'I' for Inactive)
REMARK    1  A    between atoms: C_1  and  N_2
REMARK    2  A    between atoms: N_2  and  C_3
REMARK    3  A    between atoms: C_3  and  C_4
REMARK    4  A    between atoms: C_7  and  C_8
REMARK    5  A    between atoms: C_8  and  N_9
REMARK    6  A    between atoms: C_10  and  C_12
REMARK    7  A    between atoms: C_24  and  C_26
REMARK                            x       y       z     vdW  Elec       q    Type
REMARK                         _______ _______ _______ _____ _____    ______ ____
ROOT
ATOM      1  C   UNL     1      47.326   5.588  13.728  0.00  0.00    +0.000 A 
ATOM      2  C   UNL     1      47.982   6.133  14.830  0.00  0.00    +0.000 A 
ATOM      3  C   UNL     1      48.125   5.375  15.987  0.00  0.00    +0.000 A 
ATOM      4  C   UNL     1      47.583   4.092  16.021  0.00  0.00    +0.000 A 
ATOM      5  N   UNL     1      46.968   3.529  14.950  0.00  0.00    +0.000 NA
ATOM      6  C   UNL     1      46.860   4.281  13.837  0.00  0.00    +0.000 A 
ENDROOT
BRANCH   1   7
ATOM      7  C   UNL     1      47.102   6.375  12.472  0.00  0.00    +0.000 C 
BRANCH   7   9
ATOM      8  C   UNL     1      45.842   8.543  12.886  0.00  0.00    +0.000 C 
ATOM      9  N   UNL     1      45.872   7.174  12.376  0.00  0.00    +0.000 N 
ATOM     10  C   UNL     1      44.789   6.830  11.544  0.00  0.00    +0.000 C 
ATOM     11  O   UNL     1      43.891   7.635  11.287  0.00  0.00    +0.000 OA
BRANCH  10  12
ATOM     12  C   UNL     1      44.692   5.499  10.895  0.00  0.00    +0.000 A 
ATOM     13  C   UNL     1      45.357   5.131   9.724  0.00  0.00    +0.000 A 
ATOM     14  C   UNL     1      45.152   3.865   9.178  0.00  0.00    +0.000 A 
ATOM     15  C   UNL     1      44.338   2.978   9.859  0.00  0.00    +0.000 A 
ATOM     16  N   UNL     1      43.734   3.270  11.029  0.00  0.00    +0.000 NA
ATOM     17  C   UNL     1      43.930   4.519  11.524  0.00  0.00    +0.000 A 
ENDBRANCH  10  12
ENDBRANCH   7   9
ENDBRANCH   1   7
BRANCH   4  18
ATOM     18  C   UNL     1      47.675   3.259  17.273  0.00  0.00    +0.000 C 
BRANCH  18  19
ATOM     19  N   UNL     1      49.043   3.028  17.665  0.00  0.00    +0.000 N 
ATOM     20  C   UNL     1      49.885   2.211  16.964  0.00  0.00    +0.000 C 
ATOM     21  O   UNL     1      49.532   1.625  15.945  0.00  0.00    +0.000 OA
ATOM     22  H   UNL     1      49.268   3.284  18.623  0.00  0.00    +0.000 HD
BRANCH  20  23
ATOM     23  C   UNL     1      51.267   2.137  17.454  0.00  0.00    +0.000 A 
ATOM     24  C   UNL     1      51.872   0.898  17.621  0.00  0.00    +0.000 A 
ATOM     25  S   UNL     1      53.500   0.995  18.119  0.00  0.00    +0.000 S 
ATOM     26  C   UNL     1      53.439   2.694  18.180  0.00  0.00    +0.000 A 
ATOM     27  N   UNL     1      54.526   3.420  18.558  0.00  0.00    +0.000 NA
ATOM     28  C   UNL     1      54.333   4.695  18.588  0.00  0.00    +0.000 A 
ATOM     29  N   UNL     1      53.151   5.313  18.273  0.00  0.00    +0.000 N 
ATOM     30  C   UNL     1      52.041   4.625  17.843  0.00  0.00    +0.000 A 
ATOM     31  O   UNL     1      51.025   5.215  17.500  0.00  0.00    +0.000 OA
ATOM     32  C   UNL     1      52.201   3.182  17.810  0.00  0.00    +0.000 A 
ATOM     33  H   UNL     1      53.063   6.319  18.300  0.00  0.00    +0.000 HD
ENDBRANCH  20  23
ENDBRANCH  18  19
ENDBRANCH   4  18
TORSDOF 6
ENDMDL
MODEL 3
REMARK VINA RESULT:    -8.006      2.386      2.705
REMARK INTER + INTRA:         -11.643
REMARK INTER:                 -10.637
REMARK INTRA:                  -1.007
REMARK UNBOUND:                -0.829
REMARK  Name = 
REMARK  7 active torsions:
REMARK  status: ('A' for Active; 'I' for Inactive)
REMARK    1  A    between atoms: C_1  and  N_2
REMARK    2  A    between atoms: N_2  and  C_3
REMARK    3  A    between atoms: C_3  and  C_4
REMARK    4  A    between atoms: C_7  and  C_8
REMARK    5  A    between atoms: C_8  and  N_9
REMARK    6  A    between atoms: C_10  and  C_12
REMARK    7  A    between atoms: C_24  and  C_26
REMARK                            x       y       z     vdW  Elec       q    Type
REMARK                         _______ _______ _______ _____ _____    ______ ____
ROOT
ATOM      1  C   UNL     1      46.369   4.677  13.053  0.00  0.00    +0.000 A 
ATOM      2  C   UNL     1      46.733   5.782  12.285  0.00  0.00    +0.000 A 
ATOM      3  C   UNL     1      47.673   6.680  12.780  0.00  0.00    +0.000 A 
ATOM      4  C   UNL     1      48.209   6.461  14.046  0.00  0.00    +0.000 A 
ATOM      5  N   UNL     1      47.893   5.377  14.798  0.00  0.00    +0.000 NA
ATOM      6  C   UNL     1      46.993   4.514  14.286  0.00  0.00    +0.000 A 
ENDROOT
BRANCH   1   7
ATOM      7  C   UNL     1      45.329   3.702  12.590  0.00  0.00    +0.000 C 
BRANCH   7   9
ATOM      8  C   UNL     1      43.149   4.959  12.945  0.00  0.00    +0.000 C 
ATOM      9  N   UNL     1      44.069   4.246  12.062  0.00  0.00    +0.000 N 
ATOM     10  C   UNL     1      43.810   4.405  10.687  0.00  0.00    +0.000 C 
ATOM     11  O   UNL     1      42.868   5.089  10.282  0.00  0.00    +0.000 OA
BRANCH  10  12
ATOM     12  C   UNL     1      44.681   3.796   9.651  0.00  0.00    +0.000 A 
ATOM     13  C   UNL     1      44.803   2.426   9.416  0.00  0.00    +0.000 A 
ATOM     14  C   UNL     1      45.691   1.965   8.445  0.00  0.00    +0.000 A 
ATOM     15  C   UNL     1      46.381   2.895   7.688  0.00  0.00    +0.000 A 
ATOM     16  N   UNL     1      46.238   4.228   7.836  0.00  0.00    +0.000 NA
ATOM     17  C   UNL     1      45.387   4.649   8.807  0.00  0.00    +0.000 A 
ENDBRANCH  10  12
ENDBRANCH   7   9
ENDBRANCH   1   7
BRANCH   4  18
ATOM     18  C   UNL     1      49.193   7.439  14.637  0.00  0.00    +0.000 C 
BRANCH  18  19
ATOM     19  N   UNL     1      49.198   7.391  16.078  0.00  0.00    +0.000 N 
ATOM     20  C   UNL     1      50.163   6.738  16.792  0.00  0.00    +0.000 C 
ATOM     21  O   UNL     1      51.097   6.153  16.250  0.00  0.00    +0.000 OA
ATOM     22  H   UNL     1      48.318   7.635  16.522  0.00  0.00    +0.000 HD
BRANCH  20  23
ATOM     23  C   UNL     1      50.066   6.844  18.253  0.00  0.00    +0.000 A 
ATOM     24  C   UNL     1      50.541   7.982  18.893  0.00  0.00    +0.000 A 
ATOM     25  S   UNL     1      50.279   7.977  20.577  0.00  0.00    +0.000 S 
ATOM     26  C   UNL     1      49.569   6.433  20.519  0.00  0.00    +0.000 A 
ATOM     27  N   UNL     1      49.126   5.823  21.652  0.00  0.00    +0.000 NA
ATOM     28  C   UNL     1      48.636   4.643  21.469  0.00  0.00    +0.000 A 
ATOM     29  N   UNL     1      48.547   4.016  20.253  0.00  0.00    +0.000 N 
ATOM     30  C   UNL     1      48.940   4.609  19.077  0.00  0.00    +0.000 A 
ATOM     31  O   UNL     1      48.778   4.049  18.001  0.00  0.00    +0.000 OA
ATOM     32  C   UNL     1      49.517   5.934  19.232  0.00  0.00    +0.000 A 
ATOM     33  H   UNL     1      48.139   3.096  20.168  0.00  0.00    +0.000 HD
ENDBRANCH  20  23
ENDBRANCH  18  19
ENDBRANCH   4  18
TORSDOF 6
ENDMDL
MODEL 4
REMARK VINA RESULT:    -7.857      3.150      4.724
REMARK INTER + INTRA:         -11.442
REMARK INTER:                 -10.353
REMARK INTRA:                  -1.089
REMARK UNBOUND:                -0.829
REMARK  Name = 
REMARK  7 active torsions:
REMARK  status: ('A' for Active; 'I' for Inactive)
REMARK    1  A    between atoms: C_1  and  N_2
REMARK    2  A    between atoms: N_2  and  C_3
REMARK    3  A    between atoms: C_3  and  C_4
REMARK    4  A    between atoms: C_7  and  C_8
REMARK    5  A    between atoms: C_8  and  N_9
REMARK    6  A    between atoms: C_10  and  C_12
REMARK    7  A    between atoms: C_24  and  C_26
REMARK                            x       y       z     vdW  Elec       q    Type
REMARK                         _______ _______ _______ _____ _____    ______ ____
ROOT
ATOM      1  C   UNL     1      46.443   4.498  13.276  0.00  0.00    +0.000 A 
ATOM      2  C   UNL     1      46.815   5.729  12.738  0.00  0.00    +0.000 A 
ATOM      3  C   UNL     1      47.644   6.573  13.470  0.00  0.00    +0.000 A 
ATOM      4  C   UNL     1      48.061   6.173  14.737  0.00  0.00    +0.000 A 
ATOM      5  N   UNL     1      47.738   4.967  15.267  0.00  0.00    +0.000 NA
ATOM      6  C   UNL     1      46.948   4.162  14.529  0.00  0.00    +0.000 A 
ENDROOT
BRANCH   1   7
ATOM      7  C   UNL     1      45.516   3.569  12.553  0.00  0.00    +0.000 C 
BRANCH   7   9
ATOM      8  C   UNL     1      43.328   4.780  13.007  0.00  0.00    +0.000 C 
ATOM      9  N   UNL     1      44.236   4.114  12.076  0.00  0.00    +0.000 N 
ATOM     10  C   UNL     1      43.942   4.320  10.715  0.00  0.00    +0.000 C 
ATOM     11  O   UNL     1      42.982   5.005  10.358  0.00  0.00    +0.000 OA
BRANCH  10  12
ATOM     12  C   UNL     1      44.796   3.762   9.636  0.00  0.00    +0.000 A 
ATOM     13  C   UNL     1      44.945   2.402   9.359  0.00  0.00    +0.000 A 
ATOM     14  C   UNL     1      45.814   1.991   8.350  0.00  0.00    +0.000 A 
ATOM     15  C   UNL     1      46.457   2.959   7.599  0.00  0.00    +0.000 A 
ATOM     16  N   UNL     1      46.285   4.283   7.788  0.00  0.00    +0.000 NA
ATOM     17  C   UNL     1      45.454   4.655   8.796  0.00  0.00    +0.000 A 
ENDBRANCH  10  12
ENDBRANCH   7   9
ENDBRANCH   1   7
BRANCH   4  18
ATOM     18  C   UNL     1      48.920   7.082  15.579  0.00  0.00    +0.000 C 
BRANCH  18  19
ATOM     19  N   UNL     1      48.413   7.206  16.923  0.00  0.00    +0.000 N 
ATOM     20  C   UNL     1      49.211   7.093  18.027  0.00  0.00    +0.000 C 
ATOM     21  O   UNL     1      50.419   6.887  17.944  0.00  0.00    +0.000 OA
ATOM     22  H   UNL     1      47.405   7.114  17.016  0.00  0.00    +0.000 HD
BRANCH  20  23
ATOM     23  C   UNL     1      48.556   7.316  19.322  0.00  0.00    +0.000 A 
ATOM     24  C   UNL     1      48.640   6.345  20.311  0.00  0.00    +0.000 A 
ATOM     25  S   UNL     1      47.894   6.796  21.776  0.00  0.00    +0.000 S 
ATOM     26  C   UNL     1      47.386   8.283  21.124  0.00  0.00    +0.000 A 
ATOM     27  N   UNL     1      46.665   9.164  21.869  0.00  0.00    +0.000 NA
ATOM     28  C   UNL     1      46.321  10.239  21.243  0.00  0.00    +0.000 A 
ATOM     29  N   UNL     1      46.632  10.514  19.937  0.00  0.00    +0.000 N 
ATOM     30  C   UNL     1      47.395   9.676  19.159  0.00  0.00    +0.000 A 
ATOM     31  O   UNL     1      47.716   9.988  18.020  0.00  0.00    +0.000 OA
ATOM     32  C   UNL     1      47.793   8.441  19.814  0.00  0.00    +0.000 A 
ATOM     33  H   UNL     1      46.348  11.381  19.504  0.00  0.00    +0.000 HD
ENDBRANCH  20  23
ENDBRANCH  18  19
ENDBRANCH   4  18
TORSDOF 6
ENDMDL
MODEL 5
REMARK VINA RESULT:    -7.763      3.605      8.353
REMARK INTER + INTRA:         -11.315
REMARK INTER:                  -9.985
REMARK INTRA:                  -1.330
REMARK UNBOUND:                -0.829
REMARK  Name = 
REMARK  7 active torsions:
REMARK  status: ('A' for Active; 'I' for Inactive)
REMARK    1  A    between atoms: C_1  and  N_2
REMARK    2  A    between atoms: N_2  and  C_3
REMARK    3  A    between atoms: C_3  and  C_4
REMARK    4  A    between atoms: C_7  and  C_8
REMARK    5  A    between atoms: C_8  and  N_9
REMARK    6  A    between atoms: C_10  and  C_12
REMARK    7  A    between atoms: C_24  and  C_26
REMARK                            x       y       z     vdW  Elec       q    Type
REMARK                         _______ _______ _______ _____ _____    ______ ____
ROOT
ATOM      1  C   UNL     1      49.059   7.549  16.256  0.00  0.00    +0.000 A 
ATOM      2  C   UNL     1      48.446   8.722  15.819  0.00  0.00    +0.000 A 
ATOM      3  C   UNL     1      48.173   8.889  14.465  0.00  0.00    +0.000 A 
ATOM      4  C   UNL     1      48.544   7.884  13.576  0.00  0.00    +0.000 A 
ATOM      5  N   UNL     1      49.112   6.721  13.982  0.00  0.00    +0.000 NA
ATOM      6  C   UNL     1      49.349   6.579  15.301  0.00  0.00    +0.000 A 
ENDROOT
BRANCH   1   7
ATOM      7  C   UNL     1      49.418   7.335  17.695  0.00  0.00    +0.000 C 
BRANCH   7   9
ATOM      8  C   UNL     1      47.715   8.227  19.358  0.00  0.00    +0.000 C 
ATOM      9  N   UNL     1      48.321   7.103  18.647  0.00  0.00    +0.000 N 
ATOM     10  C   UNL     1      47.588   5.903  18.706  0.00  0.00    +0.000 C 
ATOM     11  O   UNL     1      46.524   5.825  19.324  0.00  0.00    +0.000 OA
BRANCH  10  12
ATOM     12  C   UNL     1      48.031   4.679  17.993  0.00  0.00    +0.000 A 
ATOM     13  C   UNL     1      49.133   3.902  18.349  0.00  0.00    +0.000 A 
ATOM     14  C   UNL     1      49.484   2.798  17.574  0.00  0.00    +0.000 A 
ATOM     15  C   UNL     1      48.677   2.462  16.502  0.00  0.00    +0.000 A 
ATOM     16  N   UNL     1      47.564   3.145  16.166  0.00  0.00    +0.000 NA
ATOM     17  C   UNL     1      47.261   4.232  16.922  0.00  0.00    +0.000 A 
ENDBRANCH  10  12
ENDBRANCH   7   9
ENDBRANCH   1   7
BRANCH   4  18
ATOM     18  C   UNL     1      48.309   8.050  12.097  0.00  0.00    +0.000 C 
BRANCH  18  19
ATOM     19  N   UNL     1      47.571   6.943  11.542  0.00  0.00    +0.000 N 
ATOM     20  C   UNL     1      46.205   6.909  11.508  0.00  0.00    +0.000 C 
ATOM     21  O   UNL     1      45.515   7.827  11.942  0.00  0.00    +0.000 OA
ATOM     22  H   UNL     1      48.101   6.084  11.424  0.00  0.00    +0.000 HD
BRANCH  20  23
ATOM     23  C   UNL     1      45.606   5.743  10.845  0.00  0.00    +0.000 A 
ATOM     24  C   UNL     1      45.786   5.560   9.480  0.00  0.00    +0.000 A 
ATOM     25  S   UNL     1      45.094   4.120   8.887  0.00  0.00    +0.000 S 
ATOM     26  C   UNL     1      44.485   3.714  10.423  0.00  0.00    +0.000 A 
ATOM     27  N   UNL     1      43.762   2.577  10.611  0.00  0.00    +0.000 NA
ATOM     28  C   UNL     1      43.337   2.407  11.817  0.00  0.00    +0.000 A 
ATOM     29  N   UNL     1      43.569   3.271  12.856  0.00  0.00    +0.000 N 
ATOM     30  C   UNL     1      44.330   4.408  12.724  0.00  0.00    +0.000 A 
ATOM     31  O   UNL     1      44.578   5.118  13.689  0.00  0.00    +0.000 OA
ATOM     32  C   UNL     1      44.817   4.655  11.378  0.00  0.00    +0.000 A 
ATOM     33  H   UNL     1      43.223   3.077  13.784  0.00  0.00    +0.000 HD
ENDBRANCH  20  23
ENDBRANCH  18  19
ENDBRANCH   4  18
TORSDOF 6
ENDMDL
MODEL 6
REMARK VINA RESULT:    -7.651      2.485      2.831
REMARK INTER + INTRA:         -11.164
REMARK INTER:                 -10.831
REMARK INTRA:                  -0.333
REMARK UNBOUND:                -0.829
REMARK  Name = 
REMARK  7 active torsions:
REMARK  status: ('A' for Active; 'I' for Inactive)
REMARK    1  A    between atoms: C_1  and  N_2
REMARK    2  A    between atoms: N_2  and  C_3
REMARK    3  A    between atoms: C_3  and  C_4
REMARK    4  A    between atoms: C_7  and  C_8
REMARK    5  A    between atoms: C_8  and  N_9
REMARK    6  A    between atoms: C_10  and  C_12
REMARK    7  A    between atoms: C_24  and  C_26
REMARK                            x       y       z     vdW  Elec       q    Type
REMARK                         _______ _______ _______ _____ _____    ______ ____
ROOT
ATOM      1  C   UNL     1      45.406   6.765  11.627  0.00  0.00    +0.000 A 
ATOM      2  C   UNL     1      45.132   8.080  12.000  0.00  0.00    +0.000 A 
ATOM      3  C   UNL     1      46.003   8.744  12.859  0.00  0.00    +0.000 A 
ATOM      4  C   UNL     1      47.117   8.063  13.343  0.00  0.00    +0.000 A 
ATOM      5  N   UNL     1      47.420   6.795  12.968  0.00  0.00    +0.000 NA
ATOM      6  C   UNL     1      46.569   6.183  12.122  0.00  0.00    +0.000 A 
ENDROOT
BRANCH   1   7
ATOM      7  C   UNL     1      44.479   5.987  10.742  0.00  0.00    +0.000 C 
BRANCH   7   9
ATOM      8  C   UNL     1      42.893   4.848  12.369  0.00  0.00    +0.000 C 
ATOM      9  N   UNL     1      43.877   4.764  11.291  0.00  0.00    +0.000 N 
ATOM     10  C   UNL     1      43.942   3.512  10.649  0.00  0.00    +0.000 C 
ATOM     11  O   UNL     1      43.224   2.571  10.991  0.00  0.00    +0.000 OA
BRANCH  10  12
ATOM     12  C   UNL     1      44.846   3.271   9.497  0.00  0.00    +0.000 A 
ATOM     13  C   UNL     1      45.334   2.021   9.113  0.00  0.00    +0.000 A 
ATOM     14  C   UNL     1      46.218   1.920   8.040  0.00  0.00    +0.000 A 
ATOM     15  C   UNL     1      46.535   3.069   7.337  0.00  0.00    +0.000 A 
ATOM     16  N   UNL     1      46.030   4.284   7.631  0.00  0.00    +0.000 NA
ATOM     17  C   UNL     1      45.192   4.357   8.698  0.00  0.00    +0.000 A 
ENDBRANCH  10  12
ENDBRANCH   7   9
ENDBRANCH   1   7
BRANCH   4  18
ATOM     18  C   UNL     1      48.056   8.732  14.313  0.00  0.00    +0.000 C 
BRANCH  18  19
ATOM     19  N   UNL     1      48.298   7.916  15.477  0.00  0.00    +0.000 N 
ATOM     20  C   UNL     1      49.540   7.454  15.810  0.00  0.00    +0.000 C 
ATOM     21  O   UNL     1      50.537   7.712  15.141  0.00  0.00    +0.000 OA
ATOM     22  H   UNL     1      47.472   7.484  15.882  0.00  0.00    +0.000 HD
BRANCH  20  23
ATOM     23  C   UNL     1      49.631   6.696  17.064  0.00  0.00    +0.000 A 
ATOM     24  C   UNL     1      50.369   7.205  18.124  0.00  0.00    +0.000 A 
ATOM     25  S   UNL     1      50.304   6.241  19.528  0.00  0.00    +0.000 S 
ATOM     26  C   UNL     1      49.329   5.081  18.754  0.00  0.00    +0.000 A 
ATOM     27  N   UNL     1      48.917   3.963  19.410  0.00  0.00    +0.000 NA
ATOM     28  C   UNL     1      48.208   3.155  18.697  0.00  0.00    +0.000 A 
ATOM     29  N   UNL     1      47.871   3.363  17.384  0.00  0.00    +0.000 N 
ATOM     30  C   UNL     1      48.226   4.497  16.694  0.00  0.00    +0.000 A 
ATOM     31  O   UNL     1      47.846   4.684  15.546  0.00  0.00    +0.000 OA
ATOM     32  C   UNL     1      49.044   5.432  17.448  0.00  0.00    +0.000 A 
ATOM     33  H   UNL     1      47.299   2.701  16.880  0.00  0.00    +0.000 HD
ENDBRANCH  20  23
ENDBRANCH  18  19
ENDBRANCH   4  18
TORSDOF 6
ENDMDL
MODEL 7
REMARK VINA RESULT:    -6.996      2.112      2.873
REMARK INTER + INTRA:         -10.279
REMARK INTER:                  -9.622
REMARK INTRA:                  -0.656
REMARK UNBOUND:                -0.829
REMARK  Name = 
REMARK  7 active torsions:
REMARK  status: ('A' for Active; 'I' for Inactive)
REMARK    1  A    between atoms: C_1  and  N_2
REMARK    2  A    between atoms: N_2  and  C_3
REMARK    3  A    between atoms: C_3  and  C_4
REMARK    4  A    between atoms: C_7  and  C_8
REMARK    5  A    between atoms: C_8  and  N_9
REMARK    6  A    between atoms: C_10  and  C_12
REMARK    7  A    between atoms: C_24  and  C_26
REMARK                            x       y       z     vdW  Elec       q    Type
REMARK                         _______ _______ _______ _____ _____    ______ ____
ROOT
ATOM      1  C   UNL     1      45.924   6.638  12.110  0.00  0.00    +0.000 A 
ATOM      2  C   UNL     1      47.060   5.877  12.380  0.00  0.00    +0.000 A 
ATOM      3  C   UNL     1      48.046   6.390  13.217  0.00  0.00    +0.000 A 
ATOM      4  C   UNL     1      47.880   7.668  13.744  0.00  0.00    +0.000 A 
ATOM      5  N   UNL     1      46.769   8.415  13.521  0.00  0.00    +0.000 NA
ATOM      6  C   UNL     1      45.822   7.885  12.721  0.00  0.00    +0.000 A 
ENDROOT
BRANCH   1   7
ATOM      7  C   UNL     1      44.853   6.155  11.180  0.00  0.00    +0.000 C 
BRANCH   7   9
ATOM      8  C   UNL     1      43.034   5.243  12.703  0.00  0.00    +0.000 C 
ATOM      9  N   UNL     1      44.007   5.041  11.632  0.00  0.00    +0.000 N 
ATOM     10  C   UNL     1      43.840   3.850  10.900  0.00  0.00    +0.000 C 
ATOM     11  O   UNL     1      42.941   3.049  11.165  0.00  0.00    +0.000 OA
BRANCH  10  12
ATOM     12  C   UNL     1      44.706   3.514   9.742  0.00  0.00    +0.000 A 
ATOM     13  C   UNL     1      45.228   4.443   8.840  0.00  0.00    +0.000 A 
ATOM     14  C   UNL     1      45.992   4.006   7.759  0.00  0.00    +0.000 A 
ATOM     15  C   UNL     1      46.269   2.655   7.651  0.00  0.00    +0.000 A 
ATOM     16  N   UNL     1      45.843   1.735   8.539  0.00  0.00    +0.000 NA
ATOM     17  C   UNL     1      45.079   2.185   9.568  0.00  0.00    +0.000 A 
ENDBRANCH  10  12
ENDBRANCH   7   9
ENDBRANCH   1   7
BRANCH   4  18
ATOM     18  C   UNL     1      48.949   8.278  14.615  0.00  0.00    +0.000 C 
BRANCH  18  19
ATOM     19  N   UNL     1      49.771   7.271  15.240  0.00  0.00    +0.000 N 
ATOM     20  C   UNL     1      49.576   6.852  16.526  0.00  0.00    +0.000 C 
ATOM     21  O   UNL     1      48.679   7.302  17.233  0.00  0.00    +0.000 OA
ATOM     22  H   UNL     1      50.656   7.086  14.776  0.00  0.00    +0.000 HD
BRANCH  20  23
ATOM     23  C   UNL     1      50.453   5.770  16.991  0.00  0.00    +0.000 A 
ATOM     24  C   UNL     1      49.896   4.586  17.456  0.00  0.00    +0.000 A 
ATOM     25  S   UNL     1      51.053   3.408  17.880  0.00  0.00    +0.000 S 
ATOM     26  C   UNL     1      52.340   4.456  17.508  0.00  0.00    +0.000 A 
ATOM     27  N   UNL     1      53.632   4.062  17.667  0.00  0.00    +0.000 NA
ATOM     28  C   UNL     1      54.507   4.965  17.374  0.00  0.00    +0.000 A 
ATOM     29  N   UNL     1      54.207   6.229  16.936  0.00  0.00    +0.000 N 
ATOM     30  C   UNL     1      52.919   6.657  16.718  0.00  0.00    +0.000 A 
ATOM     31  O   UNL     1      52.691   7.767  16.256  0.00  0.00    +0.000 OA
ATOM     32  C   UNL     1      51.894   5.682  17.051  0.00  0.00    +0.000 A 
ATOM     33  H   UNL     1      54.936   6.889  16.708  0.00  0.00    +0.000 HD
ENDBRANCH  20  23
ENDBRANCH  18  19
ENDBRANCH   4  18
TORSDOF 6
ENDMDL
MODEL 8
REMARK VINA RESULT:    -6.966      4.910      6.491
REMARK INTER + INTRA:         -10.238
REMARK INTER:                  -9.015
REMARK INTRA:                  -1.223
REMARK UNBOUND:                -0.829
REMARK  Name = 
REMARK  7 active torsions:
REMARK  status: ('A' for Active; 'I' for Inactive)
REMARK    1  A    between atoms: C_1  and  N_2
REMARK    2  A    between atoms: N_2  and  C_3
REMARK    3  A    between atoms: C_3  and  C_4
REMARK    4  A    between atoms: C_7  and  C_8
REMARK    5  A    between atoms: C_8  and  N_9
REMARK    6  A    between atoms: C_10  and  C_12
REMARK    7  A    between atoms: C_24  and  C_26
REMARK                            x       y       z     vdW  Elec       q    Type
REMARK                         _______ _______ _______ _____ _____    ______ ____
ROOT
ATOM      1  C   UNL     1      46.577   5.229  12.758  0.00  0.00    +0.000 A 
ATOM      2  C   UNL     1      46.732   6.272  11.848  0.00  0.00    +0.000 A 
ATOM      3  C   UNL     1      47.673   7.266  12.098  0.00  0.00    +0.000 A 
ATOM      4  C   UNL     1      48.420   7.202  13.272  0.00  0.00    +0.000 A 
ATOM      5  N   UNL     1      48.308   6.180  14.157  0.00  0.00    +0.000 NA
ATOM      6  C   UNL     1      47.402   5.222  13.879  0.00  0.00    +0.000 A 
ENDROOT
BRANCH   1   7
ATOM      7  C   UNL     1      45.547   4.157  12.562  0.00  0.00    +0.000 C 
BRANCH   7   9
ATOM      8  C   UNL     1      43.316   5.316  12.934  0.00  0.00    +0.000 C 
ATOM      9  N   UNL     1      44.223   4.563  12.070  0.00  0.00    +0.000 N 
ATOM     10  C   UNL     1      43.866   4.549  10.708  0.00  0.00    +0.000 C 
ATOM     11  O   UNL     1      42.856   5.126  10.299  0.00  0.00    +0.000 OA
BRANCH  10  12
ATOM     12  C   UNL     1      44.706   3.879   9.685  0.00  0.00    +0.000 A 
ATOM     13  C   UNL     1      45.506   4.539   8.751  0.00  0.00    +0.000 A 
ATOM     14  C   UNL     1      46.217   3.805   7.804  0.00  0.00    +0.000 A 
ATOM     15  C   UNL     1      46.161   2.424   7.863  0.00  0.00    +0.000 A 
ATOM     16  N   UNL     1      45.457   1.747   8.792  0.00  0.00    +0.000 NA
ATOM     17  C   UNL     1      44.753   2.488   9.687  0.00  0.00    +0.000 A 
ENDBRANCH  10  12
ENDBRANCH   7   9
ENDBRANCH   1   7
BRANCH   4  18
ATOM     18  C   UNL     1      49.414   8.286  13.602  0.00  0.00    +0.000 C 
BRANCH  18  19
ATOM     19  N   UNL     1      50.037   8.824  12.417  0.00  0.00    +0.000 N 
ATOM     20  C   UNL     1      51.229   9.489  12.447  0.00  0.00    +0.000 C 
ATOM     21  O   UNL     1      51.856   9.667  13.488  0.00  0.00    +0.000 OA
ATOM     22  H   UNL     1      49.425   8.917  11.611  0.00  0.00    +0.000 HD
BRANCH  20  23
ATOM     23  C   UNL     1      51.764   9.912  11.146  0.00  0.00    +0.000 A 
ATOM     24  C   UNL     1      51.914  11.265  10.871  0.00  0.00    +0.000 A 
ATOM     25  S   UNL     1      52.621  11.578   9.352  0.00  0.00    +0.000 S 
ATOM     26  C   UNL     1      52.704   9.919   8.985  0.00  0.00    +0.000 A 
ATOM     27  N   UNL     1      53.208   9.489   7.797  0.00  0.00    +0.000 NA
ATOM     28  C   UNL     1      53.186   8.209   7.638  0.00  0.00    +0.000 A 
ATOM     29  N   UNL     1      52.705   7.316   8.561  0.00  0.00    +0.000 N 
ATOM     30  C   UNL     1      52.229   7.700   9.792  0.00  0.00    +0.000 A 
ATOM     31  O   UNL     1      51.876   6.871  10.620  0.00  0.00    +0.000 OA
ATOM     32  C   UNL     1      52.215   9.136  10.013  0.00  0.00    +0.000 A 
ATOM     33  H   UNL     1      52.728   6.322   8.387  0.00  0.00    +0.000 HD
ENDBRANCH  20  23
ENDBRANCH  18  19
ENDBRANCH   4  18
TORSDOF 6
ENDMDL
