MODEL 1
REMARK VINA RESULT:    -8.316      0.000      0.000
REMARK INTER + INTRA:         -12.682
REMARK INTER:                 -11.720
REMARK INTRA:                  -0.963
REMARK UNBOUND:                -0.963
REMARK  Name = 
REMARK  9 active torsions:
REMARK  status: ('A' for Active; 'I' for Inactive)
REMARK    1  A    between atoms: C_1  and  C_2
REMARK    2  A    between atoms: C_6  and  C_7
REMARK    3  A    between atoms: C_7  and  C_8
REMARK    4  A    between atoms: C_7  and  N_9
REMARK    5  A    between atoms: N_9  and  C_10
REMARK    6  A    between atoms: C_10  and  C_11
REMARK    7  A    between atoms: C_14  and  C_15
REMARK    8  A    between atoms: C_15  and  N_16
REMARK    9  A    between atoms: C_17  and  C_19
REMARK                            x       y       z     vdW  Elec       q    Type
REMARK                         _______ _______ _______ _____ _____    ______ ____
ROOT
ATOM      1  C   UNL     1      45.520   5.779  11.910  0.00  0.00    +0.000 A 
ATOM      2  C   UNL     1      45.809   5.087  13.084  0.00  0.00    +0.000 A 
ATOM      3  C   UNL     1      46.926   5.458  13.832  0.00  0.00    +0.000 A 
ATOM      4  C   UNL     1      47.750   6.491  13.383  0.00  0.00    +0.000 A 
ATOM      5  C   UNL     1      47.381   7.132  12.207  0.00  0.00    +0.000 A 
ATOM      6  N   UNL     1      46.301   6.797  11.464  0.00  0.00    +0.000 NA
ENDROOT
BRANCH   1   7
ATOM      7  C   UNL     1      44.323   5.388  11.059  0.00  0.00    +0.000 C 
BRANCH   7   8
ATOM      8  N   UNL     1      44.685   5.021   9.682  0.00  0.00    +0.000 NA
ATOM      9  H   UNL     1      44.218   5.651   9.033  0.00  0.00    +0.000 HD
BRANCH   8  10
ATOM     10  C   UNL     1      44.309   3.645   9.324  0.00  0.00    +0.000 C 
ATOM     11  C   UNL     1      44.046   2.757  10.546  0.00  0.00    +0.000 C 
BRANCH  10  17
ATOM     12  C   UNL     1      46.837  -0.433   7.717  0.00  0.00    +0.000 C 
ATOM     13  C   UNL     1      46.630   1.053   7.689  0.00  0.00    +0.000 A 
ATOM     14  C   UNL     1      47.459   1.876   6.921  0.00  0.00    +0.000 A 
ATOM     15  C   UNL     1      47.264   3.256   6.909  0.00  0.00    +0.000 A 
ATOM     16  C   UNL     1      46.243   3.825   7.669  0.00  0.00    +0.000 A 
ATOM     17  C   UNL     1      45.403   3.024   8.459  0.00  0.00    +0.000 A 
ATOM     18  C   UNL     1      45.602   1.633   8.450  0.00  0.00    +0.000 A 
ENDBRANCH  10  17
ENDBRANCH   8  10
ENDBRANCH   7   8
ENDBRANCH   1   7
BRANCH   4  19
ATOM     19  C   UNL     1      48.959   6.920  14.159  0.00  0.00    +0.000 C 
BRANCH  19  20
ATOM     20  N   UNL     1      48.652   7.095  15.554  0.00  0.00    +0.000 N 
ATOM     21  C   UNL     1      49.495   6.632  16.531  0.00  0.00    +0.000 C 
ATOM     22  O   UNL     1      50.562   6.084  16.261  0.00  0.00    +0.000 OA
ATOM     23  H   UNL     1      47.693   7.325  15.794  0.00  0.00    +0.000 HD
BRANCH  21  24
ATOM     24  C   UNL     1      49.088   6.878  17.919  0.00  0.00    +0.000 A 
ATOM     25  C   UNL     1      48.892   8.182  18.356  0.00  0.00    +0.000 A 
ATOM     26  S   UNL     1      48.371   8.290  19.976  0.00  0.00    +0.000 S 
ATOM     27  C   UNL     1      48.438   6.602  20.166  0.00  0.00    +0.000 A 
ATOM     28  N   UNL     1      48.132   6.020  21.358  0.00  0.00    +0.000 NA
ATOM     29  C   UNL     1      48.250   4.735  21.370  0.00  0.00    +0.000 A 
ATOM     30  N   UNL     1      48.643   3.977  20.299  0.00  0.00    +0.000 N 
ATOM     31  C   UNL     1      48.939   4.517  19.069  0.00  0.00    +0.000 A 
ATOM     32  O   UNL     1      49.256   3.807  18.121  0.00  0.00    +0.000 OA
ATOM     33  C   UNL     1      48.833   5.962  19.005  0.00  0.00    +0.000 A 
ATOM     34  H   UNL     1      48.706   2.972  20.370  0.00  0.00    +0.000 HD
ENDBRANCH  21  24
ENDBRANCH  19  20
ENDBRANCH   4  19
TORSDOF 7
ENDMDL
MODEL 2
REMARK VINA RESULT:    -8.296      1.515      1.751
REMARK INTER + INTRA:         -12.654
REMARK INTER:                 -11.495
REMARK INTRA:                  -1.159
REMARK UNBOUND:                -0.963
REMARK  Name = 
REMARK  9 active torsions:
REMARK  status: ('A' for Active; 'I' for Inactive)
REMARK    1  A    between atoms: C_1  and  C_2
REMARK    2  A    between atoms: C_6  and  C_7
REMARK    3  A    between atoms: C_7  and  C_8
REMARK    4  A    between atoms: C_7  and  N_9
REMARK    5  A    between atoms: N_9  and  C_10
REMARK    6  A    between atoms: C_10  and  C_11
REMARK    7  A    between atoms: C_14  and  C_15
REMARK    8  A    between atoms: C_15  and  N_16
REMARK    9  A    between atoms: C_17  and  C_19
REMARK                            x       y       z     vdW  Elec       q    Type
REMARK                         _______ _______ _______ _____ _____    ______ ____
ROOT
ATOM      1  C   UNL     1      44.987   6.325  11.616  0.00  0.00    +0.000 A 
ATOM      2  C   UNL     1      46.068   5.663  12.195  0.00  0.00    +0.000 A 
ATOM      3  C   UNL     1      46.978   6.391  12.960  0.00  0.00    +0.000 A 
ATOM      4  C   UNL     1      46.811   7.769  13.113  0.00  0.00    +0.000 A 
ATOM      5  C   UNL     1      45.700   8.344  12.509  0.00  0.00    +0.000 A 
ATOM      6  N   UNL     1      44.798   7.662  11.765  0.00  0.00    +0.000 NA
ENDROOT
BRANCH   1   7
ATOM      7  C   UNL     1      43.987   5.566  10.758  0.00  0.00    +0.000 C 
BRANCH   7   8
ATOM      8  N   UNL     1      44.577   5.017   9.529  0.00  0.00    +0.000 NA
ATOM      9  H   UNL     1      44.212   5.525   8.725  0.00  0.00    +0.000 HD
BRANCH   8  10
ATOM     10  C   UNL     1      44.290   3.590   9.327  0.00  0.00    +0.000 C 
ATOM     11  C   UNL     1      44.161   2.811  10.643  0.00  0.00    +0.000 C 
BRANCH  10  17
ATOM     12  C   UNL     1      46.831  -0.492   7.750  0.00  0.00    +0.000 C 
ATOM     13  C   UNL     1      46.614   0.992   7.706  0.00  0.00    +0.000 A 
ATOM     14  C   UNL     1      47.432   1.811   6.921  0.00  0.00    +0.000 A 
ATOM     15  C   UNL     1      47.228   3.190   6.893  0.00  0.00    +0.000 A 
ATOM     16  C   UNL     1      46.209   3.761   7.654  0.00  0.00    +0.000 A 
ATOM     17  C   UNL     1      45.380   2.965   8.461  0.00  0.00    +0.000 A 
ATOM     18  C   UNL     1      45.589   1.575   8.467  0.00  0.00    +0.000 A 
ENDBRANCH  10  17
ENDBRANCH   8  10
ENDBRANCH   7   8
ENDBRANCH   1   7
BRANCH   4  19
ATOM     19  C   UNL     1      47.767   8.587  13.928  0.00  0.00    +0.000 C 
BRANCH  19  20
ATOM     20  N   UNL     1      48.127   7.911  15.148  0.00  0.00    +0.000 N 
ATOM     21  C   UNL     1      49.404   7.463  15.362  0.00  0.00    +0.000 C 
ATOM     22  O   UNL     1      50.303   7.651  14.544  0.00  0.00    +0.000 OA
ATOM     23  H   UNL     1      47.369   7.546  15.717  0.00  0.00    +0.000 HD
BRANCH  21  24
ATOM     24  C   UNL     1      49.660   6.802  16.646  0.00  0.00    +0.000 A 
ATOM     25  C   UNL     1      50.535   7.383  17.555  0.00  0.00    +0.000 A 
ATOM     26  S   UNL     1      50.679   6.516  19.016  0.00  0.00    +0.000 S 
ATOM     27  C   UNL     1      49.618   5.306  18.465  0.00  0.00    +0.000 A 
ATOM     28  N   UNL     1      49.324   4.228  19.242  0.00  0.00    +0.000 NA
ATOM     29  C   UNL     1      48.526   3.376  18.691  0.00  0.00    +0.000 A 
ATOM     30  N   UNL     1      47.993   3.503  17.436  0.00  0.00    +0.000 N 
ATOM     31  C   UNL     1      48.243   4.586  16.625  0.00  0.00    +0.000 A 
ATOM     32  O   UNL     1      47.723   4.687  15.518  0.00  0.00    +0.000 OA
ATOM     33  C   UNL     1      49.143   5.570  17.193  0.00  0.00    +0.000 A 
ATOM     34  H   UNL     1      47.366   2.805  17.065  0.00  0.00    +0.000 HD
ENDBRANCH  21  24
ENDBRANCH  19  20
ENDBRANCH   4  19
TORSDOF 7
ENDMDL
MODEL 3
REMARK VINA RESULT:    -8.242      1.408      2.126
REMARK INTER + INTRA:         -12.577
REMARK INTER:                 -11.448
REMARK INTRA:                  -1.129
REMARK UNBOUND:                -0.963
REMARK  Name = 
REMARK  9 active torsions:
REMARK  status: ('A' for Active; 'I' for Inactive)
REMARK    1  A    between atoms: C_1  and  C_2
REMARK    2  A    between atoms: C_6  and  C_7
REMARK    3  A    between atoms: C_7  and  C_8
REMARK    4  A    between atoms: C_7  and  N_9
REMARK    5  A    between atoms: N_9  and  C_10
REMARK    6  A    between atoms: C_10  and  C_11
REMARK    7  A    between atoms: C_14  and  C_15
REMARK    8  A    between atoms: C_15  and  N_16
REMARK    9  A    between atoms: C_17  and  C_19
REMARK                            x       y       z     vdW  Elec       q    Type
REMARK                         _______ _______ _______ _____ _____    ______ ____
ROOT
ATOM      1  C   UNL     1      45.212   5.769  11.972  0.00  0.00    +0.000 A 
ATOM      2  C   UNL     1      46.103   6.712  11.467  0.00  0.00    +0.000 A 
ATOM      3  C   UNL     1      47.222   7.060  12.222  0.00  0.00    +0.000 A 
ATOM      4  C   UNL     1      47.419   6.484  13.478  0.00  0.00    +0.000 A 
ATOM      5  C   UNL     1      46.485   5.546  13.899  0.00  0.00    +0.000 A 
ATOM      6  N   UNL     1      45.392   5.186  13.186  0.00  0.00    +0.000 NA
ENDROOT
BRANCH   1   7
ATOM      7  C   UNL     1      43.970   5.381  11.186  0.00  0.00    +0.000 C 
BRANCH   7   8
ATOM      8  N   UNL     1      44.259   4.999   9.796  0.00  0.00    +0.000 NA
ATOM      9  H   UNL     1      43.646   5.518   9.170  0.00  0.00    +0.000 HD
BRANCH   8  10
ATOM     10  C   UNL     1      44.066   3.566   9.529  0.00  0.00    +0.000 C 
ATOM     11  C   UNL     1      44.005   2.720  10.808  0.00  0.00    +0.000 C 
BRANCH  10  17
ATOM     12  C   UNL     1      46.810  -0.265   7.686  0.00  0.00    +0.000 C 
ATOM     13  C   UNL     1      46.518   1.206   7.741  0.00  0.00    +0.000 A 
ATOM     14  C   UNL     1      47.291   2.116   7.015  0.00  0.00    +0.000 A 
ATOM     15  C   UNL     1      47.017   3.482   7.080  0.00  0.00    +0.000 A 
ATOM     16  C   UNL     1      45.971   3.948   7.875  0.00  0.00    +0.000 A 
ATOM     17  C   UNL     1      45.186   3.058   8.626  0.00  0.00    +0.000 A 
ATOM     18  C   UNL     1      45.465   1.683   8.539  0.00  0.00    +0.000 A 
ENDBRANCH  10  17
ENDBRANCH   8  10
ENDBRANCH   7   8
ENDBRANCH   1   7
BRANCH   4  19
ATOM     19  C   UNL     1      48.610   6.832  14.320  0.00  0.00    +0.000 C 
BRANCH  19  20
ATOM     20  N   UNL     1      48.327   6.665  15.722  0.00  0.00    +0.000 N 
ATOM     21  C   UNL     1      49.292   6.235  16.595  0.00  0.00    +0.000 C 
ATOM     22  O   UNL     1      50.445   6.011  16.230  0.00  0.00    +0.000 OA
ATOM     23  H   UNL     1      47.351   6.616  15.997  0.00  0.00    +0.000 HD
BRANCH  21  24
ATOM     24  C   UNL     1      48.897   6.114  18.003  0.00  0.00    +0.000 A 
ATOM     25  C   UNL     1      49.045   4.898  18.656  0.00  0.00    +0.000 A 
ATOM     26  S   UNL     1      48.589   4.943  20.298  0.00  0.00    +0.000 S 
ATOM     27  C   UNL     1      48.129   6.576  20.181  0.00  0.00    +0.000 A 
ATOM     28  N   UNL     1      47.614   7.235  21.255  0.00  0.00    +0.000 NA
ATOM     29  C   UNL     1      47.284   8.460  21.019  0.00  0.00    +0.000 A 
ATOM     30  N   UNL     1      47.424   9.089  19.810  0.00  0.00    +0.000 N 
ATOM     31  C   UNL     1      47.961   8.471  18.705  0.00  0.00    +0.000 A 
ATOM     32  O   UNL     1      48.104   9.071  17.645  0.00  0.00    +0.000 OA
ATOM     33  C   UNL     1      48.340   7.086  18.913  0.00  0.00    +0.000 A 
ATOM     34  H   UNL     1      47.155  10.054  19.693  0.00  0.00    +0.000 HD
ENDBRANCH  21  24
ENDBRANCH  19  20
ENDBRANCH   4  19
TORSDOF 7
ENDMDL
MODEL 4
REMARK VINA RESULT:    -7.825      3.295      9.082
REMARK INTER + INTRA:         -11.989
REMARK INTER:                 -10.147
REMARK INTRA:                  -1.843
REMARK UNBOUND:                -0.963
REMARK  Name = 
REMARK  9 active torsions:
REMARK  status: ('A' for Active; 'I' for Inactive)
REMARK    1  A    between atoms: C_1  and  C_2
REMARK    2  A    between atoms: C_6  and  C_7
REMARK    3  A    between atoms: C_7  and  C_8
REMARK    4  A    between atoms: C_7  and  N_9
REMARK    5  A    between atoms: N_9  and  C_10
REMARK    6  A    between atoms: C_10  and  C_11
REMARK    7  A    between atoms: C_14  and  C_15
REMARK    8  A    between atoms: C_15  and  N_16
REMARK    9  A    between atoms: C_17  and  C_19
REMARK                            x       y       z     vdW  Elec       q    Type
REMARK                         _______ _______ _______ _____ _____    ______ ____
ROOT
ATOM      1  C   UNL     1      48.992   8.055  16.127  0.00  0.00    +0.000 A 
ATOM      2  C   UNL     1      49.570   7.069  15.330  0.00  0.00    +0.000 A 
ATOM      3  C   UNL     1      49.178   6.959  13.997  0.00  0.00    +0.000 A 
ATOM      4  C   UNL     1      48.199   7.814  13.487  0.00  0.00    +0.000 A 
ATOM      5  C   UNL     1      47.684   8.773  14.350  0.00  0.00    +0.000 A 
ATOM      6  N   UNL     1      48.048   8.906  15.647  0.00  0.00    +0.000 NA
ENDROOT
BRANCH   1   7
ATOM      7  C   UNL     1      49.379   8.190  17.590  0.00  0.00    +0.000 C 
BRANCH   7   8
ATOM      8  N   UNL     1      48.430   7.539  18.504  0.00  0.00    +0.000 NA
ATOM      9  H   UNL     1      48.137   8.206  19.216  0.00  0.00    +0.000 HD
BRANCH   8  10
ATOM     10  C   UNL     1      48.987   6.365  19.191  0.00  0.00    +0.000 C 
ATOM     11  C   UNL     1      50.500   6.469  19.425  0.00  0.00    +0.000 C 
BRANCH  10  17
ATOM     12  C   UNL     1      50.497   2.006  17.110  0.00  0.00    +0.000 C 
ATOM     13  C   UNL     1      49.406   3.002  17.374  0.00  0.00    +0.000 A 
ATOM     14  C   UNL     1      48.123   2.814  16.851  0.00  0.00    +0.000 A 
ATOM     15  C   UNL     1      47.120   3.750  17.095  0.00  0.00    +0.000 A 
ATOM     16  C   UNL     1      47.392   4.884  17.859  0.00  0.00    +0.000 A 
ATOM     17  C   UNL     1      48.674   5.105  18.387  0.00  0.00    +0.000 A 
ATOM     18  C   UNL     1      49.672   4.146  18.145  0.00  0.00    +0.000 A 
ENDBRANCH  10  17
ENDBRANCH   8  10
ENDBRANCH   7   8
ENDBRANCH   1   7
BRANCH   4  19
ATOM     19  C   UNL     1      47.752   7.727  12.059  0.00  0.00    +0.000 C 
BRANCH  19  20
ATOM     20  N   UNL     1      47.030   6.507  11.809  0.00  0.00    +0.000 N 
ATOM     21  C   UNL     1      45.675   6.430  12.001  0.00  0.00    +0.000 C 
ATOM     22  O   UNL     1      45.014   7.404  12.356  0.00  0.00    +0.000 OA
ATOM     23  H   UNL     1      47.573   5.651  11.746  0.00  0.00    +0.000 HD
BRANCH  21  24
ATOM     24  C   UNL     1      45.042   5.141  11.700  0.00  0.00    +0.000 A 
ATOM     25  C   UNL     1      44.360   4.461  12.701  0.00  0.00    +0.000 A 
ATOM     26  S   UNL     1      43.639   3.009  12.173  0.00  0.00    +0.000 S 
ATOM     27  C   UNL     1      44.257   3.211  10.602  0.00  0.00    +0.000 A 
ATOM     28  N   UNL     1      44.025   2.282   9.635  0.00  0.00    +0.000 NA
ATOM     29  C   UNL     1      44.573   2.548   8.497  0.00  0.00    +0.000 A 
ATOM     30  N   UNL     1      45.330   3.659   8.235  0.00  0.00    +0.000 N 
ATOM     31  C   UNL     1      45.571   4.637   9.173  0.00  0.00    +0.000 A 
ATOM     32  O   UNL     1      46.225   5.637   8.898  0.00  0.00    +0.000 OA
ATOM     33  C   UNL     1      44.985   4.380  10.475  0.00  0.00    +0.000 A 
ATOM     34  H   UNL     1      45.724   3.815   7.320  0.00  0.00    +0.000 HD
ENDBRANCH  21  24
ENDBRANCH  19  20
ENDBRANCH   4  19
TORSDOF 7
ENDMDL
MODEL 5
REMARK VINA RESULT:    -7.361      1.672      1.993
REMARK INTER + INTRA:         -11.337
REMARK INTER:                 -10.387
REMARK INTRA:                  -0.950
REMARK UNBOUND:                -0.963
REMARK  Name = 
REMARK  9 active torsions:
REMARK  status: ('A' for Active; 'I' for Inactive)
REMARK    1  A    between atoms: C_1  and  C_2
REMARK    2  A    between atoms: C_6  and  C_7
REMARK    3  A    between atoms: C_7  and  C_8
REMARK    4  A    between atoms: C_7  and  N_9
REMARK    5  A    between atoms: N_9  and  C_10
REMARK    6  A    between atoms: C_10  and  C_11
REMARK    7  A    between atoms: C_14  and  C_15
REMARK    8  A    between atoms: C_15  and  N_16
REMARK    9  A    between atoms: C_17  and  C_19
REMARK                            x       y       z     vdW  Elec       q    Type
REMARK                         _______ _______ _______ _____ _____    ______ ____
ROOT
ATOM      1  C   UNL     1      45.349   4.495  12.680  0.00  0.00    +0.000 A 
ATOM      2  C   UNL     1      46.531   4.116  13.314  0.00  0.00    +0.000 A 
ATOM      3  C   UNL     1      47.416   5.104  13.743  0.00  0.00    +0.000 A 
ATOM      4  C   UNL     1      47.123   6.449  13.509  0.00  0.00    +0.000 A 
ATOM      5  C   UNL     1      45.918   6.735  12.880  0.00  0.00    +0.000 A 
ATOM      6  N   UNL     1      45.038   5.798  12.457  0.00  0.00    +0.000 NA
ENDROOT
BRANCH   1   7
ATOM      7  C   UNL     1      44.371   3.444  12.180  0.00  0.00    +0.000 C 
BRANCH   7   8
ATOM      8  N   UNL     1      44.781   2.827  10.910  0.00  0.00    +0.000 NA
ATOM      9  H   UNL     1      45.621   2.272  11.061  0.00  0.00    +0.000 HD
BRANCH   8  10
ATOM     10  C   UNL     1      45.072   3.804   9.851  0.00  0.00    +0.000 C 
ATOM     11  C   UNL     1      43.824   4.555   9.367  0.00  0.00    +0.000 C 
BRANCH  10  17
ATOM     12  C   UNL     1      46.725  -0.442   7.650  0.00  0.00    +0.000 C 
ATOM     13  C   UNL     1      46.547   1.048   7.614  0.00  0.00    +0.000 A 
ATOM     14  C   UNL     1      47.031   1.800   6.539  0.00  0.00    +0.000 A 
ATOM     15  C   UNL     1      46.869   3.184   6.519  0.00  0.00    +0.000 A 
ATOM     16  C   UNL     1      46.226   3.828   7.575  0.00  0.00    +0.000 A 
ATOM     17  C   UNL     1      45.740   3.100   8.674  0.00  0.00    +0.000 A 
ATOM     18  C   UNL     1      45.899   1.703   8.672  0.00  0.00    +0.000 A 
ENDBRANCH  10  17
ENDBRANCH   8  10
ENDBRANCH   7   8
ENDBRANCH   1   7
BRANCH   4  19
ATOM     19  C   UNL     1      48.049   7.540  13.956  0.00  0.00    +0.000 C 
BRANCH  19  20
ATOM     20  N   UNL     1      47.784   7.928  15.317  0.00  0.00    +0.000 N 
ATOM     21  C   UNL     1      48.507   8.920  15.926  0.00  0.00    +0.000 C 
ATOM     22  O   UNL     1      49.382   9.544  15.331  0.00  0.00    +0.000 OA
ATOM     23  H   UNL     1      47.244   7.284  15.887  0.00  0.00    +0.000 HD
BRANCH  21  24
ATOM     24  C   UNL     1      48.142   9.242  17.310  0.00  0.00    +0.000 A 
ATOM     25  C   UNL     1      47.907  10.563  17.669  0.00  0.00    +0.000 A 
ATOM     26  S   UNL     1      47.441  10.758  19.298  0.00  0.00    +0.000 S 
ATOM     27  C   UNL     1      47.586   9.089  19.594  0.00  0.00    +0.000 A 
ATOM     28  N   UNL     1      47.348   8.577  20.833  0.00  0.00    +0.000 NA
ATOM     29  C   UNL     1      47.520   7.301  20.923  0.00  0.00    +0.000 A 
ATOM     30  N   UNL     1      47.905   6.489  19.889  0.00  0.00    +0.000 N 
ATOM     31  C   UNL     1      48.133   6.958  18.616  0.00  0.00    +0.000 A 
ATOM     32  O   UNL     1      48.444   6.200  17.704  0.00  0.00    +0.000 OA
ATOM     33  C   UNL     1      47.964   8.390  18.463  0.00  0.00    +0.000 A 
ATOM     34  H   UNL     1      48.013   5.495  20.022  0.00  0.00    +0.000 HD
ENDBRANCH  21  24
ENDBRANCH  19  20
ENDBRANCH   4  19
TORSDOF 7
ENDMDL
MODEL 6
REMARK VINA RESULT:    -7.319      3.781      8.750
REMARK INTER + INTRA:         -11.276
REMARK INTER:                  -9.452
REMARK INTRA:                  -1.824
REMARK UNBOUND:                -0.963
REMARK  Name = 
REMARK  9 active torsions:
REMARK  status: ('A' for Active; 'I' for Inactive)
REMARK    1  A    between atoms: C_1  and  C_2
REMARK    2  A    between atoms: C_6  and  C_7
REMARK    3  A    between atoms: C_7  and  C_8
REMARK    4  A    between atoms: C_7  and  N_9
REMARK    5  A    between atoms: N_9  and  C_10
REMARK    6  A    between atoms: C_10  and  C_11
REMARK    7  A    between atoms: C_14  and  C_15
REMARK    8  A    between atoms: C_15  and  N_16
REMARK    9  A    between atoms: C_17  and  C_19
REMARK                            x       y       z     vdW  Elec       q    Type
REMARK                         _______ _______ _______ _____ _____    ______ ____
ROOT
ATOM      1  C   UNL     1      49.910   7.714  18.236  0.00  0.00    +0.000 A 
ATOM      2  C   UNL     1      48.813   8.558  18.085  0.00  0.00    +0.000 A 
ATOM      3  C   UNL     1      48.333   8.823  16.804  0.00  0.00    +0.000 A 
ATOM      4  C   UNL     1      48.970   8.266  15.694  0.00  0.00    +0.000 A 
ATOM      5  C   UNL     1      50.052   7.428  15.938  0.00  0.00    +0.000 A 
ATOM      6  N   UNL     1      50.537   7.150  17.170  0.00  0.00    +0.000 NA
ENDROOT
BRANCH   1   7
ATOM      7  C   UNL     1      50.474   7.420  19.617  0.00  0.00    +0.000 C 
BRANCH   7   8
ATOM      8  N   UNL     1      50.281   6.024  20.038  0.00  0.00    +0.000 NA
ATOM      9  H   UNL     1      50.772   5.408  19.392  0.00  0.00    +0.000 HD
BRANCH   8  10
ATOM     10  C   UNL     1      48.871   5.611  20.070  0.00  0.00    +0.000 C 
ATOM     11  C   UNL     1      48.487   4.889  21.368  0.00  0.00    +0.000 C 
BRANCH  10  17
ATOM     12  C   UNL     1      50.259   1.903  16.918  0.00  0.00    +0.000 C 
ATOM     13  C   UNL     1      49.248   2.926  17.343  0.00  0.00    +0.000 A 
ATOM     14  C   UNL     1      48.061   3.100  16.624  0.00  0.00    +0.000 A 
ATOM     15  C   UNL     1      47.132   4.060  17.022  0.00  0.00    +0.000 A 
ATOM     16  C   UNL     1      47.384   4.857  18.138  0.00  0.00    +0.000 A 
ATOM     17  C   UNL     1      48.573   4.713  18.872  0.00  0.00    +0.000 A 
ATOM     18  C   UNL     1      49.493   3.732  18.467  0.00  0.00    +0.000 A 
ENDBRANCH  10  17
ENDBRANCH   8  10
ENDBRANCH   7   8
ENDBRANCH   1   7
BRANCH   4  19
ATOM     19  C   UNL     1      48.484   8.526  14.300  0.00  0.00    +0.000 C 
BRANCH  19  20
ATOM     20  N   UNL     1      47.426   7.621  13.936  0.00  0.00    +0.000 N 
ATOM     21  C   UNL     1      47.676   6.494  13.197  0.00  0.00    +0.000 C 
ATOM     22  O   UNL     1      48.814   6.188  12.848  0.00  0.00    +0.000 OA
ATOM     23  H   UNL     1      46.473   7.966  14.008  0.00  0.00    +0.000 HD
BRANCH  21  24
ATOM     24  C   UNL     1      46.524   5.637  12.897  0.00  0.00    +0.000 A 
ATOM     25  C   UNL     1      46.582   4.280  13.191  0.00  0.00    +0.000 A 
ATOM     26  S   UNL     1      45.143   3.440  12.830  0.00  0.00    +0.000 S 
ATOM     27  C   UNL     1      44.410   4.848  12.221  0.00  0.00    +0.000 A 
ATOM     28  N   UNL     1      43.148   4.815  11.713  0.00  0.00    +0.000 NA
ATOM     29  C   UNL     1      42.725   5.947  11.262  0.00  0.00    +0.000 A 
ATOM     30  N   UNL     1      43.446   7.112  11.274  0.00  0.00    +0.000 N 
ATOM     31  C   UNL     1      44.715   7.199  11.799  0.00  0.00    +0.000 A 
ATOM     32  O   UNL     1      45.322   8.265  11.825  0.00  0.00    +0.000 OA
ATOM     33  C   UNL     1      45.243   5.949  12.310  0.00  0.00    +0.000 A 
ATOM     34  H   UNL     1      43.054   7.969  10.914  0.00  0.00    +0.000 HD
ENDBRANCH  21  24
ENDBRANCH  19  20
ENDBRANCH   4  19
TORSDOF 7
ENDMDL
MODEL 7
REMARK VINA RESULT:    -7.201      3.574      8.451
REMARK INTER + INTRA:         -11.110
REMARK INTER:                 -10.088
REMARK INTRA:                  -1.022
REMARK UNBOUND:                -0.963
REMARK  Name = 
REMARK  9 active torsions:
REMARK  status: ('A' for Active; 'I' for Inactive)
REMARK    1  A    between atoms: C_1  and  C_2
REMARK    2  A    between atoms: C_6  and  C_7
REMARK    3  A    between atoms: C_7  and  C_8
REMARK    4  A    between atoms: C_7  and  N_9
REMARK    5  A    between atoms: N_9  and  C_10
REMARK    6  A    between atoms: C_10  and  C_11
REMARK    7  A    between atoms: C_14  and  C_15
REMARK    8  A    between atoms: C_15  and  N_16
REMARK    9  A    between atoms: C_17  and  C_19
REMARK                            x       y       z     vdW  Elec       q    Type
REMARK                         _______ _______ _______ _____ _____    ______ ____
ROOT
ATOM      1  C   UNL     1      49.470   8.079  17.368  0.00  0.00    +0.000 A 
ATOM      2  C   UNL     1      50.475   7.324  16.768  0.00  0.00    +0.000 A 
ATOM      3  C   UNL     1      50.476   7.176  15.381  0.00  0.00    +0.000 A 
ATOM      4  C   UNL     1      49.461   7.759  14.620  0.00  0.00    +0.000 A 
ATOM      5  C   UNL     1      48.505   8.502  15.300  0.00  0.00    +0.000 A 
ATOM      6  N   UNL     1      48.481   8.666  16.644  0.00  0.00    +0.000 NA
ENDROOT
BRANCH   1   7
ATOM      7  C   UNL     1      49.426   8.243  18.878  0.00  0.00    +0.000 C 
BRANCH   7   8
ATOM      8  N   UNL     1      49.518   6.967  19.604  0.00  0.00    +0.000 NA
ATOM      9  H   UNL     1      50.202   6.368  19.145  0.00  0.00    +0.000 HD
BRANCH   8  10
ATOM     10  C   UNL     1      48.246   6.233  19.664  0.00  0.00    +0.000 C 
ATOM     11  C   UNL     1      47.935   5.685  21.063  0.00  0.00    +0.000 C 
BRANCH  10  17
ATOM     12  C   UNL     1      50.704   2.442  17.384  0.00  0.00    +0.000 C 
ATOM     13  C   UNL     1      49.458   3.262  17.546  0.00  0.00    +0.000 A 
ATOM     14  C   UNL     1      48.335   3.022  16.747  0.00  0.00    +0.000 A 
ATOM     15  C   UNL     1      47.185   3.795  16.899  0.00  0.00    +0.000 A 
ATOM     16  C   UNL     1      47.150   4.817  17.846  0.00  0.00    +0.000 A 
ATOM     17  C   UNL     1      48.266   5.089  18.654  0.00  0.00    +0.000 A 
ATOM     18  C   UNL     1      49.413   4.292  18.499  0.00  0.00    +0.000 A 
ENDBRANCH  10  17
ENDBRANCH   8  10
ENDBRANCH   7   8
ENDBRANCH   1   7
BRANCH   4  19
ATOM     19  C   UNL     1      49.427   7.624  13.128  0.00  0.00    +0.000 C 
BRANCH  19  20
ATOM     20  N   UNL     1      48.097   7.340  12.657  0.00  0.00    +0.000 N 
ATOM     21  C   UNL     1      47.500   6.130  12.901  0.00  0.00    +0.000 C 
ATOM     22  O   UNL     1      48.055   5.255  13.562  0.00  0.00    +0.000 OA
ATOM     23  H   UNL     1      47.723   7.940  11.928  0.00  0.00    +0.000 HD
BRANCH  21  24
ATOM     24  C   UNL     1      46.137   5.956  12.386  0.00  0.00    +0.000 A 
ATOM     25  C   UNL     1      45.444   7.053  11.891  0.00  0.00    +0.000 A 
ATOM     26  S   UNL     1      43.898   6.669  11.284  0.00  0.00    +0.000 S 
ATOM     27  C   UNL     1      44.079   5.032  11.708  0.00  0.00    +0.000 A 
ATOM     28  N   UNL     1      43.080   4.136  11.481  0.00  0.00    +0.000 NA
ATOM     29  C   UNL     1      43.341   2.935  11.875  0.00  0.00    +0.000 A 
ATOM     30  N   UNL     1      44.510   2.546  12.473  0.00  0.00    +0.000 N 
ATOM     31  C   UNL     1      45.556   3.409  12.701  0.00  0.00    +0.000 A 
ATOM     32  O   UNL     1      46.603   3.022  13.209  0.00  0.00    +0.000 OA
ATOM     33  C   UNL     1      45.310   4.777  12.286  0.00  0.00    +0.000 A 
ATOM     34  H   UNL     1      44.656   1.587  12.750  0.00  0.00    +0.000 HD
ENDBRANCH  21  24
ENDBRANCH  19  20
ENDBRANCH   4  19
TORSDOF 7
ENDMDL
MODEL 8
REMARK VINA RESULT:    -7.132      2.661      3.820
REMARK INTER + INTRA:         -11.013
REMARK INTER:                 -10.061
REMARK INTRA:                  -0.952
REMARK UNBOUND:                -0.963
REMARK  Name = 
REMARK  9 active torsions:
REMARK  status: ('A' for Active; 'I' for Inactive)
REMARK    1  A    between atoms: C_1  and  C_2
REMARK    2  A    between atoms: C_6  and  C_7
REMARK    3  A    between atoms: C_7  and  C_8
REMARK    4  A    between atoms: C_7  and  N_9
REMARK    5  A    between atoms: N_9  and  C_10
REMARK    6  A    between atoms: C_10  and  C_11
REMARK    7  A    between atoms: C_14  and  C_15
REMARK    8  A    between atoms: C_15  and  N_16
REMARK    9  A    between atoms: C_17  and  C_19
REMARK                            x       y       z     vdW  Elec       q    Type
REMARK                         _______ _______ _______ _____ _____    ______ ____
ROOT
ATOM      1  C   UNL     1      47.514   7.347  13.386  0.00  0.00    +0.000 A 
ATOM      2  C   UNL     1      47.963   6.210  14.054  0.00  0.00    +0.000 A 
ATOM      3  C   UNL     1      48.597   6.355  15.287  0.00  0.00    +0.000 A 
ATOM      4  C   UNL     1      48.796   7.629  15.820  0.00  0.00    +0.000 A 
ATOM      5  C   UNL     1      48.307   8.706  15.091  0.00  0.00    +0.000 A 
ATOM      6  N   UNL     1      47.684   8.595  13.894  0.00  0.00    +0.000 NA
ENDROOT
BRANCH   1   7
ATOM      7  C   UNL     1      46.838   7.228  12.029  0.00  0.00    +0.000 C 
BRANCH   7   8
ATOM      8  N   UNL     1      46.207   5.919  11.808  0.00  0.00    +0.000 NA
ATOM      9  H   UNL     1      46.901   5.267  11.447  0.00  0.00    +0.000 HD
BRANCH   8  10
ATOM     10  C   UNL     1      45.090   5.960  10.853  0.00  0.00    +0.000 C 
ATOM     11  C   UNL     1      43.723   6.115  11.534  0.00  0.00    +0.000 C 
BRANCH  10  17
ATOM     12  C   UNL     1      46.516   3.524   6.653  0.00  0.00    +0.000 C 
ATOM     13  C   UNL     1      45.783   3.522   7.963  0.00  0.00    +0.000 A 
ATOM     14  C   UNL     1      45.069   2.394   8.381  0.00  0.00    +0.000 A 
ATOM     15  C   UNL     1      44.384   2.405   9.595  0.00  0.00    +0.000 A 
ATOM     16  C   UNL     1      44.402   3.545  10.397  0.00  0.00    +0.000 A 
ATOM     17  C   UNL     1      45.100   4.696   9.997  0.00  0.00    +0.000 A 
ATOM     18  C   UNL     1      45.798   4.665   8.778  0.00  0.00    +0.000 A 
ENDBRANCH  10  17
ENDBRANCH   8  10
ENDBRANCH   7   8
ENDBRANCH   1   7
BRANCH   4  19
ATOM     19  C   UNL     1      49.472   7.827  17.144  0.00  0.00    +0.000 C 
BRANCH  19  20
ATOM     20  N   UNL     1      50.448   6.798  17.393  0.00  0.00    +0.000 N 
ATOM     21  C   UNL     1      50.255   5.857  18.371  0.00  0.00    +0.000 C 
ATOM     22  O   UNL     1      49.230   5.826  19.048  0.00  0.00    +0.000 OA
ATOM     23  H   UNL     1      51.381   6.942  17.018  0.00  0.00    +0.000 HD
BRANCH  21  24
ATOM     24  C   UNL     1      51.309   4.848  18.526  0.00  0.00    +0.000 A 
ATOM     25  C   UNL     1      52.474   5.171  19.212  0.00  0.00    +0.000 A 
ATOM     26  S   UNL     1      53.570   3.873  19.349  0.00  0.00    +0.000 S 
ATOM     27  C   UNL     1      52.550   2.847  18.454  0.00  0.00    +0.000 A 
ATOM     28  N   UNL     1      52.917   1.566  18.177  0.00  0.00    +0.000 NA
ATOM     29  C   UNL     1      52.061   0.909  17.468  0.00  0.00    +0.000 A 
ATOM     30  N   UNL     1      50.872   1.413  17.012  0.00  0.00    +0.000 N 
ATOM     31  C   UNL     1      50.449   2.693  17.287  0.00  0.00    +0.000 A 
ATOM     32  O   UNL     1      49.363   3.104  16.892  0.00  0.00    +0.000 OA
ATOM     33  C   UNL     1      51.381   3.480  18.073  0.00  0.00    +0.000 A 
ATOM     34  H   UNL     1      50.241   0.843  16.470  0.00  0.00    +0.000 HD
ENDBRANCH  21  24
ENDBRANCH  19  20
ENDBRANCH   4  19
TORSDOF 7
ENDMDL
MODEL 9
REMARK VINA RESULT:    -7.082      1.585      2.168
REMARK INTER + INTRA:         -10.943
REMARK INTER:                 -10.119
REMARK INTRA:                  -0.824
REMARK UNBOUND:                -0.963
REMARK  Name = 
REMARK  9 active torsions:
REMARK  status: ('A' for Active; 'I' for Inactive)
REMARK    1  A    between atoms: C_1  and  C_2
REMARK    2  A    between atoms: C_6  and  C_7
REMARK    3  A    between atoms: C_7  and  C_8
REMARK    4  A    between atoms: C_7  and  N_9
REMARK    5  A    between atoms: N_9  and  C_10
REMARK    6  A    between atoms: C_10  and  C_11
REMARK    7  A    between atoms: C_14  and  C_15
REMARK    8  A    between atoms: C_15  and  N_16
REMARK    9  A    between atoms: C_17  and  C_19
REMARK                            x       y       z     vdW  Elec       q    Type
REMARK                         _______ _______ _______ _____ _____    ______ ____
ROOT
ATOM      1  C   UNL     1      45.059   4.156  12.267  0.00  0.00    +0.000 A 
ATOM      2  C   UNL     1      45.075   5.529  12.033  0.00  0.00    +0.000 A 
ATOM      3  C   UNL     1      46.068   6.306  12.627  0.00  0.00    +0.000 A 
ATOM      4  C   UNL     1      47.011   5.708  13.465  0.00  0.00    +0.000 A 
ATOM      5  C   UNL     1      46.926   4.331  13.634  0.00  0.00    +0.000 A 
ATOM      6  N   UNL     1      45.976   3.552  13.067  0.00  0.00    +0.000 NA
ENDROOT
BRANCH   1   7
ATOM      7  C   UNL     1      43.978   3.281  11.653  0.00  0.00    +0.000 C 
BRANCH   7   8
ATOM      8  N   UNL     1      44.436   2.535  10.472  0.00  0.00    +0.000 NA
ATOM      9  H   UNL     1      45.128   1.845  10.758  0.00  0.00    +0.000 HD
BRANCH   8  10
ATOM     10  C   UNL     1      45.049   3.386   9.442  0.00  0.00    +0.000 C 
ATOM     11  C   UNL     1      44.030   4.267   8.706  0.00  0.00    +0.000 C 
BRANCH  10  17
ATOM     12  C   UNL     1      47.626   2.920   5.112  0.00  0.00    +0.000 C 
ATOM     13  C   UNL     1      47.038   2.289   6.340  0.00  0.00    +0.000 A 
ATOM     14  C   UNL     1      47.126   0.909   6.547  0.00  0.00    +0.000 A 
ATOM     15  C   UNL     1      46.568   0.332   7.687  0.00  0.00    +0.000 A 
ATOM     16  C   UNL     1      45.914   1.129   8.626  0.00  0.00    +0.000 A 
ATOM     17  C   UNL     1      45.799   2.516   8.438  0.00  0.00    +0.000 A 
ATOM     18  C   UNL     1      46.379   3.085   7.291  0.00  0.00    +0.000 A 
ENDBRANCH  10  17
ENDBRANCH   8  10
ENDBRANCH   7   8
ENDBRANCH   1   7
BRANCH   4  19
ATOM     19  C   UNL     1      48.095   6.508  14.121  0.00  0.00    +0.000 C 
BRANCH  19  20
ATOM     20  N   UNL     1      48.120   6.289  15.544  0.00  0.00    +0.000 N 
ATOM     21  C   UNL     1      48.862   7.089  16.373  0.00  0.00    +0.000 C 
ATOM     22  O   UNL     1      49.504   8.047  15.947  0.00  0.00    +0.000 OA
ATOM     23  H   UNL     1      47.798   5.387  15.881  0.00  0.00    +0.000 HD
BRANCH  21  24
ATOM     24  C   UNL     1      48.803   6.783  17.807  0.00  0.00    +0.000 A 
ATOM     25  C   UNL     1      47.741   7.257  18.567  0.00  0.00    +0.000 A 
ATOM     26  S   UNL     1      47.795   6.766  20.199  0.00  0.00    +0.000 S 
ATOM     27  C   UNL     1      49.266   5.946  19.959  0.00  0.00    +0.000 A 
ATOM     28  N   UNL     1      49.888   5.312  20.991  0.00  0.00    +0.000 NA
ATOM     29  C   UNL     1      51.007   4.753  20.674  0.00  0.00    +0.000 A 
ATOM     30  N   UNL     1      51.561   4.766  19.422  0.00  0.00    +0.000 N 
ATOM     31  C   UNL     1      50.957   5.373  18.344  0.00  0.00    +0.000 A 
ATOM     32  O   UNL     1      51.463   5.338  17.228  0.00  0.00    +0.000 OA
ATOM     33  C   UNL     1      49.699   6.027  18.649  0.00  0.00    +0.000 A 
ATOM     34  H   UNL     1      52.437   4.300  19.236  0.00  0.00    +0.000 HD
ENDBRANCH  21  24
ENDBRANCH  19  20
ENDBRANCH   4  19
TORSDOF 7
ENDMDL
