MODEL 1
REMARK VINA RESULT:    -7.511      0.000      0.000
REMARK INTER + INTRA:          -9.793
REMARK INTER:                  -9.267
REMARK INTRA:                  -0.526
REMARK UNBOUND:                -0.526
REMARK  Name = 
REMARK  4 active torsions:
REMARK  status: ('A' for Active; 'I' for Inactive)
REMARK    1  A    between atoms: C_2  and  C_3
REMARK    2  A    between atoms: N_6  and  C_7
REMARK    3  A    between atoms: C_7  and  C_8
REMARK    4  A    between atoms: C_12  and  C_13
REMARK                            x       y       z     vdW  Elec       q    Type
REMARK                         _______ _______ _______ _____ _____    ______ ____
ROOT
ATOM      1  C   UNL     1      43.802   4.621  10.780  0.00  0.00    +0.000 A 
ATOM      2  C   UNL     1      43.264   3.518  11.428  0.00  0.00    +0.000 A 
ATOM      3  N   UNL     1      43.411   2.240  11.010  0.00  0.00    +0.000 NA
ATOM      4  C   UNL     1      44.143   2.038   9.889  0.00  0.00    +0.000 A 
ATOM      5  C   UNL     1      44.729   3.056   9.147  0.00  0.00    +0.000 A 
ATOM      6  C   UNL     1      44.536   4.370   9.613  0.00  0.00    +0.000 A 
ENDROOT
BRANCH   5   7
ATOM      7  C   UNL     1      45.590   2.809   7.928  0.00  0.00    +0.000 C 
ATOM      8  C   UNL     1      46.455   4.029   7.578  0.00  0.00    +0.000 C 
ATOM      9  C   UNL     1      47.098   3.811   6.208  0.00  0.00    +0.000 C 
ATOM     10  N   UNL     1      47.915   2.596   6.162  0.00  0.00    +0.000 NA
ATOM     11  C   UNL     1      47.179   1.406   6.600  0.00  0.00    +0.000 C 
ATOM     12  C   UNL     1      46.523   1.587   7.975  0.00  0.00    +0.000 C 
ATOM     13  H   UNL     1      48.737   2.721   6.753  0.00  0.00    +0.000 HD
ENDBRANCH   5   7
BRANCH   1  14
ATOM     14  C   UNL     1      43.622   6.014  11.336  0.00  0.00    +0.000 C 
BRANCH  14  18
ATOM     15  C   UNL     1      46.996   5.759  13.602  0.00  0.00    +0.000 A 
ATOM     16  N   UNL     1      45.869   5.866  12.845  0.00  0.00    +0.000 NA
ATOM     17  C   UNL     1      45.871   6.748  11.823  0.00  0.00    +0.000 A 
ATOM     18  N   UNL     1      44.754   6.863  10.977  0.00  0.00    +0.000 N 
ATOM     19  C   UNL     1      46.998   7.523  11.537  0.00  0.00    +0.000 A 
ATOM     20  C   UNL     1      48.147   7.399  12.318  0.00  0.00    +0.000 A 
ATOM     21  C   UNL     1      48.145   6.500  13.373  0.00  0.00    +0.000 A 
ATOM     22  F   UNL     1      49.238   6.364  14.133  0.00  0.00    +0.000 F 
ATOM     23  H   UNL     1      44.489   7.840  10.884  0.00  0.00    +0.000 HD
BRANCH  15  25
ATOM     24  N   UNL     1      46.901   4.049  15.557  0.00  0.00    +0.000 NA
ATOM     25  C   UNL     1      46.942   4.816  14.681  0.00  0.00    +0.000 C 
ENDBRANCH  15  25
ENDBRANCH  14  18
ENDBRANCH   1  14
TORSDOF 4
ENDMDL
MODEL 2
REMARK VINA RESULT:    -7.073      3.021      5.781
REMARK INTER + INTRA:          -9.254
REMARK INTER:                  -8.587
REMARK INTRA:                  -0.667
REMARK UNBOUND:                -0.526
REMARK  Name = 
REMARK  4 active torsions:
REMARK  status: ('A' for Active; 'I' for Inactive)
REMARK    1  A    between atoms: C_2  and  C_3
REMARK    2  A    between atoms: N_6  and  C_7
REMARK    3  A    between atoms: C_7  and  C_8
REMARK    4  A    between atoms: C_12  and  C_13
REMARK                            x       y       z     vdW  Elec       q    Type
REMARK                         _______ _______ _______ _____ _____    ______ ____
ROOT
ATOM      1  C   UNL     1      47.761   7.198  13.882  0.00  0.00    +0.000 A 
ATOM      2  C   UNL     1      47.177   8.421  13.582  0.00  0.00    +0.000 A 
ATOM      3  N   UNL     1      46.077   8.573  12.810  0.00  0.00    +0.000 NA
ATOM      4  C   UNL     1      45.513   7.447  12.311  0.00  0.00    +0.000 A 
ATOM      5  C   UNL     1      46.004   6.167  12.532  0.00  0.00    +0.000 A 
ATOM      6  C   UNL     1      47.159   6.060  13.329  0.00  0.00    +0.000 A 
ENDROOT
BRANCH   5   7
ATOM      7  C   UNL     1      45.330   4.916  12.013  0.00  0.00    +0.000 C 
ATOM      8  C   UNL     1      44.147   4.492  12.896  0.00  0.00    +0.000 C 
ATOM      9  C   UNL     1      43.679   3.100  12.472  0.00  0.00    +0.000 C 
ATOM     10  N   UNL     1      43.286   3.049  11.061  0.00  0.00    +0.000 NA
ATOM     11  C   UNL     1      44.333   3.554  10.167  0.00  0.00    +0.000 C 
ATOM     12  C   UNL     1      44.824   4.952  10.561  0.00  0.00    +0.000 C 
ATOM     13  H   UNL     1      42.436   3.597  10.929  0.00  0.00    +0.000 HD
ENDBRANCH   5   7
BRANCH   1  14
ATOM     14  C   UNL     1      48.969   7.114  14.785  0.00  0.00    +0.000 C 
BRANCH  14  18
ATOM     15  C   UNL     1      48.800   3.880  17.255  0.00  0.00    +0.000 A 
ATOM     16  N   UNL     1      48.837   4.969  16.436  0.00  0.00    +0.000 NA
ATOM     17  C   UNL     1      48.517   6.170  16.961  0.00  0.00    +0.000 A 
ATOM     18  N   UNL     1      48.588   7.334  16.177  0.00  0.00    +0.000 N 
ATOM     19  C   UNL     1      48.170   6.303  18.309  0.00  0.00    +0.000 A 
ATOM     20  C   UNL     1      48.140   5.179  19.135  0.00  0.00    +0.000 A 
ATOM     21  C   UNL     1      48.460   3.944  18.597  0.00  0.00    +0.000 A 
ATOM     22  F   UNL     1      48.441   2.854  19.374  0.00  0.00    +0.000 F 
ATOM     23  H   UNL     1      47.724   7.863  16.262  0.00  0.00    +0.000 HD
BRANCH  15  25
ATOM     24  N   UNL     1      49.416   1.607  16.157  0.00  0.00    +0.000 NA
ATOM     25  C   UNL     1      49.138   2.625  16.648  0.00  0.00    +0.000 C 
ENDBRANCH  15  25
ENDBRANCH  14  18
ENDBRANCH   1  14
TORSDOF 4
ENDMDL
MODEL 3
REMARK VINA RESULT:    -6.988      2.379      3.510
REMARK INTER + INTRA:          -9.148
REMARK INTER:                  -8.601
REMARK INTRA:                  -0.547
REMARK UNBOUND:                -0.526
REMARK  Name = 
REMARK  4 active torsions:
REMARK  status: ('A' for Active; 'I' for Inactive)
REMARK    1  A    between atoms: C_2  and  C_3
REMARK    2  A    between atoms: N_6  and  C_7
REMARK    3  A    between atoms: C_7  and  C_8
REMARK    4  A    between atoms: C_12  and  C_13
REMARK                            x       y       z     vdW  Elec       q    Type
REMARK                         _______ _______ _______ _____ _____    ______ ____
ROOT
ATOM      1  C   UNL     1      44.300   4.840  11.571  0.00  0.00    +0.000 A 
ATOM      2  C   UNL     1      43.358   3.900  11.965  0.00  0.00    +0.000 A 
ATOM      3  N   UNL     1      43.179   2.700  11.368  0.00  0.00    +0.000 NA
ATOM      4  C   UNL     1      43.988   2.404  10.323  0.00  0.00    +0.000 A 
ATOM      5  C   UNL     1      44.965   3.259   9.828  0.00  0.00    +0.000 A 
ATOM      6  C   UNL     1      45.103   4.503  10.473  0.00  0.00    +0.000 A 
ENDROOT
BRANCH   5   7
ATOM      7  C   UNL     1      45.898   2.891   8.696  0.00  0.00    +0.000 C 
ATOM      8  C   UNL     1      45.889   1.381   8.412  0.00  0.00    +0.000 C 
ATOM      9  C   UNL     1      47.026   1.047   7.446  0.00  0.00    +0.000 C 
ATOM     10  N   UNL     1      46.926   1.788   6.187  0.00  0.00    +0.000 NA
ATOM     11  C   UNL     1      46.812   3.235   6.393  0.00  0.00    +0.000 C 
ATOM     12  C   UNL     1      45.676   3.609   7.354  0.00  0.00    +0.000 C 
ATOM     13  H   UNL     1      46.115   1.456   5.665  0.00  0.00    +0.000 HD
ENDBRANCH   5   7
BRANCH   1  14
ATOM     14  C   UNL     1      44.459   6.142  12.317  0.00  0.00    +0.000 C 
BRANCH  14  18
ATOM     15  C   UNL     1      45.359  10.091  11.887  0.00  0.00    +0.000 A 
ATOM     16  N   UNL     1      45.074   8.765  12.017  0.00  0.00    +0.000 NA
ATOM     17  C   UNL     1      46.102   7.907  12.185  0.00  0.00    +0.000 A 
ATOM     18  N   UNL     1      45.864   6.535  12.375  0.00  0.00    +0.000 N 
ATOM     19  C   UNL     1      47.423   8.361  12.238  0.00  0.00    +0.000 A 
ATOM     20  C   UNL     1      47.699   9.722  12.107  0.00  0.00    +0.000 A 
ATOM     21  C   UNL     1      46.646  10.604  11.927  0.00  0.00    +0.000 A 
ATOM     22  F   UNL     1      46.888  11.915  11.804  0.00  0.00    +0.000 F 
ATOM     23  H   UNL     1      46.444   5.992  11.742  0.00  0.00    +0.000 HD
BRANCH  15  25
ATOM     24  N   UNL     1      43.318  11.664  11.548  0.00  0.00    +0.000 NA
ATOM     25  C   UNL     1      44.233  10.961  11.701  0.00  0.00    +0.000 C 
ENDBRANCH  15  25
ENDBRANCH  14  18
ENDBRANCH   1  14
TORSDOF 4
ENDMDL
MODEL 4
REMARK VINA RESULT:    -6.487      1.940      2.693
REMARK INTER + INTRA:          -8.530
REMARK INTER:                  -7.949
REMARK INTRA:                  -0.581
REMARK UNBOUND:                -0.526
REMARK  Name = 
REMARK  4 active torsions:
REMARK  status: ('A' for Active; 'I' for Inactive)
REMARK    1  A    between atoms: C_2  and  C_3
REMARK    2  A    between atoms: N_6  and  C_7
REMARK    3  A    between atoms: C_7  and  C_8
REMARK    4  A    between atoms: C_12  and  C_13
REMARK                            x       y       z     vdW  Elec       q    Type
REMARK                         _______ _______ _______ _____ _____    ______ ____
ROOT
ATOM      1  C   UNL     1      45.160   5.613  10.700  0.00  0.00    +0.000 A 
ATOM      2  C   UNL     1      44.071   5.052  11.353  0.00  0.00    +0.000 A 
ATOM      3  N   UNL     1      43.470   3.898  10.983  0.00  0.00    +0.000 NA
ATOM      4  C   UNL     1      43.981   3.254   9.908  0.00  0.00    +0.000 A 
ATOM      5  C   UNL     1      45.062   3.713   9.165  0.00  0.00    +0.000 A 
ATOM      6  C   UNL     1      45.645   4.925   9.580  0.00  0.00    +0.000 A 
ENDROOT
BRANCH   5   7
ATOM      7  C   UNL     1      45.655   2.952   8.000  0.00  0.00    +0.000 C 
ATOM      8  C   UNL     1      46.663   3.802   7.213  0.00  0.00    +0.000 C 
ATOM      9  C   UNL     1      47.027   3.076   5.917  0.00  0.00    +0.000 C 
ATOM     10  N   UNL     1      47.587   1.745   6.162  0.00  0.00    +0.000 NA
ATOM     11  C   UNL     1      46.723   0.918   7.010  0.00  0.00    +0.000 C 
ATOM     12  C   UNL     1      46.341   1.614   8.323  0.00  0.00    +0.000 C 
ATOM     13  H   UNL     1      48.502   1.840   6.603  0.00  0.00    +0.000 HD
ENDBRANCH   5   7
BRANCH   1  14
ATOM     14  C   UNL     1      45.796   6.887  11.202  0.00  0.00    +0.000 C 
BRANCH  14  18
ATOM     15  C   UNL     1      49.591   7.552  12.519  0.00  0.00    +0.000 A 
ATOM     16  N   UNL     1      48.321   7.312  12.092  0.00  0.00    +0.000 NA
ATOM     17  C   UNL     1      47.384   7.014  13.016  0.00  0.00    +0.000 A 
ATOM     18  N   UNL     1      46.047   6.807  12.638  0.00  0.00    +0.000 N 
ATOM     19  C   UNL     1      47.700   6.963  14.377  0.00  0.00    +0.000 A 
ATOM     20  C   UNL     1      49.005   7.215  14.800  0.00  0.00    +0.000 A 
ATOM     21  C   UNL     1      49.970   7.514  13.852  0.00  0.00    +0.000 A 
ATOM     22  F   UNL     1      51.227   7.764  14.237  0.00  0.00    +0.000 F 
ATOM     23  H   UNL     1      45.702   5.941  13.042  0.00  0.00    +0.000 HD
BRANCH  15  25
ATOM     24  N   UNL     1      51.334   8.100  10.671  0.00  0.00    +0.000 NA
ATOM     25  C   UNL     1      50.552   7.856  11.497  0.00  0.00    +0.000 C 
ENDBRANCH  15  25
ENDBRANCH  14  18
ENDBRANCH   1  14
TORSDOF 4
ENDMDL
MODEL 5
REMARK VINA RESULT:    -6.413      4.168      9.213
REMARK INTER + INTRA:          -8.438
REMARK INTER:                  -7.921
REMARK INTRA:                  -0.518
REMARK UNBOUND:                -0.526
REMARK  Name = 
REMARK  4 active torsions:
REMARK  status: ('A' for Active; 'I' for Inactive)
REMARK    1  A    between atoms: C_2  and  C_3
REMARK    2  A    between atoms: N_6  and  C_7
REMARK    3  A    between atoms: C_7  and  C_8
REMARK    4  A    between atoms: C_12  and  C_13
REMARK                            x       y       z     vdW  Elec       q    Type
REMARK                         _______ _______ _______ _____ _____    ______ ____
ROOT
ATOM      1  C   UNL     1      47.639   4.088  16.580  0.00  0.00    +0.000 A 
ATOM      2  C   UNL     1      48.355   3.069  17.194  0.00  0.00    +0.000 A 
ATOM      3  N   UNL     1      48.805   3.112  18.468  0.00  0.00    +0.000 NA
ATOM      4  C   UNL     1      48.522   4.226  19.185  0.00  0.00    +0.000 A 
ATOM      5  C   UNL     1      47.821   5.316  18.686  0.00  0.00    +0.000 A 
ATOM      6  C   UNL     1      47.386   5.231  17.350  0.00  0.00    +0.000 A 
ENDROOT
BRANCH   5   7
ATOM      7  C   UNL     1      47.466   6.529  19.517  0.00  0.00    +0.000 C 
ATOM      8  C   UNL     1      48.000   6.418  20.953  0.00  0.00    +0.000 C 
ATOM      9  C   UNL     1      47.395   7.538  21.801  0.00  0.00    +0.000 C 
ATOM     10  N   UNL     1      47.694   8.868  21.263  0.00  0.00    +0.000 NA
ATOM     11  C   UNL     1      47.314   9.003  19.854  0.00  0.00    +0.000 C 
ATOM     12  C   UNL     1      47.907   7.897  18.971  0.00  0.00    +0.000 C 
ATOM     13  H   UNL     1      48.691   9.055  21.364  0.00  0.00    +0.000 HD
ENDBRANCH   5   7
BRANCH   1  14
ATOM     14  C   UNL     1      47.141   3.944  15.162  0.00  0.00    +0.000 C 
BRANCH  14  18
ATOM     15  C   UNL     1      44.327   4.293  12.240  0.00  0.00    +0.000 A 
ATOM     16  N   UNL     1      45.282   4.188  13.205  0.00  0.00    +0.000 NA
ATOM     17  C   UNL     1      45.990   5.291  13.522  0.00  0.00    +0.000 A 
ATOM     18  N   UNL     1      46.952   5.253  14.546  0.00  0.00    +0.000 N 
ATOM     19  C   UNL     1      45.746   6.515  12.891  0.00  0.00    +0.000 A 
ATOM     20  C   UNL     1      44.762   6.608  11.907  0.00  0.00    +0.000 A 
ATOM     21  C   UNL     1      44.039   5.475  11.574  0.00  0.00    +0.000 A 
ATOM     22  F   UNL     1      43.087   5.544  10.636  0.00  0.00    +0.000 F 
ATOM     23  H   UNL     1      47.826   5.654  14.215  0.00  0.00    +0.000 HD
BRANCH  15  25
ATOM     24  N   UNL     1      43.022   2.116  11.684  0.00  0.00    +0.000 NA
ATOM     25  C   UNL     1      43.608   3.090  11.931  0.00  0.00    +0.000 C 
ENDBRANCH  15  25
ENDBRANCH  14  18
ENDBRANCH   1  14
TORSDOF 4
ENDMDL
MODEL 6
REMARK VINA RESULT:    -6.400      2.743      5.052
REMARK INTER + INTRA:          -8.423
REMARK INTER:                  -7.778
REMARK INTRA:                  -0.645
REMARK UNBOUND:                -0.526
REMARK  Name = 
REMARK  4 active torsions:
REMARK  status: ('A' for Active; 'I' for Inactive)
REMARK    1  A    between atoms: C_2  and  C_3
REMARK    2  A    between atoms: N_6  and  C_7
REMARK    3  A    between atoms: C_7  and  C_8
REMARK    4  A    between atoms: C_12  and  C_13
REMARK                            x       y       z     vdW  Elec       q    Type
REMARK                         _______ _______ _______ _____ _____    ______ ____
ROOT
ATOM      1  C   UNL     1      47.650   7.211  12.607  0.00  0.00    +0.000 A 
ATOM      2  C   UNL     1      47.086   8.472  12.470  0.00  0.00    +0.000 A 
ATOM      3  N   UNL     1      45.833   8.703  12.018  0.00  0.00    +0.000 NA
ATOM      4  C   UNL     1      45.086   7.622  11.690  0.00  0.00    +0.000 A 
ATOM      5  C   UNL     1      45.535   6.310  11.776  0.00  0.00    +0.000 A 
ATOM      6  C   UNL     1      46.851   6.121  12.238  0.00  0.00    +0.000 A 
ENDROOT
BRANCH   5   7
ATOM      7  C   UNL     1      44.670   5.111  11.459  0.00  0.00    +0.000 C 
ATOM      8  C   UNL     1      45.140   4.383  10.190  0.00  0.00    +0.000 C 
ATOM      9  C   UNL     1      44.086   3.351   9.786  0.00  0.00    +0.000 C 
ATOM     10  N   UNL     1      43.823   2.376  10.847  0.00  0.00    +0.000 NA
ATOM     11  C   UNL     1      43.482   3.012  12.123  0.00  0.00    +0.000 C 
ATOM     12  C   UNL     1      44.521   4.051  12.564  0.00  0.00    +0.000 C 
ATOM     13  H   UNL     1      44.645   1.786  10.973  0.00  0.00    +0.000 HD
ENDBRANCH   5   7
BRANCH   1  14
ATOM     14  C   UNL     1      49.046   7.040  13.157  0.00  0.00    +0.000 C 
BRANCH  14  18
ATOM     15  C   UNL     1      48.311   5.283  16.757  0.00  0.00    +0.000 A 
ATOM     16  N   UNL     1      48.545   5.888  15.559  0.00  0.00    +0.000 NA
ATOM     17  C   UNL     1      48.923   7.183  15.564  0.00  0.00    +0.000 A 
ATOM     18  N   UNL     1      49.229   7.843  14.362  0.00  0.00    +0.000 N 
ATOM     19  C   UNL     1      49.085   7.886  16.762  0.00  0.00    +0.000 A 
ATOM     20  C   UNL     1      48.845   7.252  17.981  0.00  0.00    +0.000 A 
ATOM     21  C   UNL     1      48.448   5.924  17.978  0.00  0.00    +0.000 A 
ATOM     22  F   UNL     1      48.217   5.296  19.137  0.00  0.00    +0.000 F 
ATOM     23  H   UNL     1      48.729   8.728  14.316  0.00  0.00    +0.000 HD
BRANCH  15  25
ATOM     24  N   UNL     1      47.573   2.793  16.648  0.00  0.00    +0.000 NA
ATOM     25  C   UNL     1      47.902   3.909  16.698  0.00  0.00    +0.000 C 
ENDBRANCH  15  25
ENDBRANCH  14  18
ENDBRANCH   1  14
TORSDOF 4
ENDMDL
MODEL 7
REMARK VINA RESULT:    -6.380      3.937      6.782
REMARK INTER + INTRA:          -8.398
REMARK INTER:                  -7.809
REMARK INTRA:                  -0.589
REMARK UNBOUND:                -0.526
REMARK  Name = 
REMARK  4 active torsions:
REMARK  status: ('A' for Active; 'I' for Inactive)
REMARK    1  A    between atoms: C_2  and  C_3
REMARK    2  A    between atoms: N_6  and  C_7
REMARK    3  A    between atoms: C_7  and  C_8
REMARK    4  A    between atoms: C_12  and  C_13
REMARK                            x       y       z     vdW  Elec       q    Type
REMARK                         _______ _______ _______ _____ _____    ______ ____
ROOT
ATOM      1  C   UNL     1      47.560   4.920  15.479  0.00  0.00    +0.000 A 
ATOM      2  C   UNL     1      48.432   5.915  15.060  0.00  0.00    +0.000 A 
ATOM      3  N   UNL     1      48.352   6.548  13.868  0.00  0.00    +0.000 NA
ATOM      4  C   UNL     1      47.342   6.185  13.042  0.00  0.00    +0.000 A 
ATOM      5  C   UNL     1      46.408   5.200  13.341  0.00  0.00    +0.000 A 
ATOM      6  C   UNL     1      46.542   4.559  14.587  0.00  0.00    +0.000 A 
ENDROOT
BRANCH   5   7
ATOM      7  C   UNL     1      45.253   4.845  12.431  0.00  0.00    +0.000 C 
ATOM      8  C   UNL     1      45.193   3.337  12.143  0.00  0.00    +0.000 C 
ATOM      9  C   UNL     1      44.177   3.081  11.029  0.00  0.00    +0.000 C 
ATOM     10  N   UNL     1      42.840   3.574  11.368  0.00  0.00    +0.000 NA
ATOM     11  C   UNL     1      42.845   4.984  11.770  0.00  0.00    +0.000 C 
ATOM     12  C   UNL     1      43.851   5.278  12.890  0.00  0.00    +0.000 C 
ATOM     13  H   UNL     1      42.455   3.009  12.125  0.00  0.00    +0.000 HD
ENDBRANCH   5   7
BRANCH   1  14
ATOM     14  C   UNL     1      47.698   4.289  16.844  0.00  0.00    +0.000 C 
BRANCH  14  18
ATOM     15  C   UNL     1      51.607   3.848  17.896  0.00  0.00    +0.000 A 
ATOM     16  N   UNL     1      50.304   3.984  17.526  0.00  0.00    +0.000 NA
ATOM     17  C   UNL     1      49.650   2.888  17.086  0.00  0.00    +0.000 A 
ATOM     18  N   UNL     1      48.290   2.959  16.740  0.00  0.00    +0.000 N 
ATOM     19  C   UNL     1      50.284   1.644  17.022  0.00  0.00    +0.000 A 
ATOM     20  C   UNL     1      51.618   1.520  17.408  0.00  0.00    +0.000 A 
ATOM     21  C   UNL     1      52.294   2.645  17.853  0.00  0.00    +0.000 A 
ATOM     22  F   UNL     1      53.574   2.547  18.232  0.00  0.00    +0.000 F 
ATOM     23  H   UNL     1      48.143   2.541  15.825  0.00  0.00    +0.000 HD
BRANCH  15  25
ATOM     24  N   UNL     1      52.791   6.014  18.710  0.00  0.00    +0.000 NA
ATOM     25  C   UNL     1      52.261   5.043  18.347  0.00  0.00    +0.000 C 
ENDBRANCH  15  25
ENDBRANCH  14  18
ENDBRANCH   1  14
TORSDOF 4
ENDMDL
MODEL 8
REMARK VINA RESULT:    -6.367      2.794      7.690
REMARK INTER + INTRA:          -8.382
REMARK INTER:                  -7.749
REMARK INTRA:                  -0.633
REMARK UNBOUND:                -0.526
REMARK  Name = 
REMARK  4 active torsions:
REMARK  status: ('A' for Active; 'I' for Inactive)
REMARK    1  A    between atoms: C_2  and  C_3
REMARK    2  A    between atoms: N_6  and  C_7
REMARK    3  A    between atoms: C_7  and  C_8
REMARK    4  A    between atoms: C_12  and  C_13
REMARK                            x       y       z     vdW  Elec       q    Type
REMARK                         _______ _______ _______ _____ _____    ______ ____
ROOT
ATOM      1  C   UNL     1      47.282   7.187  13.157  0.00  0.00    +0.000 A 
ATOM      2  C   UNL     1      48.360   8.043  12.976  0.00  0.00    +0.000 A 
ATOM      3  N   UNL     1      49.443   8.089  13.784  0.00  0.00    +0.000 NA
ATOM      4  C   UNL     1      49.469   7.230  14.831  0.00  0.00    +0.000 A 
ATOM      5  C   UNL     1      48.453   6.329  15.124  0.00  0.00    +0.000 A 
ATOM      6  C   UNL     1      47.339   6.329  14.263  0.00  0.00    +0.000 A 
ENDROOT
BRANCH   5   7
ATOM      7  C   UNL     1      48.523   5.338  16.265  0.00  0.00    +0.000 C 
ATOM      8  C   UNL     1      48.442   6.030  17.634  0.00  0.00    +0.000 C 
ATOM      9  C   UNL     1      48.774   5.016  18.728  0.00  0.00    +0.000 C 
ATOM     10  N   UNL     1      47.877   3.858  18.706  0.00  0.00    +0.000 NA
ATOM     11  C   UNL     1      47.817   3.218  17.388  0.00  0.00    +0.000 C 
ATOM     12  C   UNL     1      47.481   4.206  16.264  0.00  0.00    +0.000 C 
ATOM     13  H   UNL     1      46.940   4.152  18.981  0.00  0.00    +0.000 HD
ENDBRANCH   5   7
BRANCH   1  14
ATOM     14  C   UNL     1      46.127   7.174  12.185  0.00  0.00    +0.000 C 
BRANCH  14  18
ATOM     15  C   UNL     1      45.193   4.225   9.536  0.00  0.00    +0.000 A 
ATOM     16  N   UNL     1      45.484   5.215  10.426  0.00  0.00    +0.000 NA
ATOM     17  C   UNL     1      44.832   5.220  11.606  0.00  0.00    +0.000 A 
ATOM     18  N   UNL     1      45.129   6.186  12.583  0.00  0.00    +0.000 N 
ATOM     19  C   UNL     1      43.892   4.234  11.919  0.00  0.00    +0.000 A 
ATOM     20  C   UNL     1      43.607   3.225  10.999  0.00  0.00    +0.000 A 
ATOM     21  C   UNL     1      44.270   3.221   9.783  0.00  0.00    +0.000 A 
ATOM     22  F   UNL     1      44.015   2.260   8.888  0.00  0.00    +0.000 F 
ATOM     23  H   UNL     1      44.270   6.618  12.916  0.00  0.00    +0.000 HD
BRANCH  15  25
ATOM     24  N   UNL     1      46.485   4.307   7.282  0.00  0.00    +0.000 NA
ATOM     25  C   UNL     1      45.907   4.268   8.291  0.00  0.00    +0.000 C 
ENDBRANCH  15  25
ENDBRANCH  14  18
ENDBRANCH   1  14
TORSDOF 4
ENDMDL
MODEL 9
REMARK VINA RESULT:    -6.234      4.412      8.782
REMARK INTER + INTRA:          -8.218
REMARK INTER:                  -7.682
REMARK INTRA:                  -0.536
REMARK UNBOUND:                -0.526
REMARK  Name = 
REMARK  4 active torsions:
REMARK  status: ('A' for Active; 'I' for Inactive)
REMARK    1  A    between atoms: C_2  and  C_3
REMARK    2  A    between atoms: N_6  and  C_7
REMARK    3  A    between atoms: C_7  and  C_8
REMARK    4  A    between atoms: C_12  and  C_13
REMARK                            x       y       z     vdW  Elec       q    Type
REMARK                         _______ _______ _______ _____ _____    ______ ____
ROOT
ATOM      1  C   UNL     1      48.196   3.643  16.376  0.00  0.00    +0.000 A 
ATOM      2  C   UNL     1      48.510   2.354  15.967  0.00  0.00    +0.000 A 
ATOM      3  N   UNL     1      49.602   1.668  16.374  0.00  0.00    +0.000 NA
ATOM      4  C   UNL     1      50.429   2.288  17.248  0.00  0.00    +0.000 A 
ATOM      5  C   UNL     1      50.230   3.576  17.729  0.00  0.00    +0.000 A 
ATOM      6  C   UNL     1      49.089   4.256  17.265  0.00  0.00    +0.000 A 
ENDROOT
BRANCH   5   7
ATOM      7  C   UNL     1      51.135   4.234  18.748  0.00  0.00    +0.000 C 
ATOM      8  C   UNL     1      52.620   4.028  18.415  0.00  0.00    +0.000 C 
ATOM      9  C   UNL     1      53.468   4.487  19.602  0.00  0.00    +0.000 C 
ATOM     10  N   UNL     1      53.229   5.890  19.949  0.00  0.00    +0.000 NA
ATOM     11  C   UNL     1      51.808   6.181  20.166  0.00  0.00    +0.000 C 
ATOM     12  C   UNL     1      50.926   5.738  18.992  0.00  0.00    +0.000 C 
ATOM     13  H   UNL     1      53.586   6.487  19.204  0.00  0.00    +0.000 HD
ENDBRANCH   5   7
BRANCH   1  14
ATOM     14  C   UNL     1      46.935   4.324  15.901  0.00  0.00    +0.000 C 
BRANCH  14  18
ATOM     15  C   UNL     1      44.954   4.227  12.344  0.00  0.00    +0.000 A 
ATOM     16  N   UNL     1      45.635   4.262  13.523  0.00  0.00    +0.000 NA
ATOM     17  C   UNL     1      46.550   5.239  13.700  0.00  0.00    +0.000 A 
ATOM     18  N   UNL     1      47.245   5.355  14.915  0.00  0.00    +0.000 N 
ATOM     19  C   UNL     1      46.787   6.197  12.710  0.00  0.00    +0.000 A 
ATOM     20  C   UNL     1      46.078   6.150  11.509  0.00  0.00    +0.000 A 
ATOM     21  C   UNL     1      45.144   5.144  11.322  0.00  0.00    +0.000 A 
ATOM     22  F   UNL     1      44.451   5.083  10.179  0.00  0.00    +0.000 F 
ATOM     23  H   UNL     1      48.243   5.431  14.738  0.00  0.00    +0.000 HD
BRANCH  15  25
ATOM     24  N   UNL     1      43.229   2.300  12.083  0.00  0.00    +0.000 NA
ATOM     25  C   UNL     1      44.000   3.165  12.200  0.00  0.00    +0.000 C 
ENDBRANCH  15  25
ENDBRANCH  14  18
ENDBRANCH   1  14
TORSDOF 4
ENDMDL
