MODEL 1
REMARK VINA RESULT:    -7.325      0.000      0.000
REMARK INTER + INTRA:         -11.277
REMARK INTER:                  -9.895
REMARK INTRA:                  -1.382
REMARK UNBOUND:                -1.382
REMARK  Name = 
REMARK  6 active torsions:
REMARK  status: ('A' for Active; 'I' for Inactive)
REMARK    1  A    between atoms: C_4  and  N_5
REMARK    2  A    between atoms: N_5  and  C_6
REMARK    3  A    between atoms: C_6  and  C_7
REMARK    4  A    between atoms: C_11  and  C_12
REMARK    5  A    between atoms: C_20  and  C_21
REMARK    6  A    between atoms: C_25  and  C_26
REMARK                            x       y       z     vdW  Elec       q    Type
REMARK                         _______ _______ _______ _____ _____    ______ ____
ROOT
ATOM      1  F   UNL     1      47.036   9.721  11.776  0.00  0.00    +0.000 F 
ATOM      2  C   UNL     1      46.786   8.454  12.140  0.00  0.00    +0.000 A 
ATOM      3  C   UNL     1      45.446   8.059  12.191  0.00  0.00    +0.000 A 
ATOM      4  C   UNL     1      45.090   6.761  12.554  0.00  0.00    +0.000 A 
ATOM      5  C   UNL     1      46.113   5.886  12.911  0.00  0.00    +0.000 A 
ATOM      6  C   UNL     1      47.451   6.291  12.854  0.00  0.00    +0.000 A 
ATOM      7  F   UNL     1      48.377   5.376  13.187  0.00  0.00    +0.000 F 
ATOM      8  C   UNL     1      47.836   7.585  12.472  0.00  0.00    +0.000 A 
ENDROOT
BRANCH   8   9
ATOM      9  C   UNL     1      49.251   8.022  12.466  0.00  0.00    +0.000 A 
ATOM     10  C   UNL     1      49.811   8.741  13.537  0.00  0.00    +0.000 A 
ATOM     11  C   UNL     1      51.162   9.103  13.548  0.00  0.00    +0.000 A 
ATOM     12  C   UNL     1      51.988   8.764  12.480  0.00  0.00    +0.000 A 
ATOM     13  C   UNL     1      51.468   8.059  11.390  0.00  0.00    +0.000 A 
ATOM     14  C   UNL     1      50.107   7.701  11.396  0.00  0.00    +0.000 A 
BRANCH  13  15
ATOM     15  C   UNL     1      52.334   7.662  10.222  0.00  0.00    +0.000 C 
ATOM     16  F   UNL     1      52.870   8.722   9.555  0.00  0.00    +0.000 F 
ATOM     17  F   UNL     1      53.390   6.887  10.597  0.00  0.00    +0.000 F 
ATOM     18  F   UNL     1      51.655   6.940   9.289  0.00  0.00    +0.000 F 
ENDBRANCH  13  15
ENDBRANCH   8   9
BRANCH   4  19
ATOM     19  N   UNL     1      43.731   6.445  12.607  0.00  0.00    +0.000 N 
ATOM     20  H   UNL     1      43.555   5.753  13.338  0.00  0.00    +0.000 HD
BRANCH  19  21
ATOM     21  C   UNL     1      43.045   6.070  11.368  0.00  0.00    +0.000 C 
BRANCH  21  22
ATOM     22  C   UNL     1      43.552   4.724  10.885  0.00  0.00    +0.000 A 
ATOM     23  C   UNL     1      43.185   3.569  11.556  0.00  0.00    +0.000 A 
ATOM     24  C   UNL     1      43.673   2.389  11.048  0.00  0.00    +0.000 A 
ATOM     25  N   UNL     1      44.453   2.317   9.959  0.00  0.00    +0.000 NA
ATOM     26  C   UNL     1      44.773   3.486   9.349  0.00  0.00    +0.000 A 
ATOM     27  N   UNL     1      44.342   4.699   9.787  0.00  0.00    +0.000 NA
BRANCH  26  28
ATOM     28  C   UNL     1      45.656   3.441   8.095  0.00  0.00    +0.000 C 
ATOM     29  F   UNL     1      46.496   2.362   8.041  0.00  0.00    +0.000 F 
ATOM     30  F   UNL     1      44.932   3.391   6.935  0.00  0.00    +0.000 F 
ATOM     31  F   UNL     1      46.468   4.535   7.972  0.00  0.00    +0.000 F 
ENDBRANCH  26  28
ENDBRANCH  21  22
ENDBRANCH  19  21
ENDBRANCH   4  19
TORSDOF 6
ENDMDL
MODEL 2
REMARK VINA RESULT:    -7.322      0.161      1.660
REMARK INTER + INTRA:         -11.273
REMARK INTER:                  -9.877
REMARK INTRA:                  -1.397
REMARK UNBOUND:                -1.382
REMARK  Name = 
REMARK  6 active torsions:
REMARK  status: ('A' for Active; 'I' for Inactive)
REMARK    1  A    between atoms: C_4  and  N_5
REMARK    2  A    between atoms: N_5  and  C_6
REMARK    3  A    between atoms: C_6  and  C_7
REMARK    4  A    between atoms: C_11  and  C_12
REMARK    5  A    between atoms: C_20  and  C_21
REMARK    6  A    between atoms: C_25  and  C_26
REMARK                            x       y       z     vdW  Elec       q    Type
REMARK                         _______ _______ _______ _____ _____    ______ ____
ROOT
ATOM      1  F   UNL     1      48.385   5.553  13.152  0.00  0.00    +0.000 F 
ATOM      2  C   UNL     1      47.456   6.470  12.839  0.00  0.00    +0.000 A 
ATOM      3  C   UNL     1      46.121   6.060  12.869  0.00  0.00    +0.000 A 
ATOM      4  C   UNL     1      45.087   6.944  12.563  0.00  0.00    +0.000 A 
ATOM      5  C   UNL     1      45.435   8.237  12.181  0.00  0.00    +0.000 A 
ATOM      6  C   UNL     1      46.776   8.639  12.157  0.00  0.00    +0.000 A 
ATOM      7  F   UNL     1      47.022   9.912  11.805  0.00  0.00    +0.000 F 
ATOM      8  C   UNL     1      47.832   7.773  12.480  0.00  0.00    +0.000 A 
ENDROOT
BRANCH   8   9
ATOM      9  C   UNL     1      49.251   8.190  12.401  0.00  0.00    +0.000 A 
ATOM     10  C   UNL     1      49.851   8.978  13.399  0.00  0.00    +0.000 A 
ATOM     11  C   UNL     1      51.205   9.323  13.345  0.00  0.00    +0.000 A 
ATOM     12  C   UNL     1      51.994   8.896  12.280  0.00  0.00    +0.000 A 
ATOM     13  C   UNL     1      51.434   8.121  11.261  0.00  0.00    +0.000 A 
ATOM     14  C   UNL     1      50.070   7.782  11.332  0.00  0.00    +0.000 A 
BRANCH  13  15
ATOM     15  C   UNL     1      52.261   7.629  10.100  0.00  0.00    +0.000 C 
ATOM     16  F   UNL     1      51.544   6.929   9.177  0.00  0.00    +0.000 F 
ATOM     17  F   UNL     1      52.851   8.648   9.414  0.00  0.00    +0.000 F 
ATOM     18  F   UNL     1      53.273   6.806  10.488  0.00  0.00    +0.000 F 
ENDBRANCH  13  15
ENDBRANCH   8   9
BRANCH   4  19
ATOM     19  N   UNL     1      43.779   6.458  12.589  0.00  0.00    +0.000 N 
ATOM     20  H   UNL     1      43.699   5.689  13.257  0.00  0.00    +0.000 HD
BRANCH  19  21
ATOM     21  C   UNL     1      43.131   6.109  11.323  0.00  0.00    +0.000 C 
BRANCH  21  22
ATOM     22  C   UNL     1      43.626   4.756  10.846  0.00  0.00    +0.000 A 
ATOM     23  C   UNL     1      43.225   3.606  11.505  0.00  0.00    +0.000 A 
ATOM     24  C   UNL     1      43.704   2.419  11.003  0.00  0.00    +0.000 A 
ATOM     25  N   UNL     1      44.506   2.338   9.931  0.00  0.00    +0.000 NA
ATOM     26  C   UNL     1      44.859   3.503   9.331  0.00  0.00    +0.000 A 
ATOM     27  N   UNL     1      44.438   4.721   9.765  0.00  0.00    +0.000 NA
BRANCH  26  28
ATOM     28  C   UNL     1      45.766   3.447   8.096  0.00  0.00    +0.000 C 
ATOM     29  F   UNL     1      46.614   2.373   8.074  0.00  0.00    +0.000 F 
ATOM     30  F   UNL     1      45.067   3.377   6.923  0.00  0.00    +0.000 F 
ATOM     31  F   UNL     1      46.574   4.544   7.975  0.00  0.00    +0.000 F 
ENDBRANCH  26  28
ENDBRANCH  21  22
ENDBRANCH  19  21
ENDBRANCH   4  19
TORSDOF 6
ENDMDL
MODEL 3
REMARK VINA RESULT:    -7.302      3.173      4.752
REMARK INTER + INTRA:         -11.246
REMARK INTER:                 -10.518
REMARK INTRA:                  -0.728
REMARK UNBOUND:                -1.382
REMARK  Name = 
REMARK  6 active torsions:
REMARK  status: ('A' for Active; 'I' for Inactive)
REMARK    1  A    between atoms: C_4  and  N_5
REMARK    2  A    between atoms: N_5  and  C_6
REMARK    3  A    between atoms: C_6  and  C_7
REMARK    4  A    between atoms: C_11  and  C_12
REMARK    5  A    between atoms: C_20  and  C_21
REMARK    6  A    between atoms: C_25  and  C_26
REMARK                            x       y       z     vdW  Elec       q    Type
REMARK                         _______ _______ _______ _____ _____    ______ ____
ROOT
ATOM      1  F   UNL     1      47.394   3.337  14.251  0.00  0.00    +0.000 F 
ATOM      2  C   UNL     1      46.609   4.227  13.623  0.00  0.00    +0.000 A 
ATOM      3  C   UNL     1      45.524   3.721  12.903  0.00  0.00    +0.000 A 
ATOM      4  C   UNL     1      44.652   4.570  12.222  0.00  0.00    +0.000 A 
ATOM      5  C   UNL     1      44.928   5.934  12.245  0.00  0.00    +0.000 A 
ATOM      6  C   UNL     1      46.017   6.430  12.972  0.00  0.00    +0.000 A 
ATOM      7  F   UNL     1      46.195   7.762  12.965  0.00  0.00    +0.000 F 
ATOM      8  C   UNL     1      46.897   5.598  13.681  0.00  0.00    +0.000 A 
ENDROOT
BRANCH   8   9
ATOM      9  C   UNL     1      48.078   6.126  14.404  0.00  0.00    +0.000 A 
ATOM     10  C   UNL     1      49.022   6.957  13.775  0.00  0.00    +0.000 A 
ATOM     11  C   UNL     1      50.105   7.496  14.478  0.00  0.00    +0.000 A 
ATOM     12  C   UNL     1      50.277   7.207  15.829  0.00  0.00    +0.000 A 
ATOM     13  C   UNL     1      49.367   6.375  16.488  0.00  0.00    +0.000 A 
ATOM     14  C   UNL     1      48.282   5.843  15.766  0.00  0.00    +0.000 A 
BRANCH  13  15
ATOM     15  C   UNL     1      49.514   6.050  17.952  0.00  0.00    +0.000 C 
ATOM     16  F   UNL     1      49.456   4.716  18.225  0.00  0.00    +0.000 F 
ATOM     17  F   UNL     1      50.701   6.482  18.464  0.00  0.00    +0.000 F 
ATOM     18  F   UNL     1      48.547   6.628  18.717  0.00  0.00    +0.000 F 
ENDBRANCH  13  15
ENDBRANCH   8   9
BRANCH   4  19
ATOM     19  N   UNL     1      43.603   3.993  11.504  0.00  0.00    +0.000 N 
ATOM     20  H   UNL     1      42.771   3.913  12.090  0.00  0.00    +0.000 HD
BRANCH  19  21
ATOM     21  C   UNL     1      43.847   2.740  10.784  0.00  0.00    +0.000 C 
BRANCH  21  22
ATOM     22  C   UNL     1      44.720   3.003   9.571  0.00  0.00    +0.000 A 
ATOM     23  C   UNL     1      44.825   4.288   9.066  0.00  0.00    +0.000 A 
ATOM     24  C   UNL     1      45.646   4.448   7.975  0.00  0.00    +0.000 A 
ATOM     25  N   UNL     1      46.333   3.442   7.411  0.00  0.00    +0.000 NA
ATOM     26  C   UNL     1      46.186   2.209   7.958  0.00  0.00    +0.000 A 
ATOM     27  N   UNL     1      45.389   1.960   9.031  0.00  0.00    +0.000 NA
BRANCH  26  28
ATOM     28  C   UNL     1      46.964   1.038   7.345  0.00  0.00    +0.000 C 
ATOM     29  F   UNL     1      46.677   0.804   6.028  0.00  0.00    +0.000 F 
ATOM     30  F   UNL     1      48.320   1.217   7.391  0.00  0.00    +0.000 F 
ATOM     31  F   UNL     1      46.731  -0.151   7.980  0.00  0.00    +0.000 F 
ENDBRANCH  26  28
ENDBRANCH  21  22
ENDBRANCH  19  21
ENDBRANCH   4  19
TORSDOF 6
ENDMDL
MODEL 4
REMARK VINA RESULT:    -7.119      4.571      6.258
REMARK INTER + INTRA:         -10.998
REMARK INTER:                  -9.873
REMARK INTRA:                  -1.125
REMARK UNBOUND:                -1.382
REMARK  Name = 
REMARK  6 active torsions:
REMARK  status: ('A' for Active; 'I' for Inactive)
REMARK    1  A    between atoms: C_4  and  N_5
REMARK    2  A    between atoms: N_5  and  C_6
REMARK    3  A    between atoms: C_6  and  C_7
REMARK    4  A    between atoms: C_11  and  C_12
REMARK    5  A    between atoms: C_20  and  C_21
REMARK    6  A    between atoms: C_25  and  C_26
REMARK                            x       y       z     vdW  Elec       q    Type
REMARK                         _______ _______ _______ _____ _____    ______ ____
ROOT
ATOM      1  F   UNL     1      46.952   3.722  16.220  0.00  0.00    +0.000 F 
ATOM      2  C   UNL     1      47.425   4.782  15.545  0.00  0.00    +0.000 A 
ATOM      3  C   UNL     1      47.003   4.933  14.222  0.00  0.00    +0.000 A 
ATOM      4  C   UNL     1      47.439   6.005  13.444  0.00  0.00    +0.000 A 
ATOM      5  C   UNL     1      48.346   6.892  14.017  0.00  0.00    +0.000 A 
ATOM      6  C   UNL     1      48.760   6.732  15.345  0.00  0.00    +0.000 A 
ATOM      7  F   UNL     1      49.615   7.649  15.828  0.00  0.00    +0.000 F 
ATOM      8  C   UNL     1      48.320   5.674  16.153  0.00  0.00    +0.000 A 
ENDROOT
BRANCH   8   9
ATOM      9  C   UNL     1      48.805   5.481  17.540  0.00  0.00    +0.000 A 
ATOM     10  C   UNL     1      49.993   4.784  17.822  0.00  0.00    +0.000 A 
ATOM     11  C   UNL     1      50.473   4.653  19.129  0.00  0.00    +0.000 A 
ATOM     12  C   UNL     1      49.767   5.209  20.193  0.00  0.00    +0.000 A 
ATOM     13  C   UNL     1      48.574   5.900  19.957  0.00  0.00    +0.000 A 
ATOM     14  C   UNL     1      48.108   6.023  18.635  0.00  0.00    +0.000 A 
BRANCH  13  15
ATOM     15  C   UNL     1      47.790   6.525  21.082  0.00  0.00    +0.000 C 
ATOM     16  F   UNL     1      48.544   6.816  22.179  0.00  0.00    +0.000 F 
ATOM     17  F   UNL     1      47.202   7.698  20.716  0.00  0.00    +0.000 F 
ATOM     18  F   UNL     1      46.781   5.725  21.525  0.00  0.00    +0.000 F 
ENDBRANCH  13  15
ENDBRANCH   8   9
BRANCH   4  19
ATOM     19  N   UNL     1      46.996   6.079  12.123  0.00  0.00    +0.000 N 
ATOM     20  H   UNL     1      47.593   6.706  11.581  0.00  0.00    +0.000 HD
BRANCH  19  21
ATOM     21  C   UNL     1      45.583   6.368  11.867  0.00  0.00    +0.000 C 
BRANCH  21  22
ATOM     22  C   UNL     1      44.838   5.079  11.572  0.00  0.00    +0.000 A 
ATOM     23  C   UNL     1      43.829   4.658  12.421  0.00  0.00    +0.000 A 
ATOM     24  C   UNL     1      43.192   3.489  12.078  0.00  0.00    +0.000 A 
ATOM     25  N   UNL     1      43.495   2.774  10.983  0.00  0.00    +0.000 NA
ATOM     26  C   UNL     1      44.493   3.245  10.193  0.00  0.00    +0.000 A 
ATOM     27  N   UNL     1      45.180   4.387  10.461  0.00  0.00    +0.000 NA
BRANCH  26  28
ATOM     28  C   UNL     1      44.858   2.459   8.928  0.00  0.00    +0.000 C 
ATOM     29  F   UNL     1      44.285   1.218   8.855  0.00  0.00    +0.000 F 
ATOM     30  F   UNL     1      44.483   3.096   7.777  0.00  0.00    +0.000 F 
ATOM     31  F   UNL     1      46.203   2.241   8.804  0.00  0.00    +0.000 F 
ENDBRANCH  26  28
ENDBRANCH  21  22
ENDBRANCH  19  21
ENDBRANCH   4  19
TORSDOF 6
ENDMDL
MODEL 5
REMARK VINA RESULT:    -7.098      4.562      6.134
REMARK INTER + INTRA:         -10.970
REMARK INTER:                  -9.835
REMARK INTRA:                  -1.134
REMARK UNBOUND:                -1.382
REMARK  Name = 
REMARK  6 active torsions:
REMARK  status: ('A' for Active; 'I' for Inactive)
REMARK    1  A    between atoms: C_4  and  N_5
REMARK    2  A    between atoms: N_5  and  C_6
REMARK    3  A    between atoms: C_6  and  C_7
REMARK    4  A    between atoms: C_11  and  C_12
REMARK    5  A    between atoms: C_20  and  C_21
REMARK    6  A    between atoms: C_25  and  C_26
REMARK                            x       y       z     vdW  Elec       q    Type
REMARK                         _______ _______ _______ _____ _____    ______ ____
ROOT
ATOM      1  F   UNL     1      49.663   7.533  15.752  0.00  0.00    +0.000 F 
ATOM      2  C   UNL     1      48.792   6.610  15.317  0.00  0.00    +0.000 A 
ATOM      3  C   UNL     1      48.282   6.774  14.026  0.00  0.00    +0.000 A 
ATOM      4  C   UNL     1      47.374   5.862  13.488  0.00  0.00    +0.000 A 
ATOM      5  C   UNL     1      46.956   4.810  14.300  0.00  0.00    +0.000 A 
ATOM      6  C   UNL     1      47.475   4.655  15.590  0.00  0.00    +0.000 A 
ATOM      7  F   UNL     1      47.041   3.597  16.295  0.00  0.00    +0.000 F 
ATOM      8  C   UNL     1      48.405   5.547  16.146  0.00  0.00    +0.000 A 
ENDROOT
BRANCH   8   9
ATOM      9  C   UNL     1      48.909   5.405  17.532  0.00  0.00    +0.000 A 
ATOM     10  C   UNL     1      50.134   4.776  17.816  0.00  0.00    +0.000 A 
ATOM     11  C   UNL     1      50.629   4.694  19.122  0.00  0.00    +0.000 A 
ATOM     12  C   UNL     1      49.903   5.230  20.181  0.00  0.00    +0.000 A 
ATOM     13  C   UNL     1      48.674   5.854  19.943  0.00  0.00    +0.000 A 
ATOM     14  C   UNL     1      48.192   5.929  18.623  0.00  0.00    +0.000 A 
BRANCH  13  15
ATOM     15  C   UNL     1      47.867   6.458  21.063  0.00  0.00    +0.000 C 
ATOM     16  F   UNL     1      47.034   7.458  20.659  0.00  0.00    +0.000 F 
ATOM     17  F   UNL     1      47.072   5.542  21.684  0.00  0.00    +0.000 F 
ATOM     18  F   UNL     1      48.647   6.996  22.040  0.00  0.00    +0.000 F 
ENDBRANCH  13  15
ENDBRANCH   8   9
BRANCH   4  19
ATOM     19  N   UNL     1      46.888   6.103  12.202  0.00  0.00    +0.000 N 
ATOM     20  H   UNL     1      47.430   6.841  11.749  0.00  0.00    +0.000 HD
BRANCH  19  21
ATOM     21  C   UNL     1      45.453   6.335  12.022  0.00  0.00    +0.000 C 
BRANCH  21  22
ATOM     22  C   UNL     1      44.760   5.031  11.671  0.00  0.00    +0.000 A 
ATOM     23  C   UNL     1      43.784   4.524  12.512  0.00  0.00    +0.000 A 
ATOM     24  C   UNL     1      43.193   3.347  12.117  0.00  0.00    +0.000 A 
ATOM     25  N   UNL     1      43.508   2.703  10.983  0.00  0.00    +0.000 NA
ATOM     26  C   UNL     1      44.472   3.256  10.205  0.00  0.00    +0.000 A 
ATOM     27  N   UNL     1      45.113   4.413  10.521  0.00  0.00    +0.000 NA
BRANCH  26  28
ATOM     28  C   UNL     1      44.850   2.553   8.895  0.00  0.00    +0.000 C 
ATOM     29  F   UNL     1      46.199   2.449   8.686  0.00  0.00    +0.000 F 
ATOM     30  F   UNL     1      44.377   1.272   8.822  0.00  0.00    +0.000 F 
ATOM     31  F   UNL     1      44.363   3.187   7.786  0.00  0.00    +0.000 F 
ENDBRANCH  26  28
ENDBRANCH  21  22
ENDBRANCH  19  21
ENDBRANCH   4  19
TORSDOF 6
ENDMDL
MODEL 6
REMARK VINA RESULT:    -6.938      3.885      8.350
REMARK INTER + INTRA:         -10.754
REMARK INTER:                  -9.456
REMARK INTRA:                  -1.298
REMARK UNBOUND:                -1.382
REMARK  Name = 
REMARK  6 active torsions:
REMARK  status: ('A' for Active; 'I' for Inactive)
REMARK    1  A    between atoms: C_4  and  N_5
REMARK    2  A    between atoms: N_5  and  C_6
REMARK    3  A    between atoms: C_6  and  C_7
REMARK    4  A    between atoms: C_11  and  C_12
REMARK    5  A    between atoms: C_20  and  C_21
REMARK    6  A    between atoms: C_25  and  C_26
REMARK                            x       y       z     vdW  Elec       q    Type
REMARK                         _______ _______ _______ _____ _____    ______ ____
ROOT
ATOM      1  F   UNL     1      47.604   4.963  13.281  0.00  0.00    +0.000 F 
ATOM      2  C   UNL     1      47.029   6.168  13.149  0.00  0.00    +0.000 A 
ATOM      3  C   UNL     1      47.602   7.228  13.855  0.00  0.00    +0.000 A 
ATOM      4  C   UNL     1      47.075   8.517  13.776  0.00  0.00    +0.000 A 
ATOM      5  C   UNL     1      45.928   8.700  13.007  0.00  0.00    +0.000 A 
ATOM      6  C   UNL     1      45.363   7.630  12.302  0.00  0.00    +0.000 A 
ATOM      7  F   UNL     1      44.275   7.900  11.561  0.00  0.00    +0.000 F 
ATOM      8  C   UNL     1      45.887   6.330  12.349  0.00  0.00    +0.000 A 
ENDROOT
BRANCH   8   9
ATOM      9  C   UNL     1      45.252   5.193  11.643  0.00  0.00    +0.000 A 
ATOM     10  C   UNL     1      44.210   4.448  12.222  0.00  0.00    +0.000 A 
ATOM     11  C   UNL     1      43.579   3.410  11.528  0.00  0.00    +0.000 A 
ATOM     12  C   UNL     1      43.983   3.084  10.236  0.00  0.00    +0.000 A 
ATOM     13  C   UNL     1      45.023   3.793   9.628  0.00  0.00    +0.000 A 
ATOM     14  C   UNL     1      45.646   4.835  10.341  0.00  0.00    +0.000 A 
BRANCH  13  15
ATOM     15  C   UNL     1      45.479   3.478   8.227  0.00  0.00    +0.000 C 
ATOM     16  F   UNL     1      46.415   4.344   7.748  0.00  0.00    +0.000 F 
ATOM     17  F   UNL     1      46.036   2.238   8.129  0.00  0.00    +0.000 F 
ATOM     18  F   UNL     1      44.457   3.499   7.327  0.00  0.00    +0.000 F 
ENDBRANCH  13  15
ENDBRANCH   8   9
BRANCH   4  19
ATOM     19  N   UNL     1      47.685   9.522  14.528  0.00  0.00    +0.000 N 
ATOM     20  H   UNL     1      47.946  10.306  13.928  0.00  0.00    +0.000 HD
BRANCH  19  21
ATOM     21  C   UNL     1      48.792   9.164  15.417  0.00  0.00    +0.000 C 
BRANCH  21  22
ATOM     22  C   UNL     1      48.305   9.117  16.854  0.00  0.00    +0.000 A 
ATOM     23  C   UNL     1      47.987  10.294  17.510  0.00  0.00    +0.000 A 
ATOM     24  C   UNL     1      47.539  10.168  18.804  0.00  0.00    +0.000 A 
ATOM     25  N   UNL     1      47.393   8.987  19.425  0.00  0.00    +0.000 NA
ATOM     26  C   UNL     1      47.720   7.873  18.723  0.00  0.00    +0.000 A 
ATOM     27  N   UNL     1      48.178   7.907  17.443  0.00  0.00    +0.000 NA
BRANCH  26  28
ATOM     28  C   UNL     1      47.555   6.506  19.398  0.00  0.00    +0.000 C 
ATOM     29  F   UNL     1      47.345   6.572  20.749  0.00  0.00    +0.000 F 
ATOM     30  F   UNL     1      46.499   5.791  18.905  0.00  0.00    +0.000 F 
ATOM     31  F   UNL     1      48.648   5.698  19.244  0.00  0.00    +0.000 F 
ENDBRANCH  26  28
ENDBRANCH  21  22
ENDBRANCH  19  21
ENDBRANCH   4  19
TORSDOF 6
ENDMDL
MODEL 7
REMARK VINA RESULT:    -6.919      3.054      4.849
REMARK INTER + INTRA:         -10.728
REMARK INTER:                 -10.059
REMARK INTRA:                  -0.669
REMARK UNBOUND:                -1.382
REMARK  Name = 
REMARK  6 active torsions:
REMARK  status: ('A' for Active; 'I' for Inactive)
REMARK    1  A    between atoms: C_4  and  N_5
REMARK    2  A    between atoms: N_5  and  C_6
REMARK    3  A    between atoms: C_6  and  C_7
REMARK    4  A    between atoms: C_11  and  C_12
REMARK    5  A    between atoms: C_20  and  C_21
REMARK    6  A    between atoms: C_25  and  C_26
REMARK                            x       y       z     vdW  Elec       q    Type
REMARK                         _______ _______ _______ _____ _____    ______ ____
ROOT
ATOM      1  F   UNL     1      47.280   3.912  14.067  0.00  0.00    +0.000 F 
ATOM      2  C   UNL     1      47.000   5.122  13.558  0.00  0.00    +0.000 A 
ATOM      3  C   UNL     1      46.130   5.168  12.467  0.00  0.00    +0.000 A 
ATOM      4  C   UNL     1      45.779   6.381  11.874  0.00  0.00    +0.000 A 
ATOM      5  C   UNL     1      46.364   7.539  12.378  0.00  0.00    +0.000 A 
ATOM      6  C   UNL     1      47.234   7.482  13.474  0.00  0.00    +0.000 A 
ATOM      7  F   UNL     1      47.731   8.649  13.915  0.00  0.00    +0.000 F 
ATOM      8  C   UNL     1      47.586   6.276  14.099  0.00  0.00    +0.000 A 
ENDROOT
BRANCH   8   9
ATOM      9  C   UNL     1      48.548   6.219  15.225  0.00  0.00    +0.000 A 
ATOM     10  C   UNL     1      49.773   6.908  15.190  0.00  0.00    +0.000 A 
ATOM     11  C   UNL     1      50.652   6.893  16.278  0.00  0.00    +0.000 A 
ATOM     12  C   UNL     1      50.332   6.176  17.427  0.00  0.00    +0.000 A 
ATOM     13  C   UNL     1      49.129   5.468  17.498  0.00  0.00    +0.000 A 
ATOM     14  C   UNL     1      48.255   5.495  16.395  0.00  0.00    +0.000 A 
BRANCH  13  15
ATOM     15  C   UNL     1      48.742   4.691  18.731  0.00  0.00    +0.000 C 
ATOM     16  F   UNL     1      47.684   5.225  19.404  0.00  0.00    +0.000 F 
ATOM     17  F   UNL     1      48.390   3.406  18.446  0.00  0.00    +0.000 F 
ATOM     18  F   UNL     1      49.756   4.608  19.636  0.00  0.00    +0.000 F 
ENDBRANCH  13  15
ENDBRANCH   8   9
BRANCH   4  19
ATOM     19  N   UNL     1      44.924   6.348  10.772  0.00  0.00    +0.000 N 
ATOM     20  H   UNL     1      44.515   7.270  10.611  0.00  0.00    +0.000 HD
BRANCH  19  21
ATOM     21  C   UNL     1      43.891   5.311  10.710  0.00  0.00    +0.000 C 
BRANCH  21  22
ATOM     22  C   UNL     1      44.423   4.098   9.969  0.00  0.00    +0.000 A 
ATOM     23  C   UNL     1      43.954   2.835  10.291  0.00  0.00    +0.000 A 
ATOM     24  C   UNL     1      44.473   1.790   9.564  0.00  0.00    +0.000 A 
ATOM     25  N   UNL     1      45.376   1.945   8.583  0.00  0.00    +0.000 NA
ATOM     26  C   UNL     1      45.790   3.209   8.318  0.00  0.00    +0.000 A 
ATOM     27  N   UNL     1      45.336   4.300   8.992  0.00  0.00    +0.000 NA
BRANCH  26  28
ATOM     28  C   UNL     1      46.814   3.425   7.196  0.00  0.00    +0.000 C 
ATOM     29  F   UNL     1      47.867   2.551   7.225  0.00  0.00    +0.000 F 
ATOM     30  F   UNL     1      46.272   3.293   5.947  0.00  0.00    +0.000 F 
ATOM     31  F   UNL     1      47.379   4.670   7.219  0.00  0.00    +0.000 F 
ENDBRANCH  26  28
ENDBRANCH  21  22
ENDBRANCH  19  21
ENDBRANCH   4  19
TORSDOF 6
ENDMDL
MODEL 8
REMARK VINA RESULT:    -6.902      4.238      5.401
REMARK INTER + INTRA:         -10.705
REMARK INTER:                  -9.549
REMARK INTRA:                  -1.157
REMARK UNBOUND:                -1.382
REMARK  Name = 
REMARK  6 active torsions:
REMARK  status: ('A' for Active; 'I' for Inactive)
REMARK    1  A    between atoms: C_4  and  N_5
REMARK    2  A    between atoms: N_5  and  C_6
REMARK    3  A    between atoms: C_6  and  C_7
REMARK    4  A    between atoms: C_11  and  C_12
REMARK    5  A    between atoms: C_20  and  C_21
REMARK    6  A    between atoms: C_25  and  C_26
REMARK                            x       y       z     vdW  Elec       q    Type
REMARK                         _______ _______ _______ _____ _____    ______ ____
ROOT
ATOM      1  F   UNL     1      47.296   3.707  16.054  0.00  0.00    +0.000 F 
ATOM      2  C   UNL     1      47.634   4.824  15.390  0.00  0.00    +0.000 A 
ATOM      3  C   UNL     1      47.090   4.995  14.114  0.00  0.00    +0.000 A 
ATOM      4  C   UNL     1      47.381   6.126  13.352  0.00  0.00    +0.000 A 
ATOM      5  C   UNL     1      48.271   7.054  13.886  0.00  0.00    +0.000 A 
ATOM      6  C   UNL     1      48.808   6.874  15.166  0.00  0.00    +0.000 A 
ATOM      7  F   UNL     1      49.636   7.831  15.617  0.00  0.00    +0.000 F 
ATOM      8  C   UNL     1      48.514   5.755  15.960  0.00  0.00    +0.000 A 
ENDROOT
BRANCH   8   9
ATOM      9  C   UNL     1      49.129   5.545  17.292  0.00  0.00    +0.000 A 
ATOM     10  C   UNL     1      48.503   5.976  18.475  0.00  0.00    +0.000 A 
ATOM     11  C   UNL     1      49.063   5.727  19.732  0.00  0.00    +0.000 A 
ATOM     12  C   UNL     1      50.274   5.046  19.837  0.00  0.00    +0.000 A 
ATOM     13  C   UNL     1      50.934   4.610  18.684  0.00  0.00    +0.000 A 
ATOM     14  C   UNL     1      50.355   4.869  17.428  0.00  0.00    +0.000 A 
BRANCH  13  15
ATOM     15  C   UNL     1      52.239   3.860  18.759  0.00  0.00    +0.000 C 
ATOM     16  F   UNL     1      52.194   2.627  18.181  0.00  0.00    +0.000 F 
ATOM     17  F   UNL     1      53.256   4.523  18.141  0.00  0.00    +0.000 F 
ATOM     18  F   UNL     1      52.652   3.655  20.040  0.00  0.00    +0.000 F 
ENDBRANCH  13  15
ENDBRANCH   8   9
BRANCH   4  19
ATOM     19  N   UNL     1      46.821   6.218  12.076  0.00  0.00    +0.000 N 
ATOM     20  H   UNL     1      47.318   6.916  11.519  0.00  0.00    +0.000 HD
BRANCH  19  21
ATOM     21  C   UNL     1      45.373   6.398  11.953  0.00  0.00    +0.000 C 
BRANCH  21  22
ATOM     22  C   UNL     1      44.715   5.072  11.620  0.00  0.00    +0.000 A 
ATOM     23  C   UNL     1      43.760   4.545  12.473  0.00  0.00    +0.000 A 
ATOM     24  C   UNL     1      43.200   3.348  12.095  0.00  0.00    +0.000 A 
ATOM     25  N   UNL     1      43.526   2.702  10.965  0.00  0.00    +0.000 NA
ATOM     26  C   UNL     1      44.467   3.275  10.173  0.00  0.00    +0.000 A 
ATOM     27  N   UNL     1      45.078   4.452  10.474  0.00  0.00    +0.000 NA
BRANCH  26  28
ATOM     28  C   UNL     1      44.856   2.569   8.868  0.00  0.00    +0.000 C 
ATOM     29  F   UNL     1      46.206   2.466   8.670  0.00  0.00    +0.000 F 
ATOM     30  F   UNL     1      44.383   1.288   8.793  0.00  0.00    +0.000 F 
ATOM     31  F   UNL     1      44.377   3.202   7.754  0.00  0.00    +0.000 F 
ENDBRANCH  26  28
ENDBRANCH  21  22
ENDBRANCH  19  21
ENDBRANCH   4  19
TORSDOF 6
ENDMDL
MODEL 9
REMARK VINA RESULT:    -6.576      2.662      7.293
REMARK INTER + INTRA:         -10.265
REMARK INTER:                  -8.768
REMARK INTRA:                  -1.497
REMARK UNBOUND:                -1.382
REMARK  Name = 
REMARK  6 active torsions:
REMARK  status: ('A' for Active; 'I' for Inactive)
REMARK    1  A    between atoms: C_4  and  N_5
REMARK    2  A    between atoms: N_5  and  C_6
REMARK    3  A    between atoms: C_6  and  C_7
REMARK    4  A    between atoms: C_11  and  C_12
REMARK    5  A    between atoms: C_20  and  C_21
REMARK    6  A    between atoms: C_25  and  C_26
REMARK                            x       y       z     vdW  Elec       q    Type
REMARK                         _______ _______ _______ _____ _____    ______ ____
ROOT
ATOM      1  F   UNL     1      44.487   7.843  11.207  0.00  0.00    +0.000 F 
ATOM      2  C   UNL     1      45.471   7.579  12.080  0.00  0.00    +0.000 A 
ATOM      3  C   UNL     1      46.087   8.672  12.695  0.00  0.00    +0.000 A 
ATOM      4  C   UNL     1      47.117   8.495  13.619  0.00  0.00    +0.000 A 
ATOM      5  C   UNL     1      47.541   7.193  13.871  0.00  0.00    +0.000 A 
ATOM      6  C   UNL     1      46.915   6.105  13.251  0.00  0.00    +0.000 A 
ATOM      7  F   UNL     1      47.367   4.881  13.573  0.00  0.00    +0.000 F 
ATOM      8  C   UNL     1      45.865   6.257  12.334  0.00  0.00    +0.000 A 
ENDROOT
BRANCH   8   9
ATOM      9  C   UNL     1      45.243   5.103  11.643  0.00  0.00    +0.000 A 
ATOM     10  C   UNL     1      44.232   4.334  12.245  0.00  0.00    +0.000 A 
ATOM     11  C   UNL     1      43.612   3.280  11.565  0.00  0.00    +0.000 A 
ATOM     12  C   UNL     1      43.997   2.961  10.266  0.00  0.00    +0.000 A 
ATOM     13  C   UNL     1      45.007   3.695   9.635  0.00  0.00    +0.000 A 
ATOM     14  C   UNL     1      45.618   4.753  10.333  0.00  0.00    +0.000 A 
BRANCH  13  15
ATOM     15  C   UNL     1      45.441   3.388   8.225  0.00  0.00    +0.000 C 
ATOM     16  F   UNL     1      46.414   4.220   7.759  0.00  0.00    +0.000 F 
ATOM     17  F   UNL     1      45.941   2.126   8.098  0.00  0.00    +0.000 F 
ATOM     18  F   UNL     1      44.418   3.474   7.331  0.00  0.00    +0.000 F 
ENDBRANCH  13  15
ENDBRANCH   8   9
BRANCH   4  19
ATOM     19  N   UNL     1      47.703   9.634  14.174  0.00  0.00    +0.000 N 
ATOM     20  H   UNL     1      47.349  10.475  13.715  0.00  0.00    +0.000 HD
BRANCH  19  21
ATOM     21  C   UNL     1      49.161   9.689  14.297  0.00  0.00    +0.000 C 
BRANCH  21  22
ATOM     22  C   UNL     1      49.782   9.977  12.942  0.00  0.00    +0.000 A 
ATOM     23  C   UNL     1      49.573  11.205  12.338  0.00  0.00    +0.000 A 
ATOM     24  C   UNL     1      50.181  11.394  11.119  0.00  0.00    +0.000 A 
ATOM     25  N   UNL     1      50.951  10.471  10.524  0.00  0.00    +0.000 NA
ATOM     26  C   UNL     1      51.116   9.291  11.172  0.00  0.00    +0.000 A 
ATOM     27  N   UNL     1      50.546   9.015  12.376  0.00  0.00    +0.000 NA
BRANCH  26  28
ATOM     28  C   UNL     1      51.998   8.215  10.525  0.00  0.00    +0.000 C 
ATOM     29  F   UNL     1      53.134   7.926  11.230  0.00  0.00    +0.000 F 
ATOM     30  F   UNL     1      51.355   7.018  10.374  0.00  0.00    +0.000 F 
ATOM     31  F   UNL     1      52.430   8.559   9.273  0.00  0.00    +0.000 F 
ENDBRANCH  26  28
ENDBRANCH  21  22
ENDBRANCH  19  21
ENDBRANCH   4  19
TORSDOF 6
ENDMDL
