MODEL 1
REMARK VINA RESULT:    -6.608      0.000      0.000
REMARK INTER + INTRA:         -11.223
REMARK INTER:                  -9.312
REMARK INTRA:                  -1.911
REMARK UNBOUND:                -1.911
REMARK  Name = 
REMARK  8 active torsions:
REMARK  status: ('A' for Active; 'I' for Inactive)
REMARK    1  A    between atoms: C_1  and  C_2
REMARK    2  A    between atoms: C_2  and  N_3
REMARK    3  A    between atoms: C_2  and  C_22
REMARK    4  A    between atoms: N_3  and  C_4
REMARK    5  A    between atoms: C_4  and  C_5
REMARK    6  A    between atoms: C_8  and  C_9
REMARK    7  A    between atoms: C_9  and  C_10
REMARK    8  A    between atoms: C_11  and  C_12
REMARK                            x       y       z     vdW  Elec       q    Type
REMARK                         _______ _______ _______ _____ _____    ______ ____
ROOT
ATOM      1  C   UNL     1      49.307   8.103  16.785  0.00  0.00    +0.000 A 
ATOM      2  C   UNL     1      49.786   7.116  15.914  0.00  0.00    +0.000 A 
ATOM      3  C   UNL     1      49.511   7.180  14.546  0.00  0.00    +0.000 A 
ATOM      4  C   UNL     1      48.748   8.230  14.021  0.00  0.00    +0.000 A 
ATOM      5  C   UNL     1      48.257   9.213  14.889  0.00  0.00    +0.000 A 
ATOM      6  C   UNL     1      48.539   9.152  16.256  0.00  0.00    +0.000 A 
ENDROOT
BRANCH   1   7
ATOM      7  C   UNL     1      49.535   8.011  18.277  0.00  0.00    +0.000 C 
BRANCH   7   8
ATOM      8  N   UNL     1      48.469   7.285  18.969  0.00  0.00    +0.000 NA
ATOM      9  H   UNL     1      47.953   7.942  19.551  0.00  0.00    +0.000 HD
BRANCH   8  11
ATOM     10  C   UNL     1      49.998   6.742  20.872  0.00  0.00    +0.000 C 
ATOM     11  C   UNL     1      48.986   6.217  19.845  0.00  0.00    +0.000 C 
BRANCH  11  12
ATOM     12  C   UNL     1      49.647   5.164  18.970  0.00  0.00    +0.000 A 
ATOM     13  C   UNL     1      50.999   4.853  18.977  0.00  0.00    +0.000 A 
ATOM     14  S   UNL     1      51.405   3.567  17.930  0.00  0.00    +0.000 S 
ATOM     15  C   UNL     1      49.785   3.369  17.447  0.00  0.00    +0.000 A 
ATOM     16  N   UNL     1      49.423   2.395  16.569  0.00  0.00    +0.000 NA
ATOM     17  C   UNL     1      48.160   2.360  16.306  0.00  0.00    +0.000 A 
ATOM     18  N   UNL     1      47.225   3.218  16.830  0.00  0.00    +0.000 N 
ATOM     19  C   UNL     1      47.539   4.216  17.723  0.00  0.00    +0.000 A 
ATOM     20  O   UNL     1      46.682   4.965  18.177  0.00  0.00    +0.000 OA
ATOM     21  C   UNL     1      48.950   4.288  18.055  0.00  0.00    +0.000 A 
ATOM     22  H   UNL     1      46.252   3.138  16.574  0.00  0.00    +0.000 HD
ENDBRANCH  11  12
ENDBRANCH   8  11
ENDBRANCH   7   8
ENDBRANCH   1   7
BRANCH   4  23
ATOM     23  C   UNL     1      48.423   8.280  12.548  0.00  0.00    +0.000 C 
BRANCH  23  24
ATOM     24  C   UNL     1      47.162   7.579  12.122  0.00  0.00    +0.000 C 
ATOM     25  C   UNL     1      45.946   7.679  12.682  0.00  0.00    +0.000 C 
BRANCH  25  26
ATOM     26  C   UNL     1      44.852   6.818  12.182  0.00  0.00    +0.000 C 
ATOM     27  O   UNL     1      44.059   7.260  11.355  0.00  0.00    +0.000 OA
ATOM     28  N   UNL     1      44.807   5.528  12.666  0.00  0.00    +0.000 N 
ATOM     29  C   UNL     1      45.634   4.967  13.738  0.00  0.00    +0.000 C 
ATOM     30  C   UNL     1      46.393   3.723  13.238  0.00  0.00    +0.000 C 
ATOM     31  N   UNL     1      45.508   2.710  12.627  0.00  0.00    +0.000 NA
ATOM     32  C   UNL     1      44.700   3.336  11.556  0.00  0.00    +0.000 C 
ATOM     33  C   UNL     1      43.907   4.562  12.038  0.00  0.00    +0.000 C 
ATOM     34  H   UNL     1      44.868   2.368  13.344  0.00  0.00    +0.000 HD
ENDBRANCH  25  26
ENDBRANCH  23  24
ENDBRANCH   4  23
TORSDOF 7
ENDMDL
MODEL 2
REMARK VINA RESULT:    -6.290      1.526      1.910
REMARK INTER + INTRA:         -10.775
REMARK INTER:                  -8.915
REMARK INTRA:                  -1.861
REMARK UNBOUND:                -1.911
REMARK  Name = 
REMARK  8 active torsions:
REMARK  status: ('A' for Active; 'I' for Inactive)
REMARK    1  A    between atoms: C_1  and  C_2
REMARK    2  A    between atoms: C_2  and  N_3
REMARK    3  A    between atoms: C_2  and  C_22
REMARK    4  A    between atoms: N_3  and  C_4
REMARK    5  A    between atoms: C_4  and  C_5
REMARK    6  A    between atoms: C_8  and  C_9
REMARK    7  A    between atoms: C_9  and  C_10
REMARK    8  A    between atoms: C_11  and  C_12
REMARK                            x       y       z     vdW  Elec       q    Type
REMARK                         _______ _______ _______ _____ _____    ______ ____
ROOT
ATOM      1  C   UNL     1      49.979   8.192  17.523  0.00  0.00    +0.000 A 
ATOM      2  C   UNL     1      50.702   7.526  16.525  0.00  0.00    +0.000 A 
ATOM      3  C   UNL     1      50.193   7.422  15.228  0.00  0.00    +0.000 A 
ATOM      4  C   UNL     1      48.950   7.980  14.903  0.00  0.00    +0.000 A 
ATOM      5  C   UNL     1      48.220   8.637  15.900  0.00  0.00    +0.000 A 
ATOM      6  C   UNL     1      48.733   8.746  17.196  0.00  0.00    +0.000 A 
ENDROOT
BRANCH   1   7
ATOM      7  C   UNL     1      50.482   8.251  18.948  0.00  0.00    +0.000 C 
BRANCH   7   8
ATOM      8  N   UNL     1      51.215   7.046  19.340  0.00  0.00    +0.000 NA
ATOM      9  H   UNL     1      51.779   6.737  18.551  0.00  0.00    +0.000 HD
BRANCH   8  11
ATOM     10  C   UNL     1      50.413   5.589  21.208  0.00  0.00    +0.000 C 
ATOM     11  C   UNL     1      50.321   5.935  19.715  0.00  0.00    +0.000 C 
BRANCH  11  12
ATOM     12  C   UNL     1      50.701   4.719  18.886  0.00  0.00    +0.000 A 
ATOM     13  C   UNL     1      51.939   4.095  18.902  0.00  0.00    +0.000 A 
ATOM     14  S   UNL     1      52.014   2.706  17.912  0.00  0.00    +0.000 S 
ATOM     15  C   UNL     1      50.387   2.881  17.442  0.00  0.00    +0.000 A 
ATOM     16  N   UNL     1      49.792   1.985  16.610  0.00  0.00    +0.000 NA
ATOM     17  C   UNL     1      48.553   2.241  16.352  0.00  0.00    +0.000 A 
ATOM     18  N   UNL     1      47.857   3.318  16.840  0.00  0.00    +0.000 N 
ATOM     19  C   UNL     1      48.411   4.249  17.688  0.00  0.00    +0.000 A 
ATOM     20  O   UNL     1      47.763   5.200  18.111  0.00  0.00    +0.000 OA
ATOM     21  C   UNL     1      49.803   3.997  18.012  0.00  0.00    +0.000 A 
ATOM     22  H   UNL     1      46.889   3.461  16.592  0.00  0.00    +0.000 HD
ENDBRANCH  11  12
ENDBRANCH   8  11
ENDBRANCH   7   8
ENDBRANCH   1   7
BRANCH   4  23
ATOM     23  C   UNL     1      48.387   7.839  13.510  0.00  0.00    +0.000 C 
BRANCH  23  24
ATOM     24  C   UNL     1      47.858   6.480  13.143  0.00  0.00    +0.000 C 
ATOM     25  C   UNL     1      46.806   5.842  13.683  0.00  0.00    +0.000 C 
BRANCH  25  26
ATOM     26  C   UNL     1      46.512   4.457  13.257  0.00  0.00    +0.000 C 
ATOM     27  O   UNL     1      47.112   3.520  13.778  0.00  0.00    +0.000 OA
ATOM     28  N   UNL     1      45.536   4.296  12.297  0.00  0.00    +0.000 N 
ATOM     29  C   UNL     1      44.868   5.360  11.543  0.00  0.00    +0.000 C 
ATOM     30  C   UNL     1      43.340   5.274  11.726  0.00  0.00    +0.000 C 
ATOM     31  N   UNL     1      42.794   3.938  11.411  0.00  0.00    +0.000 NA
ATOM     32  C   UNL     1      43.507   2.908  12.201  0.00  0.00    +0.000 C 
ATOM     33  C   UNL     1      45.033   2.954  12.009  0.00  0.00    +0.000 C 
ATOM     34  H   UNL     1      42.959   3.748  10.423  0.00  0.00    +0.000 HD
ENDBRANCH  25  26
ENDBRANCH  23  24
ENDBRANCH   4  23
TORSDOF 7
ENDMDL
MODEL 3
REMARK VINA RESULT:    -6.236      1.560      1.941
REMARK INTER + INTRA:         -10.699
REMARK INTER:                  -9.000
REMARK INTRA:                  -1.698
REMARK UNBOUND:                -1.911
REMARK  Name = 
REMARK  8 active torsions:
REMARK  status: ('A' for Active; 'I' for Inactive)
REMARK    1  A    between atoms: C_1  and  C_2
REMARK    2  A    between atoms: C_2  and  N_3
REMARK    3  A    between atoms: C_2  and  C_22
REMARK    4  A    between atoms: N_3  and  C_4
REMARK    5  A    between atoms: C_4  and  C_5
REMARK    6  A    between atoms: C_8  and  C_9
REMARK    7  A    between atoms: C_9  and  C_10
REMARK    8  A    between atoms: C_11  and  C_12
REMARK                            x       y       z     vdW  Elec       q    Type
REMARK                         _______ _______ _______ _____ _____    ______ ____
ROOT
ATOM      1  C   UNL     1      51.202   7.346  15.559  0.00  0.00    +0.000 A 
ATOM      2  C   UNL     1      51.732   8.028  14.456  0.00  0.00    +0.000 A 
ATOM      3  C   UNL     1      50.936   8.307  13.342  0.00  0.00    +0.000 A 
ATOM      4  C   UNL     1      49.594   7.907  13.307  0.00  0.00    +0.000 A 
ATOM      5  C   UNL     1      49.063   7.216  14.402  0.00  0.00    +0.000 A 
ATOM      6  C   UNL     1      49.858   6.943  15.518  0.00  0.00    +0.000 A 
ENDROOT
BRANCH   1   7
ATOM      7  C   UNL     1      52.068   6.974  16.741  0.00  0.00    +0.000 C 
BRANCH   7   8
ATOM      8  N   UNL     1      51.317   6.910  17.995  0.00  0.00    +0.000 NA
ATOM      9  H   UNL     1      51.556   7.725  18.558  0.00  0.00    +0.000 HD
BRANCH   8  11
ATOM     10  C   UNL     1      53.143   5.435  18.856  0.00  0.00    +0.000 C 
ATOM     11  C   UNL     1      51.634   5.708  18.787  0.00  0.00    +0.000 C 
BRANCH  11  12
ATOM     12  C   UNL     1      50.931   4.520  18.148  0.00  0.00    +0.000 A 
ATOM     13  C   UNL     1      51.558   3.370  17.693  0.00  0.00    +0.000 A 
ATOM     14  S   UNL     1      50.471   2.193  17.101  0.00  0.00    +0.000 S 
ATOM     15  C   UNL     1      49.125   3.174  17.451  0.00  0.00    +0.000 A 
ATOM     16  N   UNL     1      47.856   2.744  17.214  0.00  0.00    +0.000 NA
ATOM     17  C   UNL     1      46.939   3.591  17.539  0.00  0.00    +0.000 A 
ATOM     18  N   UNL     1      47.172   4.836  18.069  0.00  0.00    +0.000 N 
ATOM     19  C   UNL     1      48.435   5.316  18.330  0.00  0.00    +0.000 A 
ATOM     20  O   UNL     1      48.612   6.431  18.807  0.00  0.00    +0.000 OA
ATOM     21  C   UNL     1      49.500   4.392  17.987  0.00  0.00    +0.000 A 
ATOM     22  H   UNL     1      46.405   5.451  18.294  0.00  0.00    +0.000 HD
ENDBRANCH  11  12
ENDBRANCH   8  11
ENDBRANCH   7   8
ENDBRANCH   1   7
BRANCH   4  23
ATOM     23  C   UNL     1      48.745   8.179  12.090  0.00  0.00    +0.000 C 
BRANCH  23  24
ATOM     24  C   UNL     1      47.302   7.765  12.181  0.00  0.00    +0.000 C 
ATOM     25  C   UNL     1      46.687   6.798  11.481  0.00  0.00    +0.000 C 
BRANCH  25  26
ATOM     26  C   UNL     1      45.227   6.617  11.636  0.00  0.00    +0.000 C 
ATOM     27  O   UNL     1      44.457   7.436  11.143  0.00  0.00    +0.000 OA
ATOM     28  N   UNL     1      44.810   5.495  12.320  0.00  0.00    +0.000 N 
ATOM     29  C   UNL     1      45.661   4.543  13.040  0.00  0.00    +0.000 C 
ATOM     30  C   UNL     1      45.444   3.115  12.506  0.00  0.00    +0.000 C 
ATOM     31  N   UNL     1      44.024   2.706  12.505  0.00  0.00    +0.000 NA
ATOM     32  C   UNL     1      43.218   3.704  11.766  0.00  0.00    +0.000 C 
ATOM     33  C   UNL     1      43.393   5.135  12.302  0.00  0.00    +0.000 C 
ATOM     34  H   UNL     1      43.694   2.687  13.470  0.00  0.00    +0.000 HD
ENDBRANCH  25  26
ENDBRANCH  23  24
ENDBRANCH   4  23
TORSDOF 7
ENDMDL
MODEL 4
REMARK VINA RESULT:    -6.018      1.988      2.678
REMARK INTER + INTRA:         -10.392
REMARK INTER:                  -9.217
REMARK INTRA:                  -1.176
REMARK UNBOUND:                -1.911
REMARK  Name = 
REMARK  8 active torsions:
REMARK  status: ('A' for Active; 'I' for Inactive)
REMARK    1  A    between atoms: C_1  and  C_2
REMARK    2  A    between atoms: C_2  and  N_3
REMARK    3  A    between atoms: C_2  and  C_22
REMARK    4  A    between atoms: N_3  and  C_4
REMARK    5  A    between atoms: C_4  and  C_5
REMARK    6  A    between atoms: C_8  and  C_9
REMARK    7  A    between atoms: C_9  and  C_10
REMARK    8  A    between atoms: C_11  and  C_12
REMARK                            x       y       z     vdW  Elec       q    Type
REMARK                         _______ _______ _______ _____ _____    ______ ____
ROOT
ATOM      1  C   UNL     1      49.741   7.569  14.715  0.00  0.00    +0.000 A 
ATOM      2  C   UNL     1      48.722   8.306  15.333  0.00  0.00    +0.000 A 
ATOM      3  C   UNL     1      47.719   8.910  14.572  0.00  0.00    +0.000 A 
ATOM      4  C   UNL     1      47.714   8.792  13.176  0.00  0.00    +0.000 A 
ATOM      5  C   UNL     1      48.736   8.065  12.554  0.00  0.00    +0.000 A 
ATOM      6  C   UNL     1      49.735   7.455  13.317  0.00  0.00    +0.000 A 
ENDROOT
BRANCH   1   7
ATOM      7  C   UNL     1      50.873   6.969  15.518  0.00  0.00    +0.000 C 
BRANCH   7   8
ATOM      8  N   UNL     1      50.507   6.717  16.912  0.00  0.00    +0.000 NA
ATOM      9  H   UNL     1      51.311   6.925  17.502  0.00  0.00    +0.000 HD
BRANCH   8  11
ATOM     10  C   UNL     1      48.953   5.191  18.140  0.00  0.00    +0.000 C 
ATOM     11  C   UNL     1      50.122   5.315  17.153  0.00  0.00    +0.000 C 
BRANCH  11  12
ATOM     12  C   UNL     1      51.333   4.578  17.703  0.00  0.00    +0.000 A 
ATOM     13  C   UNL     1      52.377   5.165  18.402  0.00  0.00    +0.000 A 
ATOM     14  S   UNL     1      53.543   4.044  18.949  0.00  0.00    +0.000 S 
ATOM     15  C   UNL     1      52.681   2.734  18.287  0.00  0.00    +0.000 A 
ATOM     16  N   UNL     1      53.122   1.455  18.430  0.00  0.00    +0.000 NA
ATOM     17  C   UNL     1      52.360   0.567  17.885  0.00  0.00    +0.000 A 
ATOM     18  N   UNL     1      51.202   0.841  17.199  0.00  0.00    +0.000 N 
ATOM     19  C   UNL     1      50.713   2.115  17.032  0.00  0.00    +0.000 A 
ATOM     20  O   UNL     1      49.673   2.329  16.418  0.00  0.00    +0.000 OA
ATOM     21  C   UNL     1      51.535   3.148  17.636  0.00  0.00    +0.000 A 
ATOM     22  H   UNL     1      50.657   0.096  16.792  0.00  0.00    +0.000 HD
ENDBRANCH  11  12
ENDBRANCH   8  11
ENDBRANCH   7   8
ENDBRANCH   1   7
BRANCH   4  23
ATOM     23  C   UNL     1      46.648   9.472  12.352  0.00  0.00    +0.000 C 
BRANCH  23  24
ATOM     24  C   UNL     1      45.497   8.610  11.914  0.00  0.00    +0.000 C 
ATOM     25  C   UNL     1      45.049   7.489  12.501  0.00  0.00    +0.000 C 
BRANCH  25  26
ATOM     26  C   UNL     1      43.967   6.720  11.849  0.00  0.00    +0.000 C 
ATOM     27  O   UNL     1      43.204   7.285  11.069  0.00  0.00    +0.000 OA
ATOM     28  N   UNL     1      43.898   5.375  12.141  0.00  0.00    +0.000 N 
ATOM     29  C   UNL     1      44.687   4.657  13.147  0.00  0.00    +0.000 C 
ATOM     30  C   UNL     1      45.454   3.489  12.499  0.00  0.00    +0.000 C 
ATOM     31  N   UNL     1      44.582   2.583  11.721  0.00  0.00    +0.000 NA
ATOM     32  C   UNL     1      43.814   3.365  10.726  0.00  0.00    +0.000 C 
ATOM     33  C   UNL     1      43.013   4.518  11.354  0.00  0.00    +0.000 C 
ATOM     34  H   UNL     1      43.918   2.149  12.362  0.00  0.00    +0.000 HD
ENDBRANCH  25  26
ENDBRANCH  23  24
ENDBRANCH   4  23
TORSDOF 7
ENDMDL
MODEL 5
REMARK VINA RESULT:    -5.953      1.648      2.021
REMARK INTER + INTRA:         -10.301
REMARK INTER:                  -9.107
REMARK INTRA:                  -1.194
REMARK UNBOUND:                -1.911
REMARK  Name = 
REMARK  8 active torsions:
REMARK  status: ('A' for Active; 'I' for Inactive)
REMARK    1  A    between atoms: C_1  and  C_2
REMARK    2  A    between atoms: C_2  and  N_3
REMARK    3  A    between atoms: C_2  and  C_22
REMARK    4  A    between atoms: N_3  and  C_4
REMARK    5  A    between atoms: C_4  and  C_5
REMARK    6  A    between atoms: C_8  and  C_9
REMARK    7  A    between atoms: C_9  and  C_10
REMARK    8  A    between atoms: C_11  and  C_12
REMARK                            x       y       z     vdW  Elec       q    Type
REMARK                         _______ _______ _______ _____ _____    ______ ____
ROOT
ATOM      1  C   UNL     1      50.285   8.420  16.316  0.00  0.00    +0.000 A 
ATOM      2  C   UNL     1      50.348   7.392  15.367  0.00  0.00    +0.000 A 
ATOM      3  C   UNL     1      49.674   7.505  14.149  0.00  0.00    +0.000 A 
ATOM      4  C   UNL     1      48.922   8.650  13.855  0.00  0.00    +0.000 A 
ATOM      5  C   UNL     1      48.847   9.675  14.805  0.00  0.00    +0.000 A 
ATOM      6  C   UNL     1      49.527   9.563  16.020  0.00  0.00    +0.000 A 
ENDROOT
BRANCH   1   7
ATOM      7  C   UNL     1      50.949   8.282  17.668  0.00  0.00    +0.000 C 
BRANCH   7   8
ATOM      8  N   UNL     1      50.933   6.907  18.168  0.00  0.00    +0.000 NA
ATOM      9  H   UNL     1      51.109   6.275  17.389  0.00  0.00    +0.000 HD
BRANCH   8  11
ATOM     10  C   UNL     1      49.751   6.216  20.261  0.00  0.00    +0.000 C 
ATOM     11  C   UNL     1      49.636   6.535  18.764  0.00  0.00    +0.000 C 
BRANCH  11  12
ATOM     12  C   UNL     1      49.105   5.318  18.023  0.00  0.00    +0.000 A 
ATOM     13  C   UNL     1      47.872   5.242  17.391  0.00  0.00    +0.000 A 
ATOM     14  S   UNL     1      47.613   3.760  16.584  0.00  0.00    +0.000 S 
ATOM     15  C   UNL     1      49.148   3.177  17.036  0.00  0.00    +0.000 A 
ATOM     16  N   UNL     1      49.584   1.953  16.635  0.00  0.00    +0.000 NA
ATOM     17  C   UNL     1      50.770   1.652  17.046  0.00  0.00    +0.000 A 
ATOM     18  N   UNL     1      51.557   2.458  17.830  0.00  0.00    +0.000 N 
ATOM     19  C   UNL     1      51.164   3.704  18.257  0.00  0.00    +0.000 A 
ATOM     20  O   UNL     1      51.890   4.404  18.955  0.00  0.00    +0.000 OA
ATOM     21  C   UNL     1      49.837   4.089  17.813  0.00  0.00    +0.000 A 
ATOM     22  H   UNL     1      52.475   2.155  18.120  0.00  0.00    +0.000 HD
ENDBRANCH  11  12
ENDBRANCH   8  11
ENDBRANCH   7   8
ENDBRANCH   1   7
BRANCH   4  23
ATOM     23  C   UNL     1      48.167   8.757  12.552  0.00  0.00    +0.000 C 
BRANCH  23  24
ATOM     24  C   UNL     1      46.782   8.173  12.537  0.00  0.00    +0.000 C 
ATOM     25  C   UNL     1      46.354   7.109  11.838  0.00  0.00    +0.000 C 
BRANCH  25  26
ATOM     26  C   UNL     1      44.918   6.757  11.873  0.00  0.00    +0.000 C 
ATOM     27  O   UNL     1      44.096   7.501  11.344  0.00  0.00    +0.000 OA
ATOM     28  N   UNL     1      44.585   5.570  12.489  0.00  0.00    +0.000 N 
ATOM     29  C   UNL     1      45.484   4.696  13.247  0.00  0.00    +0.000 C 
ATOM     30  C   UNL     1      45.476   3.272  12.657  0.00  0.00    +0.000 C 
ATOM     31  N   UNL     1      44.117   2.704  12.533  0.00  0.00    +0.000 NA
ATOM     32  C   UNL     1      43.258   3.631  11.760  0.00  0.00    +0.000 C 
ATOM     33  C   UNL     1      43.225   5.052  12.349  0.00  0.00    +0.000 C 
ATOM     34  H   UNL     1      43.720   2.613  13.467  0.00  0.00    +0.000 HD
ENDBRANCH  25  26
ENDBRANCH  23  24
ENDBRANCH   4  23
TORSDOF 7
ENDMDL
MODEL 6
REMARK VINA RESULT:    -5.866      3.071      8.476
REMARK INTER + INTRA:         -10.177
REMARK INTER:                  -9.113
REMARK INTRA:                  -1.065
REMARK UNBOUND:                -1.911
REMARK  Name = 
REMARK  8 active torsions:
REMARK  status: ('A' for Active; 'I' for Inactive)
REMARK    1  A    between atoms: C_1  and  C_2
REMARK    2  A    between atoms: C_2  and  N_3
REMARK    3  A    between atoms: C_2  and  C_22
REMARK    4  A    between atoms: N_3  and  C_4
REMARK    5  A    between atoms: C_4  and  C_5
REMARK    6  A    between atoms: C_8  and  C_9
REMARK    7  A    between atoms: C_9  and  C_10
REMARK    8  A    between atoms: C_11  and  C_12
REMARK                            x       y       z     vdW  Elec       q    Type
REMARK                         _______ _______ _______ _____ _____    ______ ____
ROOT
ATOM      1  C   UNL     1      47.689   6.363  14.101  0.00  0.00    +0.000 A 
ATOM      2  C   UNL     1      48.529   6.730  15.160  0.00  0.00    +0.000 A 
ATOM      3  C   UNL     1      48.741   5.862  16.234  0.00  0.00    +0.000 A 
ATOM      4  C   UNL     1      48.116   4.609  16.272  0.00  0.00    +0.000 A 
ATOM      5  C   UNL     1      47.268   4.242  15.221  0.00  0.00    +0.000 A 
ATOM      6  C   UNL     1      47.061   5.109  14.144  0.00  0.00    +0.000 A 
ENDROOT
BRANCH   1   7
ATOM      7  C   UNL     1      47.392   7.319  12.968  0.00  0.00    +0.000 C 
BRANCH   7   8
ATOM      8  N   UNL     1      47.027   6.631  11.729  0.00  0.00    +0.000 NA
ATOM      9  H   UNL     1      47.580   7.019  10.967  0.00  0.00    +0.000 HD
BRANCH   8  11
ATOM     10  C   UNL     1      44.886   7.776  12.328  0.00  0.00    +0.000 C 
ATOM     11  C   UNL     1      45.604   6.802  11.383  0.00  0.00    +0.000 C 
BRANCH  11  12
ATOM     12  C   UNL     1      44.932   5.440  11.449  0.00  0.00    +0.000 A 
ATOM     13  C   UNL     1      44.166   4.976  12.508  0.00  0.00    +0.000 A 
ATOM     14  S   UNL     1      43.489   3.433  12.232  0.00  0.00    +0.000 S 
ATOM     15  C   UNL     1      44.181   3.341  10.680  0.00  0.00    +0.000 A 
ATOM     16  N   UNL     1      43.963   2.269   9.872  0.00  0.00    +0.000 NA
ATOM     17  C   UNL     1      44.543   2.345   8.721  0.00  0.00    +0.000 A 
ATOM     18  N   UNL     1      45.331   3.390   8.307  0.00  0.00    +0.000 N 
ATOM     19  C   UNL     1      45.578   4.497   9.084  0.00  0.00    +0.000 A 
ATOM     20  O   UNL     1      46.283   5.418   8.685  0.00  0.00    +0.000 OA
ATOM     21  C   UNL     1      44.938   4.460  10.386  0.00  0.00    +0.000 A 
ATOM     22  H   UNL     1      45.759   3.380   7.394  0.00  0.00    +0.000 HD
ENDBRANCH  11  12
ENDBRANCH   8  11
ENDBRANCH   7   8
ENDBRANCH   1   7
BRANCH   4  23
ATOM     23  C   UNL     1      48.320   3.686  17.448  0.00  0.00    +0.000 C 
BRANCH  23  24
ATOM     24  C   UNL     1      48.987   4.286  18.655  0.00  0.00    +0.000 C 
ATOM     25  C   UNL     1      48.400   4.949  19.665  0.00  0.00    +0.000 C 
BRANCH  25  26
ATOM     26  C   UNL     1      49.248   5.562  20.710  0.00  0.00    +0.000 C 
ATOM     27  O   UNL     1      50.288   5.005  21.054  0.00  0.00    +0.000 OA
ATOM     28  N   UNL     1      48.823   6.767  21.227  0.00  0.00    +0.000 N 
ATOM     29  C   UNL     1      47.542   7.429  20.962  0.00  0.00    +0.000 C 
ATOM     30  C   UNL     1      47.773   8.849  20.413  0.00  0.00    +0.000 C 
ATOM     31  N   UNL     1      48.658   9.666  21.270  0.00  0.00    +0.000 NA
ATOM     32  C   UNL     1      49.931   8.945  21.501  0.00  0.00    +0.000 C 
ATOM     33  C   UNL     1      49.727   7.535  22.081  0.00  0.00    +0.000 C 
ATOM     34  H   UNL     1      48.201   9.795  22.172  0.00  0.00    +0.000 HD
ENDBRANCH  25  26
ENDBRANCH  23  24
ENDBRANCH   4  23
TORSDOF 7
ENDMDL
MODEL 7
REMARK VINA RESULT:    -5.579      2.773      7.598
REMARK INTER + INTRA:          -9.773
REMARK INTER:                  -8.603
REMARK INTRA:                  -1.170
REMARK UNBOUND:                -1.911
REMARK  Name = 
REMARK  8 active torsions:
REMARK  status: ('A' for Active; 'I' for Inactive)
REMARK    1  A    between atoms: C_1  and  C_2
REMARK    2  A    between atoms: C_2  and  N_3
REMARK    3  A    between atoms: C_2  and  C_22
REMARK    4  A    between atoms: N_3  and  C_4
REMARK    5  A    between atoms: C_4  and  C_5
REMARK    6  A    between atoms: C_8  and  C_9
REMARK    7  A    between atoms: C_9  and  C_10
REMARK    8  A    between atoms: C_11  and  C_12
REMARK                            x       y       z     vdW  Elec       q    Type
REMARK                         _______ _______ _______ _____ _____    ______ ____
ROOT
ATOM      1  C   UNL     1      48.681   8.177  12.794  0.00  0.00    +0.000 A 
ATOM      2  C   UNL     1      49.897   7.585  13.158  0.00  0.00    +0.000 A 
ATOM      3  C   UNL     1      50.625   8.066  14.248  0.00  0.00    +0.000 A 
ATOM      4  C   UNL     1      50.154   9.152  14.996  0.00  0.00    +0.000 A 
ATOM      5  C   UNL     1      48.944   9.754  14.631  0.00  0.00    +0.000 A 
ATOM      6  C   UNL     1      48.213   9.267  13.544  0.00  0.00    +0.000 A 
ENDROOT
BRANCH   1   7
ATOM      7  C   UNL     1      47.916   7.715  11.575  0.00  0.00    +0.000 C 
BRANCH   7   8
ATOM      8  N   UNL     1      47.140   6.499  11.821  0.00  0.00    +0.000 NA
ATOM      9  H   UNL     1      47.466   5.771  11.187  0.00  0.00    +0.000 HD
BRANCH   8  11
ATOM     10  C   UNL     1      45.043   7.584  12.644  0.00  0.00    +0.000 C 
ATOM     11  C   UNL     1      45.697   6.689  11.583  0.00  0.00    +0.000 C 
BRANCH  11  12
ATOM     12  C   UNL     1      45.031   5.322  11.589  0.00  0.00    +0.000 A 
ATOM     13  C   UNL     1      44.306   4.790  12.645  0.00  0.00    +0.000 A 
ATOM     14  S   UNL     1      43.622   3.264  12.299  0.00  0.00    +0.000 S 
ATOM     15  C   UNL     1      44.256   3.272  10.720  0.00  0.00    +0.000 A 
ATOM     16  N   UNL     1      44.011   2.250   9.855  0.00  0.00    +0.000 NA
ATOM     17  C   UNL     1      44.548   2.400   8.691  0.00  0.00    +0.000 A 
ATOM     18  N   UNL     1      45.318   3.471   8.314  0.00  0.00    +0.000 N 
ATOM     19  C   UNL     1      45.591   4.530   9.148  0.00  0.00    +0.000 A 
ATOM     20  O   UNL     1      46.279   5.476   8.782  0.00  0.00    +0.000 OA
ATOM     21  C   UNL     1      45.000   4.409  10.468  0.00  0.00    +0.000 A 
ATOM     22  H   UNL     1      45.713   3.520   7.386  0.00  0.00    +0.000 HD
ENDBRANCH  11  12
ENDBRANCH   8  11
ENDBRANCH   7   8
ENDBRANCH   1   7
BRANCH   4  23
ATOM     23  C   UNL     1      50.958   9.693  16.154  0.00  0.00    +0.000 C 
BRANCH  23  24
ATOM     24  C   UNL     1      50.970   8.855  17.402  0.00  0.00    +0.000 C 
ATOM     25  C   UNL     1      50.285   7.722  17.630  0.00  0.00    +0.000 C 
BRANCH  25  26
ATOM     26  C   UNL     1      50.347   7.103  18.972  0.00  0.00    +0.000 C 
ATOM     27  O   UNL     1      50.553   7.807  19.957  0.00  0.00    +0.000 OA
ATOM     28  N   UNL     1      50.135   5.743  19.038  0.00  0.00    +0.000 N 
ATOM     29  C   UNL     1      50.007   4.821  17.905  0.00  0.00    +0.000 C 
ATOM     30  C   UNL     1      48.672   4.056  17.980  0.00  0.00    +0.000 C 
ATOM     31  N   UNL     1      48.464   3.380  19.278  0.00  0.00    +0.000 NA
ATOM     32  C   UNL     1      48.606   4.359  20.379  0.00  0.00    +0.000 C 
ATOM     33  C   UNL     1      49.946   5.114  20.344  0.00  0.00    +0.000 C 
ATOM     34  H   UNL     1      49.189   2.672  19.391  0.00  0.00    +0.000 HD
ENDBRANCH  25  26
ENDBRANCH  23  24
ENDBRANCH   4  23
TORSDOF 7
ENDMDL
MODEL 8
REMARK VINA RESULT:    -5.556      3.064      7.687
REMARK INTER + INTRA:          -9.740
REMARK INTER:                  -8.650
REMARK INTRA:                  -1.090
REMARK UNBOUND:                -1.911
REMARK  Name = 
REMARK  8 active torsions:
REMARK  status: ('A' for Active; 'I' for Inactive)
REMARK    1  A    between atoms: C_1  and  C_2
REMARK    2  A    between atoms: C_2  and  N_3
REMARK    3  A    between atoms: C_2  and  C_22
REMARK    4  A    between atoms: N_3  and  C_4
REMARK    5  A    between atoms: C_4  and  C_5
REMARK    6  A    between atoms: C_8  and  C_9
REMARK    7  A    between atoms: C_9  and  C_10
REMARK    8  A    between atoms: C_11  and  C_12
REMARK                            x       y       z     vdW  Elec       q    Type
REMARK                         _______ _______ _______ _____ _____    ______ ____
ROOT
ATOM      1  C   UNL     1      48.471   8.932  14.897  0.00  0.00    +0.000 A 
ATOM      2  C   UNL     1      48.133   9.277  16.212  0.00  0.00    +0.000 A 
ATOM      3  C   UNL     1      49.127   9.560  17.152  0.00  0.00    +0.000 A 
ATOM      4  C   UNL     1      50.481   9.503  16.796  0.00  0.00    +0.000 A 
ATOM      5  C   UNL     1      50.823   9.149  15.486  0.00  0.00    +0.000 A 
ATOM      6  C   UNL     1      49.828   8.872  14.545  0.00  0.00    +0.000 A 
ENDROOT
BRANCH   1   7
ATOM      7  C   UNL     1      47.410   8.552  13.889  0.00  0.00    +0.000 C 
BRANCH   7   8
ATOM      8  N   UNL     1      46.986   7.157  14.012  0.00  0.00    +0.000 NA
ATOM      9  H   UNL     1      47.586   6.693  14.691  0.00  0.00    +0.000 HD
BRANCH   8  11
ATOM     10  C   UNL     1      47.896   7.185  11.683  0.00  0.00    +0.000 C 
ATOM     11  C   UNL     1      47.091   6.418  12.741  0.00  0.00    +0.000 C 
BRANCH  11  12
ATOM     12  C   UNL     1      45.684   6.161  12.223  0.00  0.00    +0.000 A 
ATOM     13  C   UNL     1      44.864   7.110  11.630  0.00  0.00    +0.000 A 
ATOM     14  S   UNL     1      43.374   6.478  11.089  0.00  0.00    +0.000 S 
ATOM     15  C   UNL     1      43.782   4.910  11.610  0.00  0.00    +0.000 A 
ATOM     16  N   UNL     1      42.939   3.860  11.416  0.00  0.00    +0.000 NA
ATOM     17  C   UNL     1      43.388   2.732  11.854  0.00  0.00    +0.000 A 
ATOM     18  N   UNL     1      44.597   2.558  12.481  0.00  0.00    +0.000 N 
ATOM     19  C   UNL     1      45.485   3.586  12.697  0.00  0.00    +0.000 A 
ATOM     20  O   UNL     1      46.560   3.400  13.256  0.00  0.00    +0.000 OA
ATOM     21  C   UNL     1      45.025   4.874  12.213  0.00  0.00    +0.000 A 
ATOM     22  H   UNL     1      44.882   1.646  12.805  0.00  0.00    +0.000 HD
ENDBRANCH  11  12
ENDBRANCH   8  11
ENDBRANCH   7   8
ENDBRANCH   1   7
BRANCH   4  23
ATOM     23  C   UNL     1      51.555   9.778  17.820  0.00  0.00    +0.000 C 
BRANCH  23  24
ATOM     24  C   UNL     1      51.472   8.988  19.096  0.00  0.00    +0.000 C 
ATOM     25  C   UNL     1      51.399   7.653  19.225  0.00  0.00    +0.000 C 
BRANCH  25  26
ATOM     26  C   UNL     1      51.212   7.070  20.571  0.00  0.00    +0.000 C 
ATOM     27  O   UNL     1      51.526   7.722  21.564  0.00  0.00    +0.000 OA
ATOM     28  N   UNL     1      50.656   5.811  20.631  0.00  0.00    +0.000 N 
ATOM     29  C   UNL     1      50.373   4.925  19.498  0.00  0.00    +0.000 C 
ATOM     30  C   UNL     1      48.885   4.526  19.484  0.00  0.00    +0.000 C 
ATOM     31  N   UNL     1      48.426   3.956  20.767  0.00  0.00    +0.000 NA
ATOM     32  C   UNL     1      48.740   4.893  21.870  0.00  0.00    +0.000 C 
ATOM     33  C   UNL     1      50.227   5.281  21.924  0.00  0.00    +0.000 C 
ATOM     34  H   UNL     1      48.937   3.090  20.935  0.00  0.00    +0.000 HD
ENDBRANCH  25  26
ENDBRANCH  23  24
ENDBRANCH   4  23
TORSDOF 7
ENDMDL
MODEL 9
REMARK VINA RESULT:    -5.231      3.227      6.991
REMARK INTER + INTRA:          -9.283
REMARK INTER:                  -7.400
REMARK INTRA:                  -1.883
REMARK UNBOUND:                -1.911
REMARK  Name = 
REMARK  8 active torsions:
REMARK  status: ('A' for Active; 'I' for Inactive)
REMARK    1  A    between atoms: C_1  and  C_2
REMARK    2  A    between atoms: C_2  and  N_3
REMARK    3  A    between atoms: C_2  and  C_22
REMARK    4  A    between atoms: N_3  and  C_4
REMARK    5  A    between atoms: C_4  and  C_5
REMARK    6  A    between atoms: C_8  and  C_9
REMARK    7  A    between atoms: C_9  and  C_10
REMARK    8  A    between atoms: C_11  and  C_12
REMARK                            x       y       z     vdW  Elec       q    Type
REMARK                         _______ _______ _______ _____ _____    ______ ____
ROOT
ATOM      1  C   UNL     1      46.507   8.546  12.246  0.00  0.00    +0.000 A 
ATOM      2  C   UNL     1      45.235   8.003  12.468  0.00  0.00    +0.000 A 
ATOM      3  C   UNL     1      45.080   6.641  12.740  0.00  0.00    +0.000 A 
ATOM      4  C   UNL     1      46.194   5.794  12.794  0.00  0.00    +0.000 A 
ATOM      5  C   UNL     1      47.466   6.331  12.562  0.00  0.00    +0.000 A 
ATOM      6  C   UNL     1      47.620   7.694  12.297  0.00  0.00    +0.000 A 
ENDROOT
BRANCH   1   7
ATOM      7  C   UNL     1      46.685  10.002  11.880  0.00  0.00    +0.000 C 
BRANCH   7   8
ATOM      8  N   UNL     1      47.402  10.761  12.905  0.00  0.00    +0.000 NA
ATOM      9  H   UNL     1      46.780  11.477  13.275  0.00  0.00    +0.000 HD
BRANCH   8  11
ATOM     10  C   UNL     1      48.377  12.012  10.972  0.00  0.00    +0.000 C 
ATOM     11  C   UNL     1      48.602  11.436  12.377  0.00  0.00    +0.000 C 
BRANCH  11  12
ATOM     12  C   UNL     1      49.737  10.425  12.337  0.00  0.00    +0.000 A 
ATOM     13  C   UNL     1      50.375   9.984  11.187  0.00  0.00    +0.000 A 
ATOM     14  S   UNL     1      51.662   8.906  11.495  0.00  0.00    +0.000 S 
ATOM     15  C   UNL     1      51.422   9.005  13.177  0.00  0.00    +0.000 A 
ATOM     16  N   UNL     1      52.225   8.335  14.047  0.00  0.00    +0.000 NA
ATOM     17  C   UNL     1      51.928   8.515  15.290  0.00  0.00    +0.000 A 
ATOM     18  N   UNL     1      50.894   9.295  15.745  0.00  0.00    +0.000 N 
ATOM     19  C   UNL     1      50.058   9.996  14.908  0.00  0.00    +0.000 A 
ATOM     20  O   UNL     1      49.144  10.688  15.343  0.00  0.00    +0.000 OA
ATOM     21  C   UNL     1      50.359   9.829  13.498  0.00  0.00    +0.000 A 
ATOM     22  H   UNL     1      50.715   9.387  16.734  0.00  0.00    +0.000 HD
ENDBRANCH  11  12
ENDBRANCH   8  11
ENDBRANCH   7   8
ENDBRANCH   1   7
BRANCH   4  23
ATOM     23  C   UNL     1      46.023   4.318  13.055  0.00  0.00    +0.000 C 
BRANCH  23  24
ATOM     24  C   UNL     1      46.945   3.714  14.078  0.00  0.00    +0.000 C 
ATOM     25  C   UNL     1      46.961   3.949  15.401  0.00  0.00    +0.000 C 
BRANCH  25  26
ATOM     26  C   UNL     1      48.024   3.336  16.226  0.00  0.00    +0.000 C 
ATOM     27  O   UNL     1      48.648   2.371  15.794  0.00  0.00    +0.000 OA
ATOM     28  N   UNL     1      48.274   3.920  17.449  0.00  0.00    +0.000 N 
ATOM     29  C   UNL     1      47.496   4.988  18.084  0.00  0.00    +0.000 C 
ATOM     30  C   UNL     1      48.400   6.192  18.411  0.00  0.00    +0.000 C 
ATOM     31  N   UNL     1      49.593   5.825  19.201  0.00  0.00    +0.000 NA
ATOM     32  C   UNL     1      50.334   4.745  18.510  0.00  0.00    +0.000 C 
ATOM     33  C   UNL     1      49.460   3.517  18.202  0.00  0.00    +0.000 C 
ATOM     34  H   UNL     1      49.283   5.466  20.103  0.00  0.00    +0.000 HD
ENDBRANCH  25  26
ENDBRANCH  23  24
ENDBRANCH   4  23
TORSDOF 7
ENDMDL
