MODEL 1
REMARK VINA RESULT:    -7.471      0.000      0.000
REMARK INTER + INTRA:         -12.354
REMARK INTER:                 -11.402
REMARK INTRA:                  -0.952
REMARK UNBOUND:                -0.952
REMARK  Name = 
REMARK  9 active torsions:
REMARK  status: ('A' for Active; 'I' for Inactive)
REMARK    1  A    between atoms: C_2  and  C_3
REMARK    2  A    between atoms: C_3  and  N_4
REMARK    3  A    between atoms: C_3  and  C_12
REMARK    4  A    between atoms: N_4  and  C_5
REMARK    5  A    between atoms: C_5  and  C_6
REMARK    6  A    between atoms: C_15  and  C_16
REMARK    7  A    between atoms: C_16  and  N_17
REMARK    8  A    between atoms: N_17  and  C_18
REMARK    9  A    between atoms: C_18  and  C_19
REMARK                            x       y       z     vdW  Elec       q    Type
REMARK                         _______ _______ _______ _____ _____    ______ ____
ROOT
ATOM      1  C   UNL     1      46.954   5.949  12.756  0.00  0.00    +0.000 A 
ATOM      2  C   UNL     1      46.778   6.490  11.470  0.00  0.00    +0.000 A 
ATOM      3  C   UNL     1      45.711   6.084  10.665  0.00  0.00    +0.000 A 
ATOM      4  C   UNL     1      44.767   5.161  11.136  0.00  0.00    +0.000 A 
ATOM      5  C   UNL     1      44.916   4.646  12.427  0.00  0.00    +0.000 A 
ATOM      6  C   UNL     1      46.003   5.020  13.220  0.00  0.00    +0.000 A 
ENDROOT
BRANCH   1   7
ATOM      7  C   UNL     1      48.204   6.301  13.577  0.00  0.00    +0.000 C 
BRANCH   7   9
ATOM      8  N   UNL     1      49.709   8.164  12.164  0.00  0.00    +0.000 NA
ATOM      9  C   UNL     1      49.027   7.319  12.805  0.00  0.00    +0.000 C 
ENDBRANCH   7   9
BRANCH   7  10
ATOM     10  N   UNL     1      47.850   6.816  14.925  0.00  0.00    +0.000 NA
ATOM     11  H   UNL     1      46.928   6.448  15.177  0.00  0.00    +0.000 HD
BRANCH  10  12
ATOM     12  C   UNL     1      48.789   6.387  15.968  0.00  0.00    +0.000 C 
BRANCH  12  13
ATOM     13  C   UNL     1      48.460   5.032  16.549  0.00  0.00    +0.000 A 
ATOM     14  C   UNL     1      47.145   4.588  16.625  0.00  0.00    +0.000 A 
ATOM     15  N   UNL     1      46.803   3.412  17.202  0.00  0.00    +0.000 NA
ATOM     16  C   UNL     1      47.832   2.686  17.691  0.00  0.00    +0.000 A 
ATOM     17  C   UNL     1      49.148   3.112  17.607  0.00  0.00    +0.000 A 
ATOM     18  N   UNL     1      49.490   4.285  17.029  0.00  0.00    +0.000 NA
ENDBRANCH  12  13
ENDBRANCH  10  12
ENDBRANCH   7  10
ENDBRANCH   1   7
BRANCH   4  19
ATOM     19  C   UNL     1      43.610   4.729  10.271  0.00  0.00    +0.000 C 
BRANCH  19  20
ATOM     20  N   UNL     1      44.088   4.128   9.026  0.00  0.00    +0.000 NA
ATOM     21  H   UNL     1      44.826   4.720   8.643  0.00  0.00    +0.000 HD
BRANCH  20  22
ATOM     22  C   UNL     1      44.609   2.784   9.258  0.00  0.00    +0.000 C 
BRANCH  22  23
ATOM     23  C   UNL     1      45.741   2.482   8.331  0.00  0.00    +0.000 A 
ATOM     24  C   UNL     1      46.191   1.198   8.098  0.00  0.00    +0.000 A 
ATOM     25  N   UNL     1      47.212   0.894   7.274  0.00  0.00    +0.000 NA
ATOM     26  C   UNL     1      47.791   1.935   6.658  0.00  0.00    +0.000 A 
ATOM     27  N   UNL     1      47.440   3.223   6.786  0.00  0.00    +0.000 NA
ATOM     28  C   UNL     1      46.414   3.466   7.628  0.00  0.00    +0.000 A 
ENDBRANCH  22  23
ENDBRANCH  20  22
ENDBRANCH  19  20
ENDBRANCH   4  19
TORSDOF 9
ENDMDL
MODEL 2
REMARK VINA RESULT:    -7.209      1.238      8.204
REMARK INTER + INTRA:         -11.954
REMARK INTER:                 -11.343
REMARK INTRA:                  -0.611
REMARK UNBOUND:                -0.952
REMARK  Name = 
REMARK  9 active torsions:
REMARK  status: ('A' for Active; 'I' for Inactive)
REMARK    1  A    between atoms: C_2  and  C_3
REMARK    2  A    between atoms: C_3  and  N_4
REMARK    3  A    between atoms: C_3  and  C_12
REMARK    4  A    between atoms: N_4  and  C_5
REMARK    5  A    between atoms: C_5  and  C_6
REMARK    6  A    between atoms: C_15  and  C_16
REMARK    7  A    between atoms: C_16  and  N_17
REMARK    8  A    between atoms: N_17  and  C_18
REMARK    9  A    between atoms: C_18  and  C_19
REMARK                            x       y       z     vdW  Elec       q    Type
REMARK                         _______ _______ _______ _____ _____    ______ ____
ROOT
ATOM      1  C   UNL     1      45.740   5.363  11.834  0.00  0.00    +0.000 A 
ATOM      2  C   UNL     1      46.007   4.798  13.094  0.00  0.00    +0.000 A 
ATOM      3  C   UNL     1      47.033   5.301  13.899  0.00  0.00    +0.000 A 
ATOM      4  C   UNL     1      47.790   6.406  13.488  0.00  0.00    +0.000 A 
ATOM      5  C   UNL     1      47.506   6.995  12.252  0.00  0.00    +0.000 A 
ATOM      6  C   UNL     1      46.508   6.471  11.428  0.00  0.00    +0.000 A 
ENDROOT
BRANCH   1   7
ATOM      7  C   UNL     1      44.703   4.717  10.903  0.00  0.00    +0.000 C 
BRANCH   7   9
ATOM      8  N   UNL     1      42.166   5.570  11.657  0.00  0.00    +0.000 NA
ATOM      9  C   UNL     1      43.316   5.183  11.315  0.00  0.00    +0.000 C 
ENDBRANCH   7   9
BRANCH   7  10
ATOM     10  N   UNL     1      44.969   5.037   9.477  0.00  0.00    +0.000 NA
ATOM     11  H   UNL     1      45.983   5.090   9.344  0.00  0.00    +0.000 HD
BRANCH  10  12
ATOM     12  C   UNL     1      44.462   4.014   8.555  0.00  0.00    +0.000 C 
BRANCH  12  13
ATOM     13  C   UNL     1      45.543   3.110   8.010  0.00  0.00    +0.000 A 
ATOM     14  C   UNL     1      45.646   1.788   8.427  0.00  0.00    +0.000 A 
ATOM     15  N   UNL     1      46.641   0.967   8.017  0.00  0.00    +0.000 NA
ATOM     16  C   UNL     1      47.529   1.517   7.159  0.00  0.00    +0.000 A 
ATOM     17  C   UNL     1      47.428   2.830   6.726  0.00  0.00    +0.000 A 
ATOM     18  N   UNL     1      46.433   3.649   7.134  0.00  0.00    +0.000 NA
ENDBRANCH  12  13
ENDBRANCH  10  12
ENDBRANCH   7  10
ENDBRANCH   1   7
BRANCH   4  19
ATOM     19  C   UNL     1      48.891   6.955  14.359  0.00  0.00    +0.000 C 
BRANCH  19  20
ATOM     20  N   UNL     1      48.442   7.085  15.745  0.00  0.00    +0.000 NA
ATOM     21  H   UNL     1      47.497   6.705  15.816  0.00  0.00    +0.000 HD
BRANCH  20  22
ATOM     22  C   UNL     1      49.329   6.367  16.654  0.00  0.00    +0.000 C 
BRANCH  22  23
ATOM     23  C   UNL     1      48.745   5.047  17.040  0.00  0.00    +0.000 A 
ATOM     24  C   UNL     1      49.520   3.985  17.461  0.00  0.00    +0.000 A 
ATOM     25  N   UNL     1      49.025   2.781  17.810  0.00  0.00    +0.000 NA
ATOM     26  C   UNL     1      47.692   2.658  17.735  0.00  0.00    +0.000 A 
ATOM     27  N   UNL     1      46.830   3.616  17.359  0.00  0.00    +0.000 NA
ATOM     28  C   UNL     1      47.385   4.797  17.018  0.00  0.00    +0.000 A 
ENDBRANCH  22  23
ENDBRANCH  20  22
ENDBRANCH  19  20
ENDBRANCH   4  19
TORSDOF 9
ENDMDL
MODEL 3
REMARK VINA RESULT:    -6.759      1.441      2.443
REMARK INTER + INTRA:         -11.266
REMARK INTER:                 -10.509
REMARK INTRA:                  -0.758
REMARK UNBOUND:                -0.952
REMARK  Name = 
REMARK  9 active torsions:
REMARK  status: ('A' for Active; 'I' for Inactive)
REMARK    1  A    between atoms: C_2  and  C_3
REMARK    2  A    between atoms: C_3  and  N_4
REMARK    3  A    between atoms: C_3  and  C_12
REMARK    4  A    between atoms: N_4  and  C_5
REMARK    5  A    between atoms: C_5  and  C_6
REMARK    6  A    between atoms: C_15  and  C_16
REMARK    7  A    between atoms: C_16  and  N_17
REMARK    8  A    between atoms: N_17  and  C_18
REMARK    9  A    between atoms: C_18  and  C_19
REMARK                            x       y       z     vdW  Elec       q    Type
REMARK                         _______ _______ _______ _____ _____    ______ ____
ROOT
ATOM      1  C   UNL     1      47.674   5.753  14.288  0.00  0.00    +0.000 A 
ATOM      2  C   UNL     1      46.764   4.723  13.991  0.00  0.00    +0.000 A 
ATOM      3  C   UNL     1      46.062   4.718  12.784  0.00  0.00    +0.000 A 
ATOM      4  C   UNL     1      46.279   5.715  11.824  0.00  0.00    +0.000 A 
ATOM      5  C   UNL     1      47.209   6.723  12.098  0.00  0.00    +0.000 A 
ATOM      6  C   UNL     1      47.884   6.752  13.320  0.00  0.00    +0.000 A 
ENDROOT
BRANCH   1   7
ATOM      7  C   UNL     1      48.338   5.820  15.673  0.00  0.00    +0.000 C 
BRANCH   7   9
ATOM      8  N   UNL     1      49.167   8.432  16.144  0.00  0.00    +0.000 NA
ATOM      9  C   UNL     1      48.791   7.248  15.930  0.00  0.00    +0.000 C 
ENDBRANCH   7   9
BRANCH   7  10
ATOM     10  N   UNL     1      47.422   5.352  16.745  0.00  0.00    +0.000 NA
ATOM     11  H   UNL     1      46.820   4.621  16.356  0.00  0.00    +0.000 HD
BRANCH  10  12
ATOM     12  C   UNL     1      48.130   4.769  17.890  0.00  0.00    +0.000 C 
BRANCH  12  13
ATOM     13  C   UNL     1      49.130   3.707  17.499  0.00  0.00    +0.000 A 
ATOM     14  C   UNL     1      48.751   2.626  16.712  0.00  0.00    +0.000 A 
ATOM     15  N   UNL     1      49.598   1.617  16.397  0.00  0.00    +0.000 NA
ATOM     16  C   UNL     1      50.850   1.738  16.892  0.00  0.00    +0.000 A 
ATOM     17  C   UNL     1      51.243   2.818  17.665  0.00  0.00    +0.000 A 
ATOM     18  N   UNL     1      50.398   3.826  17.978  0.00  0.00    +0.000 NA
ENDBRANCH  12  13
ENDBRANCH  10  12
ENDBRANCH   7  10
ENDBRANCH   1   7
BRANCH   4  19
ATOM     19  C   UNL     1      45.528   5.707  10.516  0.00  0.00    +0.000 C 
BRANCH  19  20
ATOM     20  N   UNL     1      44.605   4.573  10.455  0.00  0.00    +0.000 NA
ATOM     21  H   UNL     1      43.763   4.813  10.981  0.00  0.00    +0.000 HD
BRANCH  20  22
ATOM     22  C   UNL     1      44.249   4.260   9.075  0.00  0.00    +0.000 C 
BRANCH  22  23
ATOM     23  C   UNL     1      45.225   3.300   8.476  0.00  0.00    +0.000 A 
ATOM     24  C   UNL     1      46.121   3.667   7.492  0.00  0.00    +0.000 A 
ATOM     25  N   UNL     1      47.008   2.825   6.927  0.00  0.00    +0.000 NA
ATOM     26  C   UNL     1      46.987   1.565   7.388  0.00  0.00    +0.000 A 
ATOM     27  N   UNL     1      46.180   1.089   8.348  0.00  0.00    +0.000 NA
ATOM     28  C   UNL     1      45.311   1.977   8.872  0.00  0.00    +0.000 A 
ENDBRANCH  22  23
ENDBRANCH  20  22
ENDBRANCH  19  20
ENDBRANCH   4  19
TORSDOF 9
ENDMDL
MODEL 4
REMARK VINA RESULT:    -6.707      1.038      1.185
REMARK INTER + INTRA:         -11.188
REMARK INTER:                 -10.308
REMARK INTRA:                  -0.880
REMARK UNBOUND:                -0.952
REMARK  Name = 
REMARK  9 active torsions:
REMARK  status: ('A' for Active; 'I' for Inactive)
REMARK    1  A    between atoms: C_2  and  C_3
REMARK    2  A    between atoms: C_3  and  N_4
REMARK    3  A    between atoms: C_3  and  C_12
REMARK    4  A    between atoms: N_4  and  C_5
REMARK    5  A    between atoms: C_5  and  C_6
REMARK    6  A    between atoms: C_15  and  C_16
REMARK    7  A    between atoms: C_16  and  N_17
REMARK    8  A    between atoms: N_17  and  C_18
REMARK    9  A    between atoms: C_18  and  C_19
REMARK                            x       y       z     vdW  Elec       q    Type
REMARK                         _______ _______ _______ _____ _____    ______ ____
ROOT
ATOM      1  C   UNL     1      46.930   5.917  13.002  0.00  0.00    +0.000 A 
ATOM      2  C   UNL     1      46.742   6.489  11.732  0.00  0.00    +0.000 A 
ATOM      3  C   UNL     1      45.646   6.130  10.942  0.00  0.00    +0.000 A 
ATOM      4  C   UNL     1      44.687   5.224  11.416  0.00  0.00    +0.000 A 
ATOM      5  C   UNL     1      44.849   4.678  12.692  0.00  0.00    +0.000 A 
ATOM      6  C   UNL     1      45.964   5.005  13.468  0.00  0.00    +0.000 A 
ENDROOT
BRANCH   1   7
ATOM      7  C   UNL     1      48.207   6.216  13.802  0.00  0.00    +0.000 C 
BRANCH   7   9
ATOM      8  N   UNL     1      49.799   7.959  12.332  0.00  0.00    +0.000 NA
ATOM      9  C   UNL     1      49.077   7.169  12.998  0.00  0.00    +0.000 C 
ENDBRANCH   7   9
BRANCH   7  10
ATOM     10  N   UNL     1      47.897   6.781  15.141  0.00  0.00    +0.000 NA
ATOM     11  H   UNL     1      47.207   6.175  15.593  0.00  0.00    +0.000 HD
BRANCH  10  12
ATOM     12  C   UNL     1      49.068   6.841  16.023  0.00  0.00    +0.000 C 
BRANCH  12  13
ATOM     13  C   UNL     1      48.951   5.947  17.235  0.00  0.00    +0.000 A 
ATOM     14  C   UNL     1      48.978   4.564  17.107  0.00  0.00    +0.000 A 
ATOM     15  N   UNL     1      48.805   3.728  18.159  0.00  0.00    +0.000 NA
ATOM     16  C   UNL     1      48.616   4.332  19.353  0.00  0.00    +0.000 A 
ATOM     17  C   UNL     1      48.602   5.711  19.494  0.00  0.00    +0.000 A 
ATOM     18  N   UNL     1      48.776   6.545  18.445  0.00  0.00    +0.000 NA
ENDBRANCH  12  13
ENDBRANCH  10  12
ENDBRANCH   7  10
ENDBRANCH   1   7
BRANCH   4  19
ATOM     19  C   UNL     1      43.500   4.842  10.568  0.00  0.00    +0.000 C 
BRANCH  19  20
ATOM     20  N   UNL     1      43.933   4.335   9.266  0.00  0.00    +0.000 NA
ATOM     21  H   UNL     1      44.704   4.915   8.933  0.00  0.00    +0.000 HD
BRANCH  20  22
ATOM     22  C   UNL     1      44.370   2.946   9.362  0.00  0.00    +0.000 C 
BRANCH  22  23
ATOM     23  C   UNL     1      45.525   2.684   8.451  0.00  0.00    +0.000 A 
ATOM     24  C   UNL     1      46.065   1.426   8.277  0.00  0.00    +0.000 A 
ATOM     25  N   UNL     1      47.109   1.158   7.468  0.00  0.00    +0.000 NA
ATOM     26  C   UNL     1      47.616   2.209   6.807  0.00  0.00    +0.000 A 
ATOM     27  N   UNL     1      47.173   3.474   6.877  0.00  0.00    +0.000 NA
ATOM     28  C   UNL     1      46.129   3.681   7.705  0.00  0.00    +0.000 A 
ENDBRANCH  22  23
ENDBRANCH  20  22
ENDBRANCH  19  20
ENDBRANCH   4  19
TORSDOF 9
ENDMDL
MODEL 5
REMARK VINA RESULT:    -6.668      1.812      2.343
REMARK INTER + INTRA:         -11.128
REMARK INTER:                 -10.250
REMARK INTRA:                  -0.878
REMARK UNBOUND:                -0.952
REMARK  Name = 
REMARK  9 active torsions:
REMARK  status: ('A' for Active; 'I' for Inactive)
REMARK    1  A    between atoms: C_2  and  C_3
REMARK    2  A    between atoms: C_3  and  N_4
REMARK    3  A    between atoms: C_3  and  C_12
REMARK    4  A    between atoms: N_4  and  C_5
REMARK    5  A    between atoms: C_5  and  C_6
REMARK    6  A    between atoms: C_15  and  C_16
REMARK    7  A    between atoms: C_16  and  N_17
REMARK    8  A    between atoms: N_17  and  C_18
REMARK    9  A    between atoms: C_18  and  C_19
REMARK                            x       y       z     vdW  Elec       q    Type
REMARK                         _______ _______ _______ _____ _____    ______ ____
ROOT
ATOM      1  C   UNL     1      46.493   6.425  12.298  0.00  0.00    +0.000 A 
ATOM      2  C   UNL     1      46.316   5.264  13.071  0.00  0.00    +0.000 A 
ATOM      3  C   UNL     1      45.491   4.228  12.624  0.00  0.00    +0.000 A 
ATOM      4  C   UNL     1      44.855   4.306  11.377  0.00  0.00    +0.000 A 
ATOM      5  C   UNL     1      45.055   5.443  10.589  0.00  0.00    +0.000 A 
ATOM      6  C   UNL     1      45.848   6.496  11.049  0.00  0.00    +0.000 A 
ENDROOT
BRANCH   1   7
ATOM      7  C   UNL     1      47.292   7.611  12.861  0.00  0.00    +0.000 C 
BRANCH   7   9
ATOM      8  N   UNL     1      46.115   9.977  11.995  0.00  0.00    +0.000 NA
ATOM      9  C   UNL     1      46.649   8.904  12.388  0.00  0.00    +0.000 C 
ENDBRANCH   7   9
BRANCH   7  10
ATOM     10  N   UNL     1      47.371   7.568  14.343  0.00  0.00    +0.000 NA
ATOM     11  H   UNL     1      47.126   6.622  14.651  0.00  0.00    +0.000 HD
BRANCH  10  12
ATOM     12  C   UNL     1      48.715   7.856  14.856  0.00  0.00    +0.000 C 
BRANCH  12  13
ATOM     13  C   UNL     1      49.049   7.101  16.120  0.00  0.00    +0.000 A 
ATOM     14  C   UNL     1      48.497   7.472  17.340  0.00  0.00    +0.000 A 
ATOM     15  N   UNL     1      48.824   6.866  18.506  0.00  0.00    +0.000 NA
ATOM     16  C   UNL     1      49.721   5.860  18.403  0.00  0.00    +0.000 A 
ATOM     17  C   UNL     1      50.267   5.472  17.191  0.00  0.00    +0.000 A 
ATOM     18  N   UNL     1      49.938   6.076  16.026  0.00  0.00    +0.000 NA
ENDBRANCH  12  13
ENDBRANCH  10  12
ENDBRANCH   7  10
ENDBRANCH   1   7
BRANCH   4  19
ATOM     19  C   UNL     1      43.971   3.186  10.890  0.00  0.00    +0.000 C 
BRANCH  19  20
ATOM     20  N   UNL     1      44.063   3.045   9.437  0.00  0.00    +0.000 NA
ATOM     21  H   UNL     1      44.605   3.828   9.070  0.00  0.00    +0.000 HD
BRANCH  20  22
ATOM     22  C   UNL     1      44.706   1.788   9.070  0.00  0.00    +0.000 C 
BRANCH  22  23
ATOM     23  C   UNL     1      45.892   2.029   8.194  0.00  0.00    +0.000 A 
ATOM     24  C   UNL     1      46.247   3.287   7.751  0.00  0.00    +0.000 A 
ATOM     25  N   UNL     1      47.305   3.537   6.956  0.00  0.00    +0.000 NA
ATOM     26  C   UNL     1      48.033   2.466   6.605  0.00  0.00    +0.000 A 
ATOM     27  N   UNL     1      47.804   1.198   6.980  0.00  0.00    +0.000 NA
ATOM     28  C   UNL     1      46.728   1.011   7.772  0.00  0.00    +0.000 A 
ENDBRANCH  22  23
ENDBRANCH  20  22
ENDBRANCH  19  20
ENDBRANCH   4  19
TORSDOF 9
ENDMDL
MODEL 6
REMARK VINA RESULT:    -6.533      1.830      8.870
REMARK INTER + INTRA:         -10.922
REMARK INTER:                 -10.193
REMARK INTRA:                  -0.729
REMARK UNBOUND:                -0.952
REMARK  Name = 
REMARK  9 active torsions:
REMARK  status: ('A' for Active; 'I' for Inactive)
REMARK    1  A    between atoms: C_2  and  C_3
REMARK    2  A    between atoms: C_3  and  N_4
REMARK    3  A    between atoms: C_3  and  C_12
REMARK    4  A    between atoms: N_4  and  C_5
REMARK    5  A    between atoms: C_5  and  C_6
REMARK    6  A    between atoms: C_15  and  C_16
REMARK    7  A    between atoms: C_16  and  N_17
REMARK    8  A    between atoms: N_17  and  C_18
REMARK    9  A    between atoms: C_18  and  C_19
REMARK                            x       y       z     vdW  Elec       q    Type
REMARK                         _______ _______ _______ _____ _____    ______ ____
ROOT
ATOM      1  C   UNL     1      45.790   5.440  11.881  0.00  0.00    +0.000 A 
ATOM      2  C   UNL     1      46.175   4.832  13.088  0.00  0.00    +0.000 A 
ATOM      3  C   UNL     1      47.195   5.380  13.870  0.00  0.00    +0.000 A 
ATOM      4  C   UNL     1      47.828   6.571  13.490  0.00  0.00    +0.000 A 
ATOM      5  C   UNL     1      47.425   7.201  12.309  0.00  0.00    +0.000 A 
ATOM      6  C   UNL     1      46.433   6.635  11.506  0.00  0.00    +0.000 A 
ENDROOT
BRANCH   1   7
ATOM      7  C   UNL     1      44.763   4.756  10.965  0.00  0.00    +0.000 C 
BRANCH   7   9
ATOM      8  N   UNL     1      42.210   5.545  11.733  0.00  0.00    +0.000 NA
ATOM      9  C   UNL     1      43.367   5.187  11.384  0.00  0.00    +0.000 C 
ENDBRANCH   7   9
BRANCH   7  10
ATOM     10  N   UNL     1      45.008   5.069   9.534  0.00  0.00    +0.000 NA
ATOM     11  H   UNL     1      46.018   5.155   9.392  0.00  0.00    +0.000 HD
BRANCH  10  12
ATOM     12  C   UNL     1      44.529   4.020   8.626  0.00  0.00    +0.000 C 
BRANCH  12  13
ATOM     13  C   UNL     1      45.633   3.130   8.104  0.00  0.00    +0.000 A 
ATOM     14  C   UNL     1      46.600   3.627   7.239  0.00  0.00    +0.000 A 
ATOM     15  N   UNL     1      47.564   2.847   6.694  0.00  0.00    +0.000 NA
ATOM     16  C   UNL     1      47.530   1.546   7.059  0.00  0.00    +0.000 A 
ATOM     17  C   UNL     1      46.579   1.044   7.933  0.00  0.00    +0.000 A 
ATOM     18  N   UNL     1      45.619   1.823   8.479  0.00  0.00    +0.000 NA
ENDBRANCH  12  13
ENDBRANCH  10  12
ENDBRANCH   7  10
ENDBRANCH   1   7
BRANCH   4  19
ATOM     19  C   UNL     1      48.923   7.168  14.337  0.00  0.00    +0.000 C 
BRANCH  19  20
ATOM     20  N   UNL     1      49.396   6.204  15.331  0.00  0.00    +0.000 NA
ATOM     21  H   UNL     1      50.126   5.631  14.904  0.00  0.00    +0.000 HD
BRANCH  20  22
ATOM     22  C   UNL     1      49.928   6.881  16.508  0.00  0.00    +0.000 C 
BRANCH  22  23
ATOM     23  C   UNL     1      49.195   6.465  17.742  0.00  0.00    +0.000 A 
ATOM     24  C   UNL     1      48.159   7.204  18.277  0.00  0.00    +0.000 A 
ATOM     25  N   UNL     1      47.483   6.859  19.390  0.00  0.00    +0.000 NA
ATOM     26  C   UNL     1      47.872   5.716  19.975  0.00  0.00    +0.000 A 
ATOM     27  N   UNL     1      48.850   4.903  19.548  0.00  0.00    +0.000 NA
ATOM     28  C   UNL     1      49.493   5.303  18.431  0.00  0.00    +0.000 A 
ENDBRANCH  22  23
ENDBRANCH  20  22
ENDBRANCH  19  20
ENDBRANCH   4  19
TORSDOF 9
ENDMDL
MODEL 7
REMARK VINA RESULT:    -6.484      2.152      4.364
REMARK INTER + INTRA:         -10.847
REMARK INTER:                  -9.938
REMARK INTRA:                  -0.910
REMARK UNBOUND:                -0.952
REMARK  Name = 
REMARK  9 active torsions:
REMARK  status: ('A' for Active; 'I' for Inactive)
REMARK    1  A    between atoms: C_2  and  C_3
REMARK    2  A    between atoms: C_3  and  N_4
REMARK    3  A    between atoms: C_3  and  C_12
REMARK    4  A    between atoms: N_4  and  C_5
REMARK    5  A    between atoms: C_5  and  C_6
REMARK    6  A    between atoms: C_15  and  C_16
REMARK    7  A    between atoms: C_16  and  N_17
REMARK    8  A    between atoms: N_17  and  C_18
REMARK    9  A    between atoms: C_18  and  C_19
REMARK                            x       y       z     vdW  Elec       q    Type
REMARK                         _______ _______ _______ _____ _____    ______ ____
ROOT
ATOM      1  C   UNL     1      46.640   6.526  12.670  0.00  0.00    +0.000 A 
ATOM      2  C   UNL     1      46.254   6.635  11.323  0.00  0.00    +0.000 A 
ATOM      3  C   UNL     1      45.457   5.652  10.727  0.00  0.00    +0.000 A 
ATOM      4  C   UNL     1      44.992   4.560  11.471  0.00  0.00    +0.000 A 
ATOM      5  C   UNL     1      45.344   4.464  12.821  0.00  0.00    +0.000 A 
ATOM      6  C   UNL     1      46.171   5.423  13.408  0.00  0.00    +0.000 A 
ENDROOT
BRANCH   1   7
ATOM      7  C   UNL     1      47.625   7.540  13.274  0.00  0.00    +0.000 C 
BRANCH   7   9
ATOM      8  N   UNL     1      49.149   6.261  15.216  0.00  0.00    +0.000 NA
ATOM      9  C   UNL     1      48.458   6.841  14.336  0.00  0.00    +0.000 C 
ENDBRANCH   7   9
BRANCH   7  10
ATOM     10  N   UNL     1      48.493   8.150  12.234  0.00  0.00    +0.000 NA
ATOM     11  H   UNL     1      47.941   8.844  11.722  0.00  0.00    +0.000 HD
BRANCH  10  12
ATOM     12  C   UNL     1      49.656   8.847  12.794  0.00  0.00    +0.000 C 
BRANCH  12  13
ATOM     13  C   UNL     1      50.966   8.420  12.175  0.00  0.00    +0.000 A 
ATOM     14  C   UNL     1      52.176   8.702  12.798  0.00  0.00    +0.000 A 
ATOM     15  N   UNL     1      53.373   8.399  12.243  0.00  0.00    +0.000 NA
ATOM     16  C   UNL     1      53.314   7.789  11.039  0.00  0.00    +0.000 A 
ATOM     17  C   UNL     1      52.113   7.490  10.415  0.00  0.00    +0.000 A 
ATOM     18  N   UNL     1      50.918   7.790  10.970  0.00  0.00    +0.000 NA
ENDBRANCH  12  13
ENDBRANCH  10  12
ENDBRANCH   7  10
ENDBRANCH   1   7
BRANCH   4  19
ATOM     19  C   UNL     1      44.126   3.503  10.832  0.00  0.00    +0.000 C 
BRANCH  19  20
ATOM     20  N   UNL     1      44.932   2.361  10.401  0.00  0.00    +0.000 NA
ATOM     21  H   UNL     1      44.724   1.569  11.011  0.00  0.00    +0.000 HD
BRANCH  20  22
ATOM     22  C   UNL     1      44.641   2.004   9.017  0.00  0.00    +0.000 C 
BRANCH  22  23
ATOM     23  C   UNL     1      45.854   2.159   8.157  0.00  0.00    +0.000 A 
ATOM     24  C   UNL     1      46.256   3.378   7.650  0.00  0.00    +0.000 A 
ATOM     25  N   UNL     1      47.340   3.549   6.868  0.00  0.00    +0.000 NA
ATOM     26  C   UNL     1      48.044   2.439   6.600  0.00  0.00    +0.000 A 
ATOM     27  N   UNL     1      47.768   1.203   7.044  0.00  0.00    +0.000 NA
ATOM     28  C   UNL     1      46.669   1.094   7.818  0.00  0.00    +0.000 A 
ENDBRANCH  22  23
ENDBRANCH  20  22
ENDBRANCH  19  20
ENDBRANCH   4  19
TORSDOF 9
ENDMDL
MODEL 8
REMARK VINA RESULT:    -6.255      2.202      3.287
REMARK INTER + INTRA:         -10.498
REMARK INTER:                  -9.743
REMARK INTRA:                  -0.755
REMARK UNBOUND:                -0.952
REMARK  Name = 
REMARK  9 active torsions:
REMARK  status: ('A' for Active; 'I' for Inactive)
REMARK    1  A    between atoms: C_2  and  C_3
REMARK    2  A    between atoms: C_3  and  N_4
REMARK    3  A    between atoms: C_3  and  C_12
REMARK    4  A    between atoms: N_4  and  C_5
REMARK    5  A    between atoms: C_5  and  C_6
REMARK    6  A    between atoms: C_15  and  C_16
REMARK    7  A    between atoms: C_16  and  N_17
REMARK    8  A    between atoms: N_17  and  C_18
REMARK    9  A    between atoms: C_18  and  C_19
REMARK                            x       y       z     vdW  Elec       q    Type
REMARK                         _______ _______ _______ _____ _____    ______ ____
ROOT
ATOM      1  C   UNL     1      47.154   4.775  14.484  0.00  0.00    +0.000 A 
ATOM      2  C   UNL     1      46.428   3.739  13.871  0.00  0.00    +0.000 A 
ATOM      3  C   UNL     1      45.788   3.944  12.646  0.00  0.00    +0.000 A 
ATOM      4  C   UNL     1      45.889   5.174  11.982  0.00  0.00    +0.000 A 
ATOM      5  C   UNL     1      46.638   6.198  12.569  0.00  0.00    +0.000 A 
ATOM      6  C   UNL     1      47.247   6.008  13.812  0.00  0.00    +0.000 A 
ENDROOT
BRANCH   1   7
ATOM      7  C   UNL     1      47.738   4.578  15.892  0.00  0.00    +0.000 C 
BRANCH   7   9
ATOM      8  N   UNL     1      48.778   2.006  16.080  0.00  0.00    +0.000 NA
ATOM      9  C   UNL     1      48.306   3.173  15.995  0.00  0.00    +0.000 C 
ENDBRANCH   7   9
BRANCH   7  10
ATOM     10  N   UNL     1      48.776   5.595  16.203  0.00  0.00    +0.000 NA
ATOM     11  H   UNL     1      48.310   6.494  16.353  0.00  0.00    +0.000 HD
BRANCH  10  12
ATOM     12  C   UNL     1      49.533   5.288  17.422  0.00  0.00    +0.000 C 
BRANCH  12  13
ATOM     13  C   UNL     1      49.210   6.210  18.575  0.00  0.00    +0.000 A 
ATOM     14  C   UNL     1      50.075   6.330  19.656  0.00  0.00    +0.000 A 
ATOM     15  N   UNL     1      49.791   7.090  20.740  0.00  0.00    +0.000 NA
ATOM     16  C   UNL     1      48.607   7.741  20.695  0.00  0.00    +0.000 A 
ATOM     17  C   UNL     1      47.744   7.640  19.616  0.00  0.00    +0.000 A 
ATOM     18  N   UNL     1      48.029   6.883  18.533  0.00  0.00    +0.000 NA
ENDBRANCH  12  13
ENDBRANCH  10  12
ENDBRANCH   7  10
ENDBRANCH   1   7
BRANCH   4  19
ATOM     19  C   UNL     1      45.205   5.395  10.656  0.00  0.00    +0.000 C 
BRANCH  19  20
ATOM     20  N   UNL     1      44.592   4.157  10.175  0.00  0.00    +0.000 NA
ATOM     21  H   UNL     1      43.633   4.115  10.520  0.00  0.00    +0.000 HD
BRANCH  20  22
ATOM     22  C   UNL     1      44.591   4.103   8.717  0.00  0.00    +0.000 C 
BRANCH  22  23
ATOM     23  C   UNL     1      45.580   3.099   8.218  0.00  0.00    +0.000 A 
ATOM     24  C   UNL     1      45.517   1.762   8.555  0.00  0.00    +0.000 A 
ATOM     25  N   UNL     1      46.396   0.834   8.127  0.00  0.00    +0.000 NA
ATOM     26  C   UNL     1      47.368   1.284   7.320  0.00  0.00    +0.000 A 
ATOM     27  N   UNL     1      47.528   2.550   6.907  0.00  0.00    +0.000 NA
ATOM     28  C   UNL     1      46.621   3.434   7.371  0.00  0.00    +0.000 A 
ENDBRANCH  22  23
ENDBRANCH  20  22
ENDBRANCH  19  20
ENDBRANCH   4  19
TORSDOF 9
ENDMDL
MODEL 9
REMARK VINA RESULT:    -6.221      2.802      4.171
REMARK INTER + INTRA:         -10.445
REMARK INTER:                  -9.868
REMARK INTRA:                  -0.577
REMARK UNBOUND:                -0.952
REMARK  Name = 
REMARK  9 active torsions:
REMARK  status: ('A' for Active; 'I' for Inactive)
REMARK    1  A    between atoms: C_2  and  C_3
REMARK    2  A    between atoms: C_3  and  N_4
REMARK    3  A    between atoms: C_3  and  C_12
REMARK    4  A    between atoms: N_4  and  C_5
REMARK    5  A    between atoms: C_5  and  C_6
REMARK    6  A    between atoms: C_15  and  C_16
REMARK    7  A    between atoms: C_16  and  N_17
REMARK    8  A    between atoms: N_17  and  C_18
REMARK    9  A    between atoms: C_18  and  C_19
REMARK                            x       y       z     vdW  Elec       q    Type
REMARK                         _______ _______ _______ _____ _____    ______ ____
ROOT
ATOM      1  C   UNL     1      45.671   7.004  12.407  0.00  0.00    +0.000 A 
ATOM      2  C   UNL     1      44.480   6.956  11.661  0.00  0.00    +0.000 A 
ATOM      3  C   UNL     1      43.913   5.731  11.301  0.00  0.00    +0.000 A 
ATOM      4  C   UNL     1      44.495   4.523  11.711  0.00  0.00    +0.000 A 
ATOM      5  C   UNL     1      45.660   4.565  12.483  0.00  0.00    +0.000 A 
ATOM      6  C   UNL     1      46.250   5.787  12.811  0.00  0.00    +0.000 A 
ENDROOT
BRANCH   1   7
ATOM      7  C   UNL     1      46.356   8.353  12.679  0.00  0.00    +0.000 C 
BRANCH   7   9
ATOM      8  N   UNL     1      44.588  10.402  12.043  0.00  0.00    +0.000 NA
ATOM      9  C   UNL     1      45.390   9.473  12.332  0.00  0.00    +0.000 C 
ENDBRANCH   7   9
BRANCH   7  10
ATOM     10  N   UNL     1      46.812   8.462  14.089  0.00  0.00    +0.000 NA
ATOM     11  H   UNL     1      46.235   7.841  14.662  0.00  0.00    +0.000 HD
BRANCH  10  12
ATOM     12  C   UNL     1      48.209   8.052  14.274  0.00  0.00    +0.000 C 
BRANCH  12  13
ATOM     13  C   UNL     1      49.162   8.722  13.313  0.00  0.00    +0.000 A 
ATOM     14  C   UNL     1      49.273  10.107  13.267  0.00  0.00    +0.000 A 
ATOM     15  N   UNL     1      50.063  10.748  12.373  0.00  0.00    +0.000 NA
ATOM     16  C   UNL     1      50.751   9.947  11.530  0.00  0.00    +0.000 A 
ATOM     17  C   UNL     1      50.659   8.565  11.576  0.00  0.00    +0.000 A 
ATOM     18  N   UNL     1      49.872   7.925  12.470  0.00  0.00    +0.000 NA
ENDBRANCH  12  13
ENDBRANCH  10  12
ENDBRANCH   7  10
ENDBRANCH   1   7
BRANCH   4  19
ATOM     19  C   UNL     1      43.879   3.200  11.331  0.00  0.00    +0.000 C 
BRANCH  19  20
ATOM     20  N   UNL     1      44.798   2.418  10.504  0.00  0.00    +0.000 NA
ATOM     21  H   UNL     1      44.735   1.440  10.787  0.00  0.00    +0.000 HD
BRANCH  20  22
ATOM     22  C   UNL     1      44.465   2.542   9.088  0.00  0.00    +0.000 C 
BRANCH  22  23
ATOM     23  C   UNL     1      45.678   2.357   8.235  0.00  0.00    +0.000 A 
ATOM     24  C   UNL     1      46.262   1.123   8.029  0.00  0.00    +0.000 A 
ATOM     25  N   UNL     1      47.358   0.924   7.272  0.00  0.00    +0.000 NA
ATOM     26  C   UNL     1      47.874   2.021   6.697  0.00  0.00    +0.000 A 
ATOM     27  N   UNL     1      47.393   3.269   6.806  0.00  0.00    +0.000 NA
ATOM     28  C   UNL     1      46.297   3.406   7.580  0.00  0.00    +0.000 A 
ENDBRANCH  22  23
ENDBRANCH  20  22
ENDBRANCH  19  20
ENDBRANCH   4  19
TORSDOF 9
ENDMDL
