MODEL 1
REMARK VINA RESULT:    -6.962      0.000      0.000
REMARK INTER + INTRA:         -10.722
REMARK INTER:                  -9.405
REMARK INTRA:                  -1.318
REMARK UNBOUND:                -1.318
REMARK  Name = 
REMARK  6 active torsions:
REMARK  status: ('A' for Active; 'I' for Inactive)
REMARK    1  A    between atoms: C_2  and  C_3
REMARK    2  A    between atoms: C_5  and  C_6
REMARK    3  A    between atoms: C_9  and  O_10
REMARK    4  A    between atoms: O_10  and  C_11
REMARK    5  A    between atoms: C_11  and  C_12
REMARK    6  A    between atoms: C_17  and  C_18
REMARK                            x       y       z     vdW  Elec       q    Type
REMARK                         _______ _______ _______ _____ _____    ______ ____
ROOT
ATOM      1  C   UNL     1      46.636   7.374  12.702  0.00  0.00    +0.000 C 
ATOM      2  C   UNL     1      46.779   8.634  11.839  0.00  0.00    +0.000 C 
ATOM      3  C   UNL     1      46.103   8.720  13.160  0.00  0.00    +0.000 C 
ENDROOT
BRANCH   1   4
ATOM      4  C   UNL     1      45.596   6.328  12.325  0.00  0.00    +0.000 A 
ATOM      5  C   UNL     1      44.428   6.158  13.088  0.00  0.00    +0.000 A 
ATOM      6  C   UNL     1      43.425   5.271  12.690  0.00  0.00    +0.000 A 
ATOM      7  C   UNL     1      43.574   4.536  11.518  0.00  0.00    +0.000 A 
ATOM      8  F   UNL     1      42.582   3.717  11.142  0.00  0.00    +0.000 F 
ATOM      9  C   UNL     1      44.724   4.651  10.736  0.00  0.00    +0.000 A 
ATOM     10  C   UNL     1      45.728   5.540  11.166  0.00  0.00    +0.000 A 
BRANCH   9  11
ATOM     11  C   UNL     1      44.870   3.871   9.442  0.00  0.00    +0.000 C 
ATOM     12  C   UNL     1      45.248   2.404   9.704  0.00  0.00    +0.000 C 
ATOM     13  C   UNL     1      45.598   1.680   8.413  0.00  0.00    +0.000 C 
ATOM     14  O   UNL     1      46.614   2.385   7.701  0.00  0.00    +0.000 OA
ATOM     15  C   UNL     1      46.176   3.677   7.288  0.00  0.00    +0.000 C 
ATOM     16  C   UNL     1      45.879   4.549   8.499  0.00  0.00    +0.000 C 
ENDBRANCH   9  11
ENDBRANCH   1   4
BRANCH   1  17
ATOM     17  O   UNL     1      47.968   6.902  13.002  0.00  0.00    +0.000 OA
BRANCH  17  22
ATOM     18  C   UNL     1      47.933   5.031  16.190  0.00  0.00    +0.000 A 
ATOM     19  C   UNL     1      48.829   5.822  16.921  0.00  0.00    +0.000 A 
ATOM     20  C   UNL     1      49.477   6.896  16.300  0.00  0.00    +0.000 A 
ATOM     21  C   UNL     1      49.213   7.173  14.955  0.00  0.00    +0.000 A 
ATOM     22  C   UNL     1      48.301   6.397  14.229  0.00  0.00    +0.000 A 
ATOM     23  C   UNL     1      47.668   5.323  14.843  0.00  0.00    +0.000 A 
BRANCH  18  25
ATOM     24  N   UNL     1      46.684   3.076  17.347  0.00  0.00    +0.000 NA
ATOM     25  C   UNL     1      47.243   3.950  16.836  0.00  0.00    +0.000 C 
ENDBRANCH  18  25
BRANCH  20  26
ATOM     26  C   UNL     1      50.362   7.737  17.051  0.00  0.00    +0.000 C 
ATOM     27  N   UNL     1      51.083   8.423  17.647  0.00  0.00    +0.000 NA
ENDBRANCH  20  26
ENDBRANCH  17  22
ENDBRANCH   1  17
TORSDOF 6
ENDMDL
MODEL 2
REMARK VINA RESULT:    -6.871      0.924      2.671
REMARK INTER + INTRA:         -10.599
REMARK INTER:                  -9.349
REMARK INTRA:                  -1.250
REMARK UNBOUND:                -1.318
REMARK  Name = 
REMARK  6 active torsions:
REMARK  status: ('A' for Active; 'I' for Inactive)
REMARK    1  A    between atoms: C_2  and  C_3
REMARK    2  A    between atoms: C_5  and  C_6
REMARK    3  A    between atoms: C_9  and  O_10
REMARK    4  A    between atoms: O_10  and  C_11
REMARK    5  A    between atoms: C_11  and  C_12
REMARK    6  A    between atoms: C_17  and  C_18
REMARK                            x       y       z     vdW  Elec       q    Type
REMARK                         _______ _______ _______ _____ _____    ______ ____
ROOT
ATOM      1  C   UNL     1      47.767   7.185  12.535  0.00  0.00    +0.000 C 
ATOM      2  C   UNL     1      48.656   7.770  11.431  0.00  0.00    +0.000 C 
ATOM      3  C   UNL     1      47.955   8.683  12.370  0.00  0.00    +0.000 C 
ENDROOT
BRANCH   1   4
ATOM      4  C   UNL     1      46.396   6.632  12.171  0.00  0.00    +0.000 A 
ATOM      5  C   UNL     1      45.232   7.103  12.802  0.00  0.00    +0.000 A 
ATOM      6  C   UNL     1      43.966   6.672  12.401  0.00  0.00    +0.000 A 
ATOM      7  C   UNL     1      43.841   5.758  11.360  0.00  0.00    +0.000 A 
ATOM      8  F   UNL     1      42.613   5.387  10.974  0.00  0.00    +0.000 F 
ATOM      9  C   UNL     1      44.966   5.242  10.715  0.00  0.00    +0.000 A 
ATOM     10  C   UNL     1      46.232   5.680  11.147  0.00  0.00    +0.000 A 
BRANCH   9  11
ATOM     11  C   UNL     1      44.825   4.269   9.558  0.00  0.00    +0.000 C 
ATOM     12  C   UNL     1      44.870   2.809  10.037  0.00  0.00    +0.000 C 
ATOM     13  C   UNL     1      44.941   1.841   8.866  0.00  0.00    +0.000 C 
ATOM     14  O   UNL     1      46.035   2.167   8.009  0.00  0.00    +0.000 OA
ATOM     15  C   UNL     1      45.879   3.452   7.412  0.00  0.00    +0.000 C 
ATOM     16  C   UNL     1      45.888   4.537   8.478  0.00  0.00    +0.000 C 
ENDBRANCH   9  11
ENDBRANCH   1   4
BRANCH   1  17
ATOM     17  O   UNL     1      48.607   6.365  13.377  0.00  0.00    +0.000 OA
BRANCH  17  22
ATOM     18  C   UNL     1      49.074   7.000  16.988  0.00  0.00    +0.000 A 
ATOM     19  C   UNL     1      48.445   5.857  17.499  0.00  0.00    +0.000 A 
ATOM     20  C   UNL     1      47.813   4.962  16.626  0.00  0.00    +0.000 A 
ATOM     21  C   UNL     1      47.828   5.217  15.251  0.00  0.00    +0.000 A 
ATOM     22  C   UNL     1      48.475   6.349  14.739  0.00  0.00    +0.000 A 
ATOM     23  C   UNL     1      49.090   7.243  15.606  0.00  0.00    +0.000 A 
BRANCH  18  25
ATOM     24  N   UNL     1      50.297   8.632  18.589  0.00  0.00    +0.000 NA
ATOM     25  C   UNL     1      49.750   7.900  17.880  0.00  0.00    +0.000 C 
ENDBRANCH  18  25
BRANCH  20  26
ATOM     26  C   UNL     1      47.204   3.768  17.134  0.00  0.00    +0.000 C 
ATOM     27  N   UNL     1      46.699   2.808  17.544  0.00  0.00    +0.000 NA
ENDBRANCH  20  26
ENDBRANCH  17  22
ENDBRANCH   1  17
TORSDOF 6
ENDMDL
MODEL 3
REMARK VINA RESULT:    -6.647      1.612      3.285
REMARK INTER + INTRA:         -10.297
REMARK INTER:                  -8.826
REMARK INTRA:                  -1.470
REMARK UNBOUND:                -1.318
REMARK  Name = 
REMARK  6 active torsions:
REMARK  status: ('A' for Active; 'I' for Inactive)
REMARK    1  A    between atoms: C_2  and  C_3
REMARK    2  A    between atoms: C_5  and  C_6
REMARK    3  A    between atoms: C_9  and  O_10
REMARK    4  A    between atoms: O_10  and  C_11
REMARK    5  A    between atoms: C_11  and  C_12
REMARK    6  A    between atoms: C_17  and  C_18
REMARK                            x       y       z     vdW  Elec       q    Type
REMARK                         _______ _______ _______ _____ _____    ______ ____
ROOT
ATOM      1  C   UNL     1      48.742   7.594  12.691  0.00  0.00    +0.000 C 
ATOM      2  C   UNL     1      49.784   7.709  11.571  0.00  0.00    +0.000 C 
ATOM      3  C   UNL     1      49.488   8.889  12.425  0.00  0.00    +0.000 C 
ENDROOT
BRANCH   1   4
ATOM      4  C   UNL     1      47.263   7.580  12.333  0.00  0.00    +0.000 A 
ATOM      5  C   UNL     1      46.451   8.705  12.557  0.00  0.00    +0.000 A 
ATOM      6  C   UNL     1      45.119   8.733  12.138  0.00  0.00    +0.000 A 
ATOM      7  C   UNL     1      44.574   7.631  11.486  0.00  0.00    +0.000 A 
ATOM      8  F   UNL     1      43.303   7.697  11.065  0.00  0.00    +0.000 F 
ATOM      9  C   UNL     1      45.330   6.480  11.259  0.00  0.00    +0.000 A 
ATOM     10  C   UNL     1      46.666   6.471  11.704  0.00  0.00    +0.000 A 
BRANCH   9  11
ATOM     11  C   UNL     1      44.741   5.292  10.520  0.00  0.00    +0.000 C 
ATOM     12  C   UNL     1      44.574   4.076  11.445  0.00  0.00    +0.000 C 
ATOM     13  C   UNL     1      44.185   2.831  10.662  0.00  0.00    +0.000 C 
ATOM     14  O   UNL     1      45.115   2.589   9.607  0.00  0.00    +0.000 OA
ATOM     15  C   UNL     1      45.114   3.641   8.645  0.00  0.00    +0.000 C 
ATOM     16  C   UNL     1      45.582   4.941   9.279  0.00  0.00    +0.000 C 
ENDBRANCH   9  11
ENDBRANCH   1   4
BRANCH   1  17
ATOM     17  O   UNL     1      49.208   6.582  13.611  0.00  0.00    +0.000 OA
BRANCH  17  22
ATOM     18  C   UNL     1      49.006   7.254  17.241  0.00  0.00    +0.000 A 
ATOM     19  C   UNL     1      48.326   6.097  17.644  0.00  0.00    +0.000 A 
ATOM     20  C   UNL     1      47.885   5.179  16.684  0.00  0.00    +0.000 A 
ATOM     21  C   UNL     1      48.138   5.424  15.330  0.00  0.00    +0.000 A 
ATOM     22  C   UNL     1      48.835   6.570  14.928  0.00  0.00    +0.000 A 
ATOM     23  C   UNL     1      49.262   7.488  15.881  0.00  0.00    +0.000 A 
BRANCH  18  25
ATOM     24  N   UNL     1      49.885   8.923  19.018  0.00  0.00    +0.000 NA
ATOM     25  C   UNL     1      49.487   8.179  18.228  0.00  0.00    +0.000 C 
ENDBRANCH  18  25
BRANCH  20  26
ATOM     26  C   UNL     1      47.228   3.971  17.088  0.00  0.00    +0.000 C 
ATOM     27  N   UNL     1      46.705   2.991  17.425  0.00  0.00    +0.000 NA
ENDBRANCH  20  26
ENDBRANCH  17  22
ENDBRANCH   1  17
TORSDOF 6
ENDMDL
MODEL 4
REMARK VINA RESULT:    -6.629      3.458      5.196
REMARK INTER + INTRA:         -10.271
REMARK INTER:                  -8.839
REMARK INTRA:                  -1.432
REMARK UNBOUND:                -1.318
REMARK  Name = 
REMARK  6 active torsions:
REMARK  status: ('A' for Active; 'I' for Inactive)
REMARK    1  A    between atoms: C_2  and  C_3
REMARK    2  A    between atoms: C_5  and  C_6
REMARK    3  A    between atoms: C_9  and  O_10
REMARK    4  A    between atoms: O_10  and  C_11
REMARK    5  A    between atoms: C_11  and  C_12
REMARK    6  A    between atoms: C_17  and  C_18
REMARK                            x       y       z     vdW  Elec       q    Type
REMARK                         _______ _______ _______ _____ _____    ______ ____
ROOT
ATOM      1  C   UNL     1      46.893   7.344  12.535  0.00  0.00    +0.000 C 
ATOM      2  C   UNL     1      48.128   6.877  13.314  0.00  0.00    +0.000 C 
ATOM      3  C   UNL     1      48.230   7.114  11.851  0.00  0.00    +0.000 C 
ENDROOT
BRANCH   1   4
ATOM      4  C   UNL     1      45.791   6.343  12.217  0.00  0.00    +0.000 A 
ATOM      5  C   UNL     1      44.638   6.255  13.016  0.00  0.00    +0.000 A 
ATOM      6  C   UNL     1      43.580   5.410  12.672  0.00  0.00    +0.000 A 
ATOM      7  C   UNL     1      43.659   4.636  11.519  0.00  0.00    +0.000 A 
ATOM      8  F   UNL     1      42.616   3.858  11.195  0.00  0.00    +0.000 F 
ATOM      9  C   UNL     1      44.791   4.668  10.703  0.00  0.00    +0.000 A 
ATOM     10  C   UNL     1      45.850   5.516  11.079  0.00  0.00    +0.000 A 
BRANCH   9  11
ATOM     11  C   UNL     1      44.860   3.845   9.430  0.00  0.00    +0.000 C 
ATOM     12  C   UNL     1      45.188   2.373   9.724  0.00  0.00    +0.000 C 
ATOM     13  C   UNL     1      45.464   1.598   8.444  0.00  0.00    +0.000 C 
ATOM     14  O   UNL     1      46.481   2.239   7.676  0.00  0.00    +0.000 OA
ATOM     15  C   UNL     1      46.080   3.535   7.239  0.00  0.00    +0.000 C 
ATOM     16  C   UNL     1      45.861   4.454   8.432  0.00  0.00    +0.000 C 
ENDBRANCH   9  11
ENDBRANCH   1   4
BRANCH   1  17
ATOM     17  O   UNL     1      46.489   8.617  13.086  0.00  0.00    +0.000 OA
BRANCH  17  22
ATOM     18  C   UNL     1      44.353  10.676  10.881  0.00  0.00    +0.000 A 
ATOM     19  C   UNL     1      45.336  11.512  10.337  0.00  0.00    +0.000 A 
ATOM     20  C   UNL     1      46.658  11.418  10.788  0.00  0.00    +0.000 A 
ATOM     21  C   UNL     1      46.983  10.479  11.772  0.00  0.00    +0.000 A 
ATOM     22  C   UNL     1      46.005   9.628  12.302  0.00  0.00    +0.000 A 
ATOM     23  C   UNL     1      44.691   9.732  11.863  0.00  0.00    +0.000 A 
BRANCH  18  25
ATOM     24  N   UNL     1      41.916  10.799  10.006  0.00  0.00    +0.000 NA
ATOM     25  C   UNL     1      43.004  10.750  10.395  0.00  0.00    +0.000 C 
ENDBRANCH  18  25
BRANCH  20  26
ATOM     26  C   UNL     1      47.680  12.239  10.207  0.00  0.00    +0.000 C 
ATOM     27  N   UNL     1      48.513  12.903   9.748  0.00  0.00    +0.000 NA
ENDBRANCH  20  26
ENDBRANCH  17  22
ENDBRANCH   1  17
TORSDOF 6
ENDMDL
MODEL 5
REMARK VINA RESULT:    -6.126      1.833      2.787
REMARK INTER + INTRA:          -9.593
REMARK INTER:                  -8.524
REMARK INTRA:                  -1.068
REMARK UNBOUND:                -1.318
REMARK  Name = 
REMARK  6 active torsions:
REMARK  status: ('A' for Active; 'I' for Inactive)
REMARK    1  A    between atoms: C_2  and  C_3
REMARK    2  A    between atoms: C_5  and  C_6
REMARK    3  A    between atoms: C_9  and  O_10
REMARK    4  A    between atoms: O_10  and  C_11
REMARK    5  A    between atoms: C_11  and  C_12
REMARK    6  A    between atoms: C_17  and  C_18
REMARK                            x       y       z     vdW  Elec       q    Type
REMARK                         _______ _______ _______ _____ _____    ______ ____
ROOT
ATOM      1  C   UNL     1      48.789   8.029  13.534  0.00  0.00    +0.000 C 
ATOM      2  C   UNL     1      49.791   8.677  12.570  0.00  0.00    +0.000 C 
ATOM      3  C   UNL     1      49.169   9.496  13.643  0.00  0.00    +0.000 C 
ENDROOT
BRANCH   1   4
ATOM      4  C   UNL     1      47.377   7.731  13.051  0.00  0.00    +0.000 A 
ATOM      5  C   UNL     1      46.457   8.767  12.813  0.00  0.00    +0.000 A 
ATOM      6  C   UNL     1      45.196   8.506  12.274  0.00  0.00    +0.000 A 
ATOM      7  C   UNL     1      44.831   7.200  11.963  0.00  0.00    +0.000 A 
ATOM      8  F   UNL     1      43.627   6.982  11.416  0.00  0.00    +0.000 F 
ATOM      9  C   UNL     1      45.698   6.133  12.200  0.00  0.00    +0.000 A 
ATOM     10  C   UNL     1      46.958   6.419  12.759  0.00  0.00    +0.000 A 
BRANCH   9  11
ATOM     11  C   UNL     1      45.308   4.713  11.831  0.00  0.00    +0.000 C 
ATOM     12  C   UNL     1      44.971   4.588  10.337  0.00  0.00    +0.000 C 
ATOM     13  C   UNL     1      44.381   3.224  10.012  0.00  0.00    +0.000 C 
ATOM     14  O   UNL     1      43.258   2.948  10.848  0.00  0.00    +0.000 OA
ATOM     15  C   UNL     1      43.626   2.870  12.223  0.00  0.00    +0.000 C 
ATOM     16  C   UNL     1      44.149   4.212  12.711  0.00  0.00    +0.000 C 
ENDBRANCH   9  11
ENDBRANCH   1   4
BRANCH   1  17
ATOM     17  O   UNL     1      49.484   6.973  14.234  0.00  0.00    +0.000 OA
BRANCH  17  22
ATOM     18  C   UNL     1      47.914   5.153  17.042  0.00  0.00    +0.000 A 
ATOM     19  C   UNL     1      48.035   6.132  18.037  0.00  0.00    +0.000 A 
ATOM     20  C   UNL     1      48.711   7.326  17.760  0.00  0.00    +0.000 A 
ATOM     21  C   UNL     1      49.250   7.532  16.486  0.00  0.00    +0.000 A 
ATOM     22  C   UNL     1      49.111   6.562  15.484  0.00  0.00    +0.000 A 
ATOM     23  C   UNL     1      48.452   5.372  15.764  0.00  0.00    +0.000 A 
BRANCH  18  25
ATOM     24  N   UNL     1      46.603   2.974  17.545  0.00  0.00    +0.000 NA
ATOM     25  C   UNL     1      47.192   3.943  17.317  0.00  0.00    +0.000 C 
ENDBRANCH  18  25
BRANCH  20  26
ATOM     26  C   UNL     1      48.803   8.353  18.757  0.00  0.00    +0.000 C 
ATOM     27  N   UNL     1      48.872   9.174  19.573  0.00  0.00    +0.000 NA
ENDBRANCH  20  26
ENDBRANCH  17  22
ENDBRANCH   1  17
TORSDOF 6
ENDMDL
MODEL 6
REMARK VINA RESULT:    -5.843      3.492      7.281
REMARK INTER + INTRA:          -9.210
REMARK INTER:                  -7.990
REMARK INTRA:                  -1.220
REMARK UNBOUND:                -1.318
REMARK  Name = 
REMARK  6 active torsions:
REMARK  status: ('A' for Active; 'I' for Inactive)
REMARK    1  A    between atoms: C_2  and  C_3
REMARK    2  A    between atoms: C_5  and  C_6
REMARK    3  A    between atoms: C_9  and  O_10
REMARK    4  A    between atoms: O_10  and  C_11
REMARK    5  A    between atoms: C_11  and  C_12
REMARK    6  A    between atoms: C_17  and  C_18
REMARK                            x       y       z     vdW  Elec       q    Type
REMARK                         _______ _______ _______ _____ _____    ______ ____
ROOT
ATOM      1  C   UNL     1      48.172   7.901  12.653  0.00  0.00    +0.000 C 
ATOM      2  C   UNL     1      48.910   8.923  11.780  0.00  0.00    +0.000 C 
ATOM      3  C   UNL     1      49.361   7.508  11.796  0.00  0.00    +0.000 C 
ENDROOT
BRANCH   1   4
ATOM      4  C   UNL     1      48.397   7.908  14.159  0.00  0.00    +0.000 A 
ATOM      5  C   UNL     1      48.328   9.101  14.898  0.00  0.00    +0.000 A 
ATOM      6  C   UNL     1      48.434   9.099  16.290  0.00  0.00    +0.000 A 
ATOM      7  C   UNL     1      48.611   7.898  16.970  0.00  0.00    +0.000 A 
ATOM      8  F   UNL     1      48.677   7.921  18.309  0.00  0.00    +0.000 F 
ATOM      9  C   UNL     1      48.709   6.687  16.283  0.00  0.00    +0.000 A 
ATOM     10  C   UNL     1      48.615   6.718  14.878  0.00  0.00    +0.000 A 
BRANCH   9  11
ATOM     11  C   UNL     1      48.872   5.376  17.030  0.00  0.00    +0.000 C 
ATOM     12  C   UNL     1      50.351   4.983  17.169  0.00  0.00    +0.000 C 
ATOM     13  C   UNL     1      50.502   3.576  17.726  0.00  0.00    +0.000 C 
ATOM     14  O   UNL     1      49.762   2.641  16.943  0.00  0.00    +0.000 OA
ATOM     15  C   UNL     1      48.362   2.902  16.985  0.00  0.00    +0.000 C 
ATOM     16  C   UNL     1      48.054   4.255  16.363  0.00  0.00    +0.000 C 
ENDBRANCH   9  11
ENDBRANCH   1   4
BRANCH   1  17
ATOM     17  O   UNL     1      46.804   7.846  12.191  0.00  0.00    +0.000 OA
BRANCH  17  22
ATOM     18  C   UNL     1      45.465   5.077  10.141  0.00  0.00    +0.000 A 
ATOM     19  C   UNL     1      44.577   4.521  11.071  0.00  0.00    +0.000 A 
ATOM     20  C   UNL     1      44.519   5.035  12.372  0.00  0.00    +0.000 A 
ATOM     21  C   UNL     1      45.346   6.106  12.725  0.00  0.00    +0.000 A 
ATOM     22  C   UNL     1      46.219   6.676  11.790  0.00  0.00    +0.000 A 
ATOM     23  C   UNL     1      46.285   6.157  10.502  0.00  0.00    +0.000 A 
BRANCH  18  25
ATOM     24  N   UNL     1      45.516   4.164   7.715  0.00  0.00    +0.000 NA
ATOM     25  C   UNL     1      45.500   4.571   8.797  0.00  0.00    +0.000 C 
ENDBRANCH  18  25
BRANCH  20  26
ATOM     26  C   UNL     1      43.583   4.502  13.318  0.00  0.00    +0.000 C 
ATOM     27  N   UNL     1      42.820   4.062  14.073  0.00  0.00    +0.000 NA
ENDBRANCH  20  26
ENDBRANCH  17  22
ENDBRANCH   1  17
TORSDOF 6
ENDMDL
MODEL 7
REMARK VINA RESULT:    -5.835      3.494      5.628
REMARK INTER + INTRA:          -9.199
REMARK INTER:                  -8.196
REMARK INTRA:                  -1.004
REMARK UNBOUND:                -1.318
REMARK  Name = 
REMARK  6 active torsions:
REMARK  status: ('A' for Active; 'I' for Inactive)
REMARK    1  A    between atoms: C_2  and  C_3
REMARK    2  A    between atoms: C_5  and  C_6
REMARK    3  A    between atoms: C_9  and  O_10
REMARK    4  A    between atoms: O_10  and  C_11
REMARK    5  A    between atoms: C_11  and  C_12
REMARK    6  A    between atoms: C_17  and  C_18
REMARK                            x       y       z     vdW  Elec       q    Type
REMARK                         _______ _______ _______ _____ _____    ______ ____
ROOT
ATOM      1  C   UNL     1      49.970   7.518  16.750  0.00  0.00    +0.000 C 
ATOM      2  C   UNL     1      50.164   8.831  17.519  0.00  0.00    +0.000 C 
ATOM      3  C   UNL     1      48.897   8.070  17.671  0.00  0.00    +0.000 C 
ENDROOT
BRANCH   1   4
ATOM      4  C   UNL     1      49.671   7.568  15.258  0.00  0.00    +0.000 A 
ATOM      5  C   UNL     1      50.605   8.092  14.347  0.00  0.00    +0.000 A 
ATOM      6  C   UNL     1      50.378   8.047  12.970  0.00  0.00    +0.000 A 
ATOM      7  C   UNL     1      49.208   7.476  12.479  0.00  0.00    +0.000 A 
ATOM      8  F   UNL     1      49.031   7.417  11.151  0.00  0.00    +0.000 F 
ATOM      9  C   UNL     1      48.239   6.961  13.340  0.00  0.00    +0.000 A 
ATOM     10  C   UNL     1      48.484   7.032  14.725  0.00  0.00    +0.000 A 
BRANCH   9  11
ATOM     11  C   UNL     1      46.978   6.311  12.799  0.00  0.00    +0.000 C 
ATOM     12  C   UNL     1      45.857   7.340  12.585  0.00  0.00    +0.000 C 
ATOM     13  C   UNL     1      44.538   6.663  12.246  0.00  0.00    +0.000 C 
ATOM     14  O   UNL     1      44.202   5.690  13.235  0.00  0.00    +0.000 OA
ATOM     15  C   UNL     1      45.155   4.631  13.284  0.00  0.00    +0.000 C 
ATOM     16  C   UNL     1      46.516   5.160  13.709  0.00  0.00    +0.000 C 
ENDBRANCH   9  11
ENDBRANCH   1   4
BRANCH   1  17
ATOM     17  O   UNL     1      51.001   6.605  17.186  0.00  0.00    +0.000 OA
BRANCH  17  22
ATOM     18  C   UNL     1      51.304   2.947  17.623  0.00  0.00    +0.000 A 
ATOM     19  C   UNL     1      49.946   2.606  17.590  0.00  0.00    +0.000 A 
ATOM     20  C   UNL     1      48.977   3.613  17.510  0.00  0.00    +0.000 A 
ATOM     21  C   UNL     1      49.379   4.951  17.455  0.00  0.00    +0.000 A 
ATOM     22  C   UNL     1      50.738   5.292  17.467  0.00  0.00    +0.000 A 
ATOM     23  C   UNL     1      51.698   4.292  17.559  0.00  0.00    +0.000 A 
BRANCH  18  25
ATOM     24  N   UNL     1      53.099   1.079  17.722  0.00  0.00    +0.000 NA
ATOM     25  C   UNL     1      52.299   1.912  17.671  0.00  0.00    +0.000 C 
ENDBRANCH  18  25
BRANCH  20  26
ATOM     26  C   UNL     1      47.586   3.273  17.432  0.00  0.00    +0.000 C 
ATOM     27  N   UNL     1      46.458   3.011  17.367  0.00  0.00    +0.000 NA
ENDBRANCH  20  26
ENDBRANCH  17  22
ENDBRANCH   1  17
TORSDOF 6
ENDMDL
MODEL 8
REMARK VINA RESULT:    -5.765      3.514      7.089
REMARK INTER + INTRA:          -9.105
REMARK INTER:                  -7.866
REMARK INTRA:                  -1.239
REMARK UNBOUND:                -1.318
REMARK  Name = 
REMARK  6 active torsions:
REMARK  status: ('A' for Active; 'I' for Inactive)
REMARK    1  A    between atoms: C_2  and  C_3
REMARK    2  A    between atoms: C_5  and  C_6
REMARK    3  A    between atoms: C_9  and  O_10
REMARK    4  A    between atoms: O_10  and  C_11
REMARK    5  A    between atoms: C_11  and  C_12
REMARK    6  A    between atoms: C_17  and  C_18
REMARK                            x       y       z     vdW  Elec       q    Type
REMARK                         _______ _______ _______ _____ _____    ______ ____
ROOT
ATOM      1  C   UNL     1      48.148   7.930  12.641  0.00  0.00    +0.000 C 
ATOM      2  C   UNL     1      49.080   8.777  11.766  0.00  0.00    +0.000 C 
ATOM      3  C   UNL     1      49.223   7.298  11.775  0.00  0.00    +0.000 C 
ENDROOT
BRANCH   1   4
ATOM      4  C   UNL     1      48.377   7.882  14.145  0.00  0.00    +0.000 A 
ATOM      5  C   UNL     1      48.368   9.056  14.918  0.00  0.00    +0.000 A 
ATOM      6  C   UNL     1      48.477   9.008  16.310  0.00  0.00    +0.000 A 
ATOM      7  C   UNL     1      48.600   7.781  16.954  0.00  0.00    +0.000 A 
ATOM      8  F   UNL     1      48.670   7.762  18.292  0.00  0.00    +0.000 F 
ATOM      9  C   UNL     1      48.638   6.588  16.232  0.00  0.00    +0.000 A 
ATOM     10  C   UNL     1      48.541   6.663  14.829  0.00  0.00    +0.000 A 
BRANCH   9  11
ATOM     11  C   UNL     1      48.740   5.249  16.940  0.00  0.00    +0.000 C 
ATOM     12  C   UNL     1      50.204   4.840  17.168  0.00  0.00    +0.000 C 
ATOM     13  C   UNL     1      50.308   3.412  17.683  0.00  0.00    +0.000 C 
ATOM     14  O   UNL     1      49.620   2.512  16.816  0.00  0.00    +0.000 OA
ATOM     15  C   UNL     1      48.222   2.782  16.770  0.00  0.00    +0.000 C 
ATOM     16  C   UNL     1      47.966   4.160  16.177  0.00  0.00    +0.000 C 
ENDBRANCH   9  11
ENDBRANCH   1   4
BRANCH   1  17
ATOM     17  O   UNL     1      46.796   8.165  12.187  0.00  0.00    +0.000 OA
BRANCH  17  22
ATOM     18  C   UNL     1      44.451   5.313  12.345  0.00  0.00    +0.000 A 
ATOM     19  C   UNL     1      44.661   4.780  11.066  0.00  0.00    +0.000 A 
ATOM     20  C   UNL     1      45.510   5.439  10.169  0.00  0.00    +0.000 A 
ATOM     21  C   UNL     1      46.147   6.620  10.566  0.00  0.00    +0.000 A 
ATOM     22  C   UNL     1      45.954   7.141  11.851  0.00  0.00    +0.000 A 
ATOM     23  C   UNL     1      45.101   6.493  12.736  0.00  0.00    +0.000 A 
BRANCH  18  25
ATOM     24  N   UNL     1      42.931   4.049  14.022  0.00  0.00    +0.000 NA
ATOM     25  C   UNL     1      43.606   4.618  13.276  0.00  0.00    +0.000 C 
ENDBRANCH  18  25
BRANCH  20  26
ATOM     26  C   UNL     1      45.767   4.880   8.874  0.00  0.00    +0.000 C 
ATOM     27  N   UNL     1      45.966   4.417   7.829  0.00  0.00    +0.000 NA
ENDBRANCH  20  26
ENDBRANCH  17  22
ENDBRANCH   1  17
TORSDOF 6
ENDMDL
MODEL 9
REMARK VINA RESULT:    -5.762      3.380      5.189
REMARK INTER + INTRA:          -9.101
REMARK INTER:                  -7.782
REMARK INTRA:                  -1.319
REMARK UNBOUND:                -1.318
REMARK  Name = 
REMARK  6 active torsions:
REMARK  status: ('A' for Active; 'I' for Inactive)
REMARK    1  A    between atoms: C_2  and  C_3
REMARK    2  A    between atoms: C_5  and  C_6
REMARK    3  A    between atoms: C_9  and  O_10
REMARK    4  A    between atoms: O_10  and  C_11
REMARK    5  A    between atoms: C_11  and  C_12
REMARK    6  A    between atoms: C_17  and  C_18
REMARK                            x       y       z     vdW  Elec       q    Type
REMARK                         _______ _______ _______ _____ _____    ______ ____
ROOT
ATOM      1  C   UNL     1      49.209   8.335  16.445  0.00  0.00    +0.000 C 
ATOM      2  C   UNL     1      49.547   9.728  16.989  0.00  0.00    +0.000 C 
ATOM      3  C   UNL     1      48.157   9.215  17.096  0.00  0.00    +0.000 C 
ENDROOT
BRANCH   1   4
ATOM      4  C   UNL     1      49.085   8.132  14.942  0.00  0.00    +0.000 A 
ATOM      5  C   UNL     1      50.095   8.565  14.065  0.00  0.00    +0.000 A 
ATOM      6  C   UNL     1      50.033   8.293  12.697  0.00  0.00    +0.000 A 
ATOM      7  C   UNL     1      48.956   7.580  12.180  0.00  0.00    +0.000 A 
ATOM      8  F   UNL     1      48.938   7.304  10.868  0.00  0.00    +0.000 F 
ATOM      9  C   UNL     1      47.915   7.147  13.003  0.00  0.00    +0.000 A 
ATOM     10  C   UNL     1      47.993   7.448  14.376  0.00  0.00    +0.000 A 
BRANCH   9  11
ATOM     11  C   UNL     1      46.757   6.343  12.440  0.00  0.00    +0.000 C 
ATOM     12  C   UNL     1      45.458   7.165  12.411  0.00  0.00    +0.000 C 
ATOM     13  C   UNL     1      44.261   6.300  12.047  0.00  0.00    +0.000 C 
ATOM     14  O   UNL     1      44.172   5.173  12.917  0.00  0.00    +0.000 OA
ATOM     15  C   UNL     1      45.299   4.310  12.787  0.00  0.00    +0.000 C 
ATOM     16  C   UNL     1      46.570   5.027  13.215  0.00  0.00    +0.000 C 
ENDBRANCH   9  11
ENDBRANCH   1   4
BRANCH   1  17
ATOM     17  O   UNL     1      50.010   7.380  17.176  0.00  0.00    +0.000 OA
BRANCH  17  22
ATOM     18  C   UNL     1      48.733   4.989  19.689  0.00  0.00    +0.000 A 
ATOM     19  C   UNL     1      48.795   3.813  18.930  0.00  0.00    +0.000 A 
ATOM     20  C   UNL     1      49.177   3.873  17.584  0.00  0.00    +0.000 A 
ATOM     21  C   UNL     1      49.502   5.109  17.016  0.00  0.00    +0.000 A 
ATOM     22  C   UNL     1      49.461   6.282  17.781  0.00  0.00    +0.000 A 
ATOM     23  C   UNL     1      49.069   6.223  19.113  0.00  0.00    +0.000 A 
BRANCH  18  25
ATOM     24  N   UNL     1      48.075   4.862  22.193  0.00  0.00    +0.000 NA
ATOM     25  C   UNL     1      48.373   4.923  21.078  0.00  0.00    +0.000 C 
ENDBRANCH  18  25
BRANCH  20  26
ATOM     26  C   UNL     1      49.285   2.671  16.810  0.00  0.00    +0.000 C 
ATOM     27  N   UNL     1      49.385   1.703  16.178  0.00  0.00    +0.000 NA
ENDBRANCH  20  26
ENDBRANCH  17  22
ENDBRANCH   1  17
TORSDOF 6
ENDMDL
