MODEL 1
REMARK VINA RESULT:    -8.089      0.000      0.000
REMARK INTER + INTRA:         -12.760
REMARK INTER:                 -11.872
REMARK INTRA:                  -0.888
REMARK UNBOUND:                -0.888
REMARK  Name = 
REMARK  9 active torsions:
REMARK  status: ('A' for Active; 'I' for Inactive)
REMARK    1  A    between atoms: C_1  and  O_2
REMARK    2  A    between atoms: O_2  and  C_3
REMARK    3  A    between atoms: C_8  and  C_9
REMARK    4  A    between atoms: C_9  and  C_10
REMARK    5  A    between atoms: C_10  and  O_11
REMARK    6  A    between atoms: O_11  and  C_12
REMARK    7  A    between atoms: C_15  and  C_16
REMARK    8  A    between atoms: C_16  and  N_17
REMARK    9  A    between atoms: C_18  and  C_20
REMARK                            x       y       z     vdW  Elec       q    Type
REMARK                         _______ _______ _______ _____ _____    ______ ____
ROOT
ATOM      1  C   UNL     1      44.947   3.854  12.079  0.00  0.00    +0.000 A 
ATOM      2  C   UNL     1      45.970   3.187  12.765  0.00  0.00    +0.000 A 
ATOM      3  C   UNL     1      46.874   3.882  13.576  0.00  0.00    +0.000 A 
ATOM      4  C   UNL     1      46.778   5.268  13.733  0.00  0.00    +0.000 A 
ATOM      5  C   UNL     1      45.779   5.950  13.024  0.00  0.00    +0.000 A 
ATOM      6  C   UNL     1      44.873   5.246  12.216  0.00  0.00    +0.000 A 
ATOM      7  F   UNL     1      43.914   5.940  11.582  0.00  0.00    +0.000 F 
ENDROOT
BRANCH   1   8
ATOM      8  O   UNL     1      44.010   3.224  11.283  0.00  0.00    +0.000 OA
BRANCH   8   9
ATOM      9  C   UNL     1      44.271   3.314   9.871  0.00  0.00    +0.000 C 
BRANCH   9  10
ATOM     10  C   UNL     1      44.776   1.999   9.271  0.00  0.00    +0.000 C 
BRANCH  10  16
ATOM     11  C   UNL     1      46.683   1.230   7.703  0.00  0.00    +0.000 A 
ATOM     12  C   UNL     1      47.623   1.538   6.708  0.00  0.00    +0.000 A 
ATOM     13  C   UNL     1      47.673   2.811   6.141  0.00  0.00    +0.000 A 
ATOM     14  C   UNL     1      46.772   3.785   6.552  0.00  0.00    +0.000 A 
ATOM     15  C   UNL     1      45.838   3.495   7.549  0.00  0.00    +0.000 A 
ATOM     16  C   UNL     1      45.784   2.224   8.151  0.00  0.00    +0.000 A 
BRANCH  11  18
ATOM     17  C   UNL     1      46.580  -1.121   7.343  0.00  0.00    +0.000 C 
ATOM     18  O   UNL     1      46.555  -0.021   8.252  0.00  0.00    +0.000 OA
ENDBRANCH  11  18
ENDBRANCH  10  16
ENDBRANCH   9  10
ENDBRANCH   8   9
ENDBRANCH   1   8
BRANCH   4  19
ATOM     19  C   UNL     1      47.727   5.988  14.661  0.00  0.00    +0.000 C 
BRANCH  19  20
ATOM     20  N   UNL     1      47.730   5.424  15.988  0.00  0.00    +0.000 N 
ATOM     21  C   UNL     1      48.900   5.352  16.721  0.00  0.00    +0.000 C 
ATOM     22  O   UNL     1      49.978   5.745  16.302  0.00  0.00    +0.000 OA
ATOM     23  H   UNL     1      46.855   5.331  16.481  0.00  0.00    +0.000 HD
BRANCH  21  24
ATOM     24  C   UNL     1      48.724   4.792  18.062  0.00  0.00    +0.000 A 
ATOM     25  C   UNL     1      48.766   3.443  18.385  0.00  0.00    +0.000 A 
ATOM     26  N   UNL     1      48.577   3.313  19.736  0.00  0.00    +0.000 N 
ATOM     27  C   UNL     1      48.396   4.544  20.298  0.00  0.00    +0.000 A 
ATOM     28  N   UNL     1      48.155   4.742  21.607  0.00  0.00    +0.000 NA
ATOM     29  C   UNL     1      48.004   6.049  21.921  0.00  0.00    +0.000 A 
ATOM     30  C   UNL     1      48.088   7.108  21.029  0.00  0.00    +0.000 A 
ATOM     31  C   UNL     1      48.350   6.843  19.681  0.00  0.00    +0.000 A 
ATOM     32  C   UNL     1      48.503   5.499  19.291  0.00  0.00    +0.000 A 
ATOM     33  H   UNL     1      48.563   2.453  20.269  0.00  0.00    +0.000 HD
ENDBRANCH  21  24
ENDBRANCH  19  20
ENDBRANCH   4  19
TORSDOF 8
ENDMDL
MODEL 2
REMARK VINA RESULT:    -7.700      1.756      2.507
REMARK INTER + INTRA:         -12.190
REMARK INTER:                 -11.118
REMARK INTRA:                  -1.071
REMARK UNBOUND:                -0.888
REMARK  Name = 
REMARK  9 active torsions:
REMARK  status: ('A' for Active; 'I' for Inactive)
REMARK    1  A    between atoms: C_1  and  O_2
REMARK    2  A    between atoms: O_2  and  C_3
REMARK    3  A    between atoms: C_8  and  C_9
REMARK    4  A    between atoms: C_9  and  C_10
REMARK    5  A    between atoms: C_10  and  O_11
REMARK    6  A    between atoms: O_11  and  C_12
REMARK    7  A    between atoms: C_15  and  C_16
REMARK    8  A    between atoms: C_16  and  N_17
REMARK    9  A    between atoms: C_18  and  C_20
REMARK                            x       y       z     vdW  Elec       q    Type
REMARK                         _______ _______ _______ _____ _____    ______ ____
ROOT
ATOM      1  C   UNL     1      44.345   3.634  11.121  0.00  0.00    +0.000 A 
ATOM      2  C   UNL     1      45.125   3.541  12.281  0.00  0.00    +0.000 A 
ATOM      3  C   UNL     1      45.794   4.655  12.798  0.00  0.00    +0.000 A 
ATOM      4  C   UNL     1      45.700   5.903  12.174  0.00  0.00    +0.000 A 
ATOM      5  C   UNL     1      44.949   6.000  10.994  0.00  0.00    +0.000 A 
ATOM      6  C   UNL     1      44.276   4.880  10.483  0.00  0.00    +0.000 A 
ATOM      7  F   UNL     1      43.545   5.031   9.367  0.00  0.00    +0.000 F 
ENDROOT
BRANCH   1   8
ATOM      8  O   UNL     1      43.641   2.579  10.574  0.00  0.00    +0.000 OA
BRANCH   8   9
ATOM      9  C   UNL     1      44.239   2.012   9.394  0.00  0.00    +0.000 C 
BRANCH   9  10
ATOM     10  C   UNL     1      45.762   2.160   9.366  0.00  0.00    +0.000 C 
BRANCH  10  16
ATOM     11  C   UNL     1      47.036   1.287   7.292  0.00  0.00    +0.000 A 
ATOM     12  C   UNL     1      47.553   1.521   6.009  0.00  0.00    +0.000 A 
ATOM     13  C   UNL     1      47.339   2.738   5.363  0.00  0.00    +0.000 A 
ATOM     14  C   UNL     1      46.591   3.728   5.986  0.00  0.00    +0.000 A 
ATOM     15  C   UNL     1      46.080   3.513   7.268  0.00  0.00    +0.000 A 
ATOM     16  C   UNL     1      46.302   2.301   7.948  0.00  0.00    +0.000 A 
BRANCH  11  18
ATOM     17  C   UNL     1      46.502  -1.031   7.368  0.00  0.00    +0.000 C 
ATOM     18  O   UNL     1      47.170   0.089   7.947  0.00  0.00    +0.000 OA
ENDBRANCH  11  18
ENDBRANCH  10  16
ENDBRANCH   9  10
ENDBRANCH   8   9
ENDBRANCH   1   8
BRANCH   4  19
ATOM     19  C   UNL     1      46.381   7.104  12.784  0.00  0.00    +0.000 C 
BRANCH  19  20
ATOM     20  N   UNL     1      46.951   6.813  14.077  0.00  0.00    +0.000 N 
ATOM     21  C   UNL     1      48.305   6.567  14.211  0.00  0.00    +0.000 C 
ATOM     22  O   UNL     1      49.084   6.572  13.269  0.00  0.00    +0.000 OA
ATOM     23  H   UNL     1      46.428   7.050  14.906  0.00  0.00    +0.000 HD
BRANCH  21  24
ATOM     24  C   UNL     1      48.728   6.331  15.592  0.00  0.00    +0.000 A 
ATOM     25  C   UNL     1      49.567   7.153  16.332  0.00  0.00    +0.000 A 
ATOM     26  N   UNL     1      49.714   6.611  17.582  0.00  0.00    +0.000 N 
ATOM     27  C   UNL     1      49.007   5.447  17.669  0.00  0.00    +0.000 A 
ATOM     28  N   UNL     1      48.980   4.666  18.764  0.00  0.00    +0.000 NA
ATOM     29  C   UNL     1      48.214   3.563  18.603  0.00  0.00    +0.000 A 
ATOM     30  C   UNL     1      47.505   3.232  17.458  0.00  0.00    +0.000 A 
ATOM     31  C   UNL     1      47.563   4.087  16.353  0.00  0.00    +0.000 A 
ATOM     32  C   UNL     1      48.356   5.245  16.455  0.00  0.00    +0.000 A 
ATOM     33  H   UNL     1      50.261   6.986  18.347  0.00  0.00    +0.000 HD
ENDBRANCH  21  24
ENDBRANCH  19  20
ENDBRANCH   4  19
TORSDOF 8
ENDMDL
MODEL 3
REMARK VINA RESULT:    -7.502      3.625      9.680
REMARK INTER + INTRA:         -11.899
REMARK INTER:                 -10.233
REMARK INTRA:                  -1.666
REMARK UNBOUND:                -0.888
REMARK  Name = 
REMARK  9 active torsions:
REMARK  status: ('A' for Active; 'I' for Inactive)
REMARK    1  A    between atoms: C_1  and  O_2
REMARK    2  A    between atoms: O_2  and  C_3
REMARK    3  A    between atoms: C_8  and  C_9
REMARK    4  A    between atoms: C_9  and  C_10
REMARK    5  A    between atoms: C_10  and  O_11
REMARK    6  A    between atoms: O_11  and  C_12
REMARK    7  A    between atoms: C_15  and  C_16
REMARK    8  A    between atoms: C_16  and  N_17
REMARK    9  A    between atoms: C_18  and  C_20
REMARK                            x       y       z     vdW  Elec       q    Type
REMARK                         _______ _______ _______ _____ _____    ______ ____
ROOT
ATOM      1  C   UNL     1      49.182   8.558  13.768  0.00  0.00    +0.000 A 
ATOM      2  C   UNL     1      47.971   9.005  14.314  0.00  0.00    +0.000 A 
ATOM      3  C   UNL     1      46.745   8.672  13.731  0.00  0.00    +0.000 A 
ATOM      4  C   UNL     1      46.688   7.873  12.584  0.00  0.00    +0.000 A 
ATOM      5  C   UNL     1      47.894   7.449  12.011  0.00  0.00    +0.000 A 
ATOM      6  C   UNL     1      49.122   7.783  12.603  0.00  0.00    +0.000 A 
ATOM      7  F   UNL     1      50.249   7.326  12.034  0.00  0.00    +0.000 F 
ENDROOT
BRANCH   1   8
ATOM      8  O   UNL     1      50.423   8.833  14.309  0.00  0.00    +0.000 OA
BRANCH   8   9
ATOM      9  C   UNL     1      50.581   8.419  15.678  0.00  0.00    +0.000 C 
BRANCH   9  10
ATOM     10  C   UNL     1      50.752   6.905  15.829  0.00  0.00    +0.000 C 
BRANCH  10  16
ATOM     11  C   UNL     1      48.584   5.660  16.489  0.00  0.00    +0.000 A 
ATOM     12  C   UNL     1      47.717   5.198  17.490  0.00  0.00    +0.000 A 
ATOM     13  C   UNL     1      48.031   5.360  18.839  0.00  0.00    +0.000 A 
ATOM     14  C   UNL     1      49.224   5.972  19.200  0.00  0.00    +0.000 A 
ATOM     15  C   UNL     1      50.092   6.446  18.214  0.00  0.00    +0.000 A 
ATOM     16  C   UNL     1      49.785   6.313  16.846  0.00  0.00    +0.000 A 
BRANCH  11  18
ATOM     17  C   UNL     1      47.180   4.733  14.804  0.00  0.00    +0.000 C 
ATOM     18  O   UNL     1      48.349   5.474  15.149  0.00  0.00    +0.000 OA
ENDBRANCH  11  18
ENDBRANCH  10  16
ENDBRANCH   9  10
ENDBRANCH   8   9
ENDBRANCH   1   8
BRANCH   4  19
ATOM     19  C   UNL     1      45.350   7.476  12.008  0.00  0.00    +0.000 C 
BRANCH  19  20
ATOM     20  N   UNL     1      45.349   6.125  11.504  0.00  0.00    +0.000 N 
ATOM     21  C   UNL     1      44.180   5.545  11.046  0.00  0.00    +0.000 C 
ATOM     22  O   UNL     1      43.102   6.120  11.045  0.00  0.00    +0.000 OA
ATOM     23  H   UNL     1      46.225   5.703  11.236  0.00  0.00    +0.000 HD
BRANCH  21  24
ATOM     24  C   UNL     1      44.358   4.186  10.530  0.00  0.00    +0.000 A 
ATOM     25  C   UNL     1      43.800   3.037  11.071  0.00  0.00    +0.000 A 
ATOM     26  N   UNL     1      44.178   1.967  10.304  0.00  0.00    +0.000 N 
ATOM     27  C   UNL     1      44.984   2.389   9.286  0.00  0.00    +0.000 A 
ATOM     28  N   UNL     1      45.542   1.564   8.382  0.00  0.00    +0.000 NA
ATOM     29  C   UNL     1      46.306   2.218   7.477  0.00  0.00    +0.000 A 
ATOM     30  C   UNL     1      46.515   3.588   7.437  0.00  0.00    +0.000 A 
ATOM     31  C   UNL     1      45.901   4.398   8.398  0.00  0.00    +0.000 A 
ATOM     32  C   UNL     1      45.105   3.773   9.376  0.00  0.00    +0.000 A 
ATOM     33  H   UNL     1      43.922   0.997  10.444  0.00  0.00    +0.000 HD
ENDBRANCH  21  24
ENDBRANCH  19  20
ENDBRANCH   4  19
TORSDOF 8
ENDMDL
MODEL 4
REMARK VINA RESULT:    -7.456      3.902      9.508
REMARK INTER + INTRA:         -11.831
REMARK INTER:                 -10.508
REMARK INTRA:                  -1.323
REMARK UNBOUND:                -0.888
REMARK  Name = 
REMARK  9 active torsions:
REMARK  status: ('A' for Active; 'I' for Inactive)
REMARK    1  A    between atoms: C_1  and  O_2
REMARK    2  A    between atoms: O_2  and  C_3
REMARK    3  A    between atoms: C_8  and  C_9
REMARK    4  A    between atoms: C_9  and  C_10
REMARK    5  A    between atoms: C_10  and  O_11
REMARK    6  A    between atoms: O_11  and  C_12
REMARK    7  A    between atoms: C_15  and  C_16
REMARK    8  A    between atoms: C_16  and  N_17
REMARK    9  A    between atoms: C_18  and  C_20
REMARK                            x       y       z     vdW  Elec       q    Type
REMARK                         _______ _______ _______ _____ _____    ______ ____
ROOT
ATOM      1  C   UNL     1      49.273   8.073  14.489  0.00  0.00    +0.000 A 
ATOM      2  C   UNL     1      49.327   7.186  13.406  0.00  0.00    +0.000 A 
ATOM      3  C   UNL     1      48.228   7.003  12.561  0.00  0.00    +0.000 A 
ATOM      4  C   UNL     1      47.038   7.710  12.767  0.00  0.00    +0.000 A 
ATOM      5  C   UNL     1      46.962   8.575  13.867  0.00  0.00    +0.000 A 
ATOM      6  C   UNL     1      48.070   8.757  14.709  0.00  0.00    +0.000 A 
ATOM      7  F   UNL     1      47.958   9.621  15.731  0.00  0.00    +0.000 F 
ENDROOT
BRANCH   1   8
ATOM      8  O   UNL     1      50.330   8.316  15.345  0.00  0.00    +0.000 OA
BRANCH   8   9
ATOM      9  C   UNL     1      50.812   7.153  16.041  0.00  0.00    +0.000 C 
BRANCH   9  10
ATOM     10  C   UNL     1      49.793   6.585  17.032  0.00  0.00    +0.000 C 
BRANCH  10  16
ATOM     11  C   UNL     1      48.735   4.228  16.927  0.00  0.00    +0.000 A 
ATOM     12  C   UNL     1      48.865   2.840  17.087  0.00  0.00    +0.000 A 
ATOM     13  C   UNL     1      50.094   2.272  17.420  0.00  0.00    +0.000 A 
ATOM     14  C   UNL     1      51.209   3.083  17.580  0.00  0.00    +0.000 A 
ATOM     15  C   UNL     1      51.091   4.467  17.433  0.00  0.00    +0.000 A 
ATOM     16  C   UNL     1      49.856   5.065  17.120  0.00  0.00    +0.000 A 
BRANCH  11  18
ATOM     17  C   UNL     1      47.149   4.623  15.195  0.00  0.00    +0.000 C 
ATOM     18  O   UNL     1      47.563   4.831  16.545  0.00  0.00    +0.000 OA
ENDBRANCH  11  18
ENDBRANCH  10  16
ENDBRANCH   9  10
ENDBRANCH   8   9
ENDBRANCH   1   8
BRANCH   4  19
ATOM     19  C   UNL     1      45.886   7.542  11.806  0.00  0.00    +0.000 C 
BRANCH  19  20
ATOM     20  N   UNL     1      45.775   6.191  11.313  0.00  0.00    +0.000 N 
ATOM     21  C   UNL     1      44.537   5.641  11.036  0.00  0.00    +0.000 C 
ATOM     22  O   UNL     1      43.486   6.245  11.192  0.00  0.00    +0.000 OA
ATOM     23  H   UNL     1      46.590   5.746  10.921  0.00  0.00    +0.000 HD
BRANCH  21  24
ATOM     24  C   UNL     1      44.601   4.278  10.505  0.00  0.00    +0.000 A 
ATOM     25  C   UNL     1      43.996   3.164  11.069  0.00  0.00    +0.000 A 
ATOM     26  N   UNL     1      44.266   2.077  10.279  0.00  0.00    +0.000 N 
ATOM     27  C   UNL     1      45.047   2.454   9.225  0.00  0.00    +0.000 A 
ATOM     28  N   UNL     1      45.506   1.602   8.290  0.00  0.00    +0.000 NA
ATOM     29  C   UNL     1      46.265   2.212   7.351  0.00  0.00    +0.000 A 
ATOM     30  C   UNL     1      46.560   3.567   7.308  0.00  0.00    +0.000 A 
ATOM     31  C   UNL     1      46.048   4.406   8.301  0.00  0.00    +0.000 A 
ATOM     32  C   UNL     1      45.262   3.826   9.314  0.00  0.00    +0.000 A 
ATOM     33  H   UNL     1      43.955   1.125  10.427  0.00  0.00    +0.000 HD
ENDBRANCH  21  24
ENDBRANCH  19  20
ENDBRANCH   4  19
TORSDOF 8
ENDMDL
MODEL 5
REMARK VINA RESULT:    -7.348      3.786      9.534
REMARK INTER + INTRA:         -11.673
REMARK INTER:                  -9.796
REMARK INTRA:                  -1.877
REMARK UNBOUND:                -0.888
REMARK  Name = 
REMARK  9 active torsions:
REMARK  status: ('A' for Active; 'I' for Inactive)
REMARK    1  A    between atoms: C_1  and  O_2
REMARK    2  A    between atoms: O_2  and  C_3
REMARK    3  A    between atoms: C_8  and  C_9
REMARK    4  A    between atoms: C_9  and  C_10
REMARK    5  A    between atoms: C_10  and  O_11
REMARK    6  A    between atoms: O_11  and  C_12
REMARK    7  A    between atoms: C_15  and  C_16
REMARK    8  A    between atoms: C_16  and  N_17
REMARK    9  A    between atoms: C_18  and  C_20
REMARK                            x       y       z     vdW  Elec       q    Type
REMARK                         _______ _______ _______ _____ _____    ______ ____
ROOT
ATOM      1  C   UNL     1      49.012   8.047  16.383  0.00  0.00    +0.000 A 
ATOM      2  C   UNL     1      48.119   8.970  15.822  0.00  0.00    +0.000 A 
ATOM      3  C   UNL     1      47.734   8.886  14.481  0.00  0.00    +0.000 A 
ATOM      4  C   UNL     1      48.224   7.869  13.656  0.00  0.00    +0.000 A 
ATOM      5  C   UNL     1      49.143   6.960  14.196  0.00  0.00    +0.000 A 
ATOM      6  C   UNL     1      49.523   7.047  15.545  0.00  0.00    +0.000 A 
ATOM      7  F   UNL     1      50.383   6.134  16.024  0.00  0.00    +0.000 F 
ENDROOT
BRANCH   1   8
ATOM      8  O   UNL     1      49.413   8.062  17.704  0.00  0.00    +0.000 OA
BRANCH   8   9
ATOM      9  C   UNL     1      48.365   7.783  18.649  0.00  0.00    +0.000 C 
BRANCH   9  10
ATOM     10  C   UNL     1      48.622   6.519  19.472  0.00  0.00    +0.000 C 
BRANCH  10  16
ATOM     11  C   UNL     1      49.512   4.284  18.524  0.00  0.00    +0.000 A 
ATOM     12  C   UNL     1      49.331   3.173  17.687  0.00  0.00    +0.000 A 
ATOM     13  C   UNL     1      48.143   2.999  16.977  0.00  0.00    +0.000 A 
ATOM     14  C   UNL     1      47.118   3.926  17.110  0.00  0.00    +0.000 A 
ATOM     15  C   UNL     1      47.289   5.042  17.931  0.00  0.00    +0.000 A 
ATOM     16  C   UNL     1      48.487   5.250  18.640  0.00  0.00    +0.000 A 
BRANCH  11  18
ATOM     17  C   UNL     1      51.864   4.643  18.582  0.00  0.00    +0.000 C 
ATOM     18  O   UNL     1      50.637   4.471  19.288  0.00  0.00    +0.000 OA
ENDBRANCH  11  18
ENDBRANCH  10  16
ENDBRANCH   9  10
ENDBRANCH   8   9
ENDBRANCH   1   8
BRANCH   4  19
ATOM     19  C   UNL     1      47.746   7.762  12.227  0.00  0.00    +0.000 C 
BRANCH  19  20
ATOM     20  N   UNL     1      47.103   6.500  11.957  0.00  0.00    +0.000 N 
ATOM     21  C   UNL     1      45.744   6.343  12.164  0.00  0.00    +0.000 C 
ATOM     22  O   UNL     1      45.023   7.235  12.585  0.00  0.00    +0.000 OA
ATOM     23  H   UNL     1      47.575   5.826  11.373  0.00  0.00    +0.000 HD
BRANCH  21  24
ATOM     24  C   UNL     1      45.241   5.017  11.802  0.00  0.00    +0.000 A 
ATOM     25  C   UNL     1      44.733   4.077  12.688  0.00  0.00    +0.000 A 
ATOM     26  N   UNL     1      44.347   2.972  11.975  0.00  0.00    +0.000 N 
ATOM     27  C   UNL     1      44.610   3.162  10.648  0.00  0.00    +0.000 A 
ATOM     28  N   UNL     1      44.372   2.240   9.698  0.00  0.00    +0.000 NA
ATOM     29  C   UNL     1      44.722   2.660   8.461  0.00  0.00    +0.000 A 
ATOM     30  C   UNL     1      45.262   3.900   8.152  0.00  0.00    +0.000 A 
ATOM     31  C   UNL     1      45.479   4.822   9.180  0.00  0.00    +0.000 A 
ATOM     32  C   UNL     1      45.148   4.437  10.493  0.00  0.00    +0.000 A 
ATOM     33  H   UNL     1      43.934   2.124  12.343  0.00  0.00    +0.000 HD
ENDBRANCH  21  24
ENDBRANCH  19  20
ENDBRANCH   4  19
TORSDOF 8
ENDMDL
MODEL 6
REMARK VINA RESULT:    -6.753      3.801      9.873
REMARK INTER + INTRA:         -10.800
REMARK INTER:                  -9.682
REMARK INTRA:                  -1.118
REMARK UNBOUND:                -0.888
REMARK  Name = 
REMARK  9 active torsions:
REMARK  status: ('A' for Active; 'I' for Inactive)
REMARK    1  A    between atoms: C_1  and  O_2
REMARK    2  A    between atoms: O_2  and  C_3
REMARK    3  A    between atoms: C_8  and  C_9
REMARK    4  A    between atoms: C_9  and  C_10
REMARK    5  A    between atoms: C_10  and  O_11
REMARK    6  A    between atoms: O_11  and  C_12
REMARK    7  A    between atoms: C_15  and  C_16
REMARK    8  A    between atoms: C_16  and  N_17
REMARK    9  A    between atoms: C_18  and  C_20
REMARK                            x       y       z     vdW  Elec       q    Type
REMARK                         _______ _______ _______ _____ _____    ______ ____
ROOT
ATOM      1  C   UNL     1      48.564   4.992  17.648  0.00  0.00    +0.000 A 
ATOM      2  C   UNL     1      49.079   6.162  17.073  0.00  0.00    +0.000 A 
ATOM      3  C   UNL     1      48.710   6.561  15.785  0.00  0.00    +0.000 A 
ATOM      4  C   UNL     1      47.807   5.805  15.030  0.00  0.00    +0.000 A 
ATOM      5  C   UNL     1      47.313   4.615  15.582  0.00  0.00    +0.000 A 
ATOM      6  C   UNL     1      47.683   4.223  16.878  0.00  0.00    +0.000 A 
ATOM      7  F   UNL     1      47.157   3.092  17.375  0.00  0.00    +0.000 F 
ENDROOT
BRANCH   1   8
ATOM      8  O   UNL     1      48.870   4.557  18.923  0.00  0.00    +0.000 OA
BRANCH   8   9
ATOM      9  C   UNL     1      50.270   4.314  19.151  0.00  0.00    +0.000 C 
BRANCH   9  10
ATOM     10  C   UNL     1      50.922   3.492  18.037  0.00  0.00    +0.000 C 
BRANCH  10  16
ATOM     11  C   UNL     1      53.444   2.946  18.220  0.00  0.00    +0.000 A 
ATOM     12  C   UNL     1      54.778   3.355  18.083  0.00  0.00    +0.000 A 
ATOM     13  C   UNL     1      55.090   4.619  17.582  0.00  0.00    +0.000 A 
ATOM     14  C   UNL     1      54.071   5.479  17.196  0.00  0.00    +0.000 A 
ATOM     15  C   UNL     1      52.738   5.088  17.336  0.00  0.00    +0.000 A 
ATOM     16  C   UNL     1      52.399   3.827  17.860  0.00  0.00    +0.000 A 
BRANCH  11  18
ATOM     17  C   UNL     1      53.245   0.627  17.721  0.00  0.00    +0.000 C 
ATOM     18  O   UNL     1      53.084   1.694  18.653  0.00  0.00    +0.000 OA
ENDBRANCH  11  18
ENDBRANCH  10  16
ENDBRANCH   9  10
ENDBRANCH   8   9
ENDBRANCH   1   8
BRANCH   4  19
ATOM     19  C   UNL     1      47.378   6.287  13.665  0.00  0.00    +0.000 C 
BRANCH  19  20
ATOM     20  N   UNL     1      46.686   5.268  12.915  0.00  0.00    +0.000 N 
ATOM     21  C   UNL     1      45.335   5.386  12.645  0.00  0.00    +0.000 C 
ATOM     22  O   UNL     1      44.657   6.331  13.019  0.00  0.00    +0.000 OA
ATOM     23  H   UNL     1      47.225   4.616  12.366  0.00  0.00    +0.000 HD
BRANCH  21  24
ATOM     24  C   UNL     1      44.796   4.289  11.839  0.00  0.00    +0.000 A 
ATOM     25  C   UNL     1      43.998   3.257  12.312  0.00  0.00    +0.000 A 
ATOM     26  N   UNL     1      43.678   2.438  11.261  0.00  0.00    +0.000 N 
ATOM     27  C   UNL     1      44.264   2.902  10.118  0.00  0.00    +0.000 A 
ATOM     28  N   UNL     1      44.161   2.293   8.924  0.00  0.00    +0.000 NA
ATOM     29  C   UNL     1      44.834   2.941   7.945  0.00  0.00    +0.000 A 
ATOM     30  C   UNL     1      45.558   4.113   8.103  0.00  0.00    +0.000 A 
ATOM     31  C   UNL     1      45.622   4.707   9.367  0.00  0.00    +0.000 A 
ATOM     32  C   UNL     1      44.953   4.071  10.430  0.00  0.00    +0.000 A 
ATOM     33  H   UNL     1      43.104   1.605  11.291  0.00  0.00    +0.000 HD
ENDBRANCH  21  24
ENDBRANCH  19  20
ENDBRANCH   4  19
TORSDOF 8
ENDMDL
MODEL 7
REMARK VINA RESULT:    -6.544      3.584     10.738
REMARK INTER + INTRA:         -10.493
REMARK INTER:                  -9.666
REMARK INTRA:                  -0.827
REMARK UNBOUND:                -0.888
REMARK  Name = 
REMARK  9 active torsions:
REMARK  status: ('A' for Active; 'I' for Inactive)
REMARK    1  A    between atoms: C_1  and  O_2
REMARK    2  A    between atoms: O_2  and  C_3
REMARK    3  A    between atoms: C_8  and  C_9
REMARK    4  A    between atoms: C_9  and  C_10
REMARK    5  A    between atoms: C_10  and  O_11
REMARK    6  A    between atoms: O_11  and  C_12
REMARK    7  A    between atoms: C_15  and  C_16
REMARK    8  A    between atoms: C_16  and  N_17
REMARK    9  A    between atoms: C_18  and  C_20
REMARK                            x       y       z     vdW  Elec       q    Type
REMARK                         _______ _______ _______ _____ _____    ______ ____
ROOT
ATOM      1  C   UNL     1      48.225   7.701  14.266  0.00  0.00    +0.000 A 
ATOM      2  C   UNL     1      47.767   6.391  14.065  0.00  0.00    +0.000 A 
ATOM      3  C   UNL     1      46.779   6.104  13.119  0.00  0.00    +0.000 A 
ATOM      4  C   UNL     1      46.219   7.118  12.335  0.00  0.00    +0.000 A 
ATOM      5  C   UNL     1      46.645   8.436  12.550  0.00  0.00    +0.000 A 
ATOM      6  C   UNL     1      47.640   8.717  13.498  0.00  0.00    +0.000 A 
ATOM      7  F   UNL     1      48.037   9.991  13.645  0.00  0.00    +0.000 F 
ENDROOT
BRANCH   1   8
ATOM      8  O   UNL     1      49.213   8.046  15.166  0.00  0.00    +0.000 OA
BRANCH   8   9
ATOM      9  C   UNL     1      49.411   7.096  16.228  0.00  0.00    +0.000 C 
BRANCH   9  10
ATOM     10  C   UNL     1      49.101   7.673  17.612  0.00  0.00    +0.000 C 
BRANCH  10  16
ATOM     11  C   UNL     1      48.799   6.849  20.044  0.00  0.00    +0.000 A 
ATOM     12  C   UNL     1      48.681   5.785  20.950  0.00  0.00    +0.000 A 
ATOM     13  C   UNL     1      48.649   4.465  20.502  0.00  0.00    +0.000 A 
ATOM     14  C   UNL     1      48.717   4.197  19.141  0.00  0.00    +0.000 A 
ATOM     15  C   UNL     1      48.846   5.246  18.229  0.00  0.00    +0.000 A 
ATOM     16  C   UNL     1      48.903   6.585  18.660  0.00  0.00    +0.000 A 
BRANCH  11  18
ATOM     17  C   UNL     1      47.493   8.771  20.562  0.00  0.00    +0.000 C 
ATOM     18  O   UNL     1      48.778   8.167  20.429  0.00  0.00    +0.000 OA
ENDBRANCH  11  18
ENDBRANCH  10  16
ENDBRANCH   9  10
ENDBRANCH   8   9
ENDBRANCH   1   8
BRANCH   4  19
ATOM     19  C   UNL     1      45.197   6.775  11.277  0.00  0.00    +0.000 C 
BRANCH  19  20
ATOM     20  N   UNL     1      45.438   5.485  10.679  0.00  0.00    +0.000 N 
ATOM     21  C   UNL     1      44.393   4.741  10.162  0.00  0.00    +0.000 C 
ATOM     22  O   UNL     1      43.230   5.115  10.184  0.00  0.00    +0.000 OA
ATOM     23  H   UNL     1      46.376   5.245  10.398  0.00  0.00    +0.000 HD
BRANCH  21  24
ATOM     24  C   UNL     1      44.812   3.476   9.556  0.00  0.00    +0.000 A 
ATOM     25  C   UNL     1      44.365   2.216   9.926  0.00  0.00    +0.000 A 
ATOM     26  N   UNL     1      44.967   1.286   9.119  0.00  0.00    +0.000 N 
ATOM     27  C   UNL     1      45.810   1.910   8.244  0.00  0.00    +0.000 A 
ATOM     28  N   UNL     1      46.570   1.260   7.345  0.00  0.00    +0.000 NA
ATOM     29  C   UNL     1      47.326   2.095   6.596  0.00  0.00    +0.000 A 
ATOM     30  C   UNL     1      47.346   3.478   6.700  0.00  0.00    +0.000 A 
ATOM     31  C   UNL     1      46.528   4.100   7.648  0.00  0.00    +0.000 A 
ATOM     32  C   UNL     1      45.727   3.281   8.467  0.00  0.00    +0.000 A 
ATOM     33  H   UNL     1      44.836   0.283   9.143  0.00  0.00    +0.000 HD
ENDBRANCH  21  24
ENDBRANCH  19  20
ENDBRANCH   4  19
TORSDOF 8
ENDMDL
MODEL 8
REMARK VINA RESULT:    -6.528      4.614      9.446
REMARK INTER + INTRA:         -10.469
REMARK INTER:                  -8.842
REMARK INTRA:                  -1.627
REMARK UNBOUND:                -0.888
REMARK  Name = 
REMARK  9 active torsions:
REMARK  status: ('A' for Active; 'I' for Inactive)
REMARK    1  A    between atoms: C_1  and  O_2
REMARK    2  A    between atoms: O_2  and  C_3
REMARK    3  A    between atoms: C_8  and  C_9
REMARK    4  A    between atoms: C_9  and  C_10
REMARK    5  A    between atoms: C_10  and  O_11
REMARK    6  A    between atoms: O_11  and  C_12
REMARK    7  A    between atoms: C_15  and  C_16
REMARK    8  A    between atoms: C_16  and  N_17
REMARK    9  A    between atoms: C_18  and  C_20
REMARK                            x       y       z     vdW  Elec       q    Type
REMARK                         _______ _______ _______ _____ _____    ______ ____
ROOT
ATOM      1  C   UNL     1      50.793   7.590  17.721  0.00  0.00    +0.000 A 
ATOM      2  C   UNL     1      49.682   8.441  17.800  0.00  0.00    +0.000 A 
ATOM      3  C   UNL     1      48.896   8.716  16.677  0.00  0.00    +0.000 A 
ATOM      4  C   UNL     1      49.191   8.143  15.436  0.00  0.00    +0.000 A 
ATOM      5  C   UNL     1      50.319   7.317  15.337  0.00  0.00    +0.000 A 
ATOM      6  C   UNL     1      51.102   7.041  16.469  0.00  0.00    +0.000 A 
ATOM      7  F   UNL     1      52.154   6.218  16.330  0.00  0.00    +0.000 F 
ENDROOT
BRANCH   1   8
ATOM      8  O   UNL     1      51.594   7.260  18.796  0.00  0.00    +0.000 OA
BRANCH   8   9
ATOM      9  C   UNL     1      50.874   6.939  20.000  0.00  0.00    +0.000 C 
BRANCH   9  10
ATOM     10  C   UNL     1      50.983   5.462  20.385  0.00  0.00    +0.000 C 
BRANCH  10  16
ATOM     11  C   UNL     1      49.075   4.277  19.103  0.00  0.00    +0.000 A 
ATOM     12  C   UNL     1      48.670   3.366  18.117  0.00  0.00    +0.000 A 
ATOM     13  C   UNL     1      49.608   2.723  17.310  0.00  0.00    +0.000 A 
ATOM     14  C   UNL     1      50.960   2.999  17.469  0.00  0.00    +0.000 A 
ATOM     15  C   UNL     1      51.377   3.896  18.455  0.00  0.00    +0.000 A 
ATOM     16  C   UNL     1      50.450   4.539  19.296  0.00  0.00    +0.000 A 
BRANCH  11  18
ATOM     17  C   UNL     1      47.359   5.924  19.214  0.00  0.00    +0.000 C 
ATOM     18  O   UNL     1      48.190   4.978  19.884  0.00  0.00    +0.000 OA
ENDBRANCH  11  18
ENDBRANCH  10  16
ENDBRANCH   9  10
ENDBRANCH   8   9
ENDBRANCH   1   8
BRANCH   4  19
ATOM     19  C   UNL     1      48.293   8.407  14.252  0.00  0.00    +0.000 C 
BRANCH  19  20
ATOM     20  N   UNL     1      47.381   7.319  14.002  0.00  0.00    +0.000 N 
ATOM     21  C   UNL     1      47.717   6.304  13.124  0.00  0.00    +0.000 C 
ATOM     22  O   UNL     1      48.775   6.269  12.515  0.00  0.00    +0.000 OA
ATOM     23  H   UNL     1      46.628   7.153  14.652  0.00  0.00    +0.000 HD
BRANCH  21  24
ATOM     24  C   UNL     1      46.700   5.257  13.014  0.00  0.00    +0.000 A 
ATOM     25  C   UNL     1      46.836   3.949  13.459  0.00  0.00    +0.000 A 
ATOM     26  N   UNL     1      45.671   3.278  13.198  0.00  0.00    +0.000 N 
ATOM     27  C   UNL     1      44.785   4.111  12.578  0.00  0.00    +0.000 A 
ATOM     28  N   UNL     1      43.562   3.732  12.167  0.00  0.00    +0.000 NA
ATOM     29  C   UNL     1      42.874   4.735  11.574  0.00  0.00    +0.000 A 
ATOM     30  C   UNL     1      43.331   6.032  11.394  0.00  0.00    +0.000 A 
ATOM     31  C   UNL     1      44.608   6.371  11.851  0.00  0.00    +0.000 A 
ATOM     32  C   UNL     1      45.378   5.366  12.464  0.00  0.00    +0.000 A 
ATOM     33  H   UNL     1      45.465   2.310  13.412  0.00  0.00    +0.000 HD
ENDBRANCH  21  24
ENDBRANCH  19  20
ENDBRANCH   4  19
TORSDOF 8
ENDMDL
MODEL 9
REMARK VINA RESULT:    -6.450      4.053      9.873
REMARK INTER + INTRA:         -10.355
REMARK INTER:                  -9.180
REMARK INTRA:                  -1.175
REMARK UNBOUND:                -0.888
REMARK  Name = 
REMARK  9 active torsions:
REMARK  status: ('A' for Active; 'I' for Inactive)
REMARK    1  A    between atoms: C_1  and  O_2
REMARK    2  A    between atoms: O_2  and  C_3
REMARK    3  A    between atoms: C_8  and  C_9
REMARK    4  A    between atoms: C_9  and  C_10
REMARK    5  A    between atoms: C_10  and  O_11
REMARK    6  A    between atoms: O_11  and  C_12
REMARK    7  A    between atoms: C_15  and  C_16
REMARK    8  A    between atoms: C_16  and  N_17
REMARK    9  A    between atoms: C_18  and  C_20
REMARK                            x       y       z     vdW  Elec       q    Type
REMARK                         _______ _______ _______ _____ _____    ______ ____
ROOT
ATOM      1  C   UNL     1      49.096   9.180  12.549  0.00  0.00    +0.000 A 
ATOM      2  C   UNL     1      48.027  10.065  12.740  0.00  0.00    +0.000 A 
ATOM      3  C   UNL     1      46.706   9.670  12.509  0.00  0.00    +0.000 A 
ATOM      4  C   UNL     1      46.409   8.371  12.083  0.00  0.00    +0.000 A 
ATOM      5  C   UNL     1      47.473   7.487  11.857  0.00  0.00    +0.000 A 
ATOM      6  C   UNL     1      48.796   7.888  12.095  0.00  0.00    +0.000 A 
ATOM      7  F   UNL     1      49.779   6.995  11.893  0.00  0.00    +0.000 F 
ENDROOT
BRANCH   1   8
ATOM      8  O   UNL     1      50.419   9.501  12.782  0.00  0.00    +0.000 OA
BRANCH   8   9
ATOM      9  C   UNL     1      51.008   8.823  13.906  0.00  0.00    +0.000 C 
BRANCH   9  10
ATOM     10  C   UNL     1      50.560   9.398  15.252  0.00  0.00    +0.000 C 
BRANCH  10  16
ATOM     11  C   UNL     1      49.187   8.690  17.326  0.00  0.00    +0.000 A 
ATOM     12  C   UNL     1      48.557   7.680  18.067  0.00  0.00    +0.000 A 
ATOM     13  C   UNL     1      48.512   6.369  17.593  0.00  0.00    +0.000 A 
ATOM     14  C   UNL     1      49.081   6.059  16.365  0.00  0.00    +0.000 A 
ATOM     15  C   UNL     1      49.720   7.054  15.622  0.00  0.00    +0.000 A 
ATOM     16  C   UNL     1      49.798   8.379  16.091  0.00  0.00    +0.000 A 
BRANCH  11  18
ATOM     17  C   UNL     1      47.961  10.694  17.715  0.00  0.00    +0.000 C 
ATOM     18  O   UNL     1      49.210  10.005  17.721  0.00  0.00    +0.000 OA
ENDBRANCH  11  18
ENDBRANCH  10  16
ENDBRANCH   9  10
ENDBRANCH   8   9
ENDBRANCH   1   8
BRANCH   4  19
ATOM     19  C   UNL     1      44.971   7.949  11.899  0.00  0.00    +0.000 C 
BRANCH  19  20
ATOM     20  N   UNL     1      44.854   6.596  11.415  0.00  0.00    +0.000 N 
ATOM     21  C   UNL     1      44.296   5.610  12.208  0.00  0.00    +0.000 C 
ATOM     22  O   UNL     1      43.884   5.814  13.340  0.00  0.00    +0.000 OA
ATOM     23  H   UNL     1      44.927   6.423  10.424  0.00  0.00    +0.000 HD
BRANCH  21  24
ATOM     24  C   UNL     1      44.214   4.302  11.555  0.00  0.00    +0.000 A 
ATOM     25  C   UNL     1      43.596   3.175  12.078  0.00  0.00    +0.000 A 
ATOM     26  N   UNL     1      43.709   2.156  11.170  0.00  0.00    +0.000 N 
ATOM     27  C   UNL     1      44.402   2.586  10.075  0.00  0.00    +0.000 A 
ATOM     28  N   UNL     1      44.704   1.803   9.024  0.00  0.00    +0.000 NA
ATOM     29  C   UNL     1      45.402   2.456   8.066  0.00  0.00    +0.000 A 
ATOM     30  C   UNL     1      45.781   3.789   8.112  0.00  0.00    +0.000 A 
ATOM     31  C   UNL     1      45.432   4.558   9.227  0.00  0.00    +0.000 A 
ATOM     32  C   UNL     1      44.717   3.929  10.263  0.00  0.00    +0.000 A 
ATOM     33  H   UNL     1      43.353   1.213  11.265  0.00  0.00    +0.000 HD
ENDBRANCH  21  24
ENDBRANCH  19  20
ENDBRANCH   4  19
TORSDOF 8
ENDMDL
