MODEL 1
REMARK VINA RESULT:    -7.316      0.000      0.000
REMARK INTER + INTRA:         -13.086
REMARK INTER:                 -11.807
REMARK INTRA:                  -1.279
REMARK UNBOUND:                -1.279
REMARK  Name = 
REMARK  11 active torsions:
REMARK  status: ('A' for Active; 'I' for Inactive)
REMARK    1  A    between atoms: C_2  and  O_3
REMARK    2  A    between atoms: C_2  and  C_15
REMARK    3  A    between atoms: O_3  and  C_4
REMARK    4  A    between atoms: C_4  and  C_5
REMARK    5  A    between atoms: N_8  and  C_9
REMARK    6  A    between atoms: C_9  and  C_10
REMARK    7  A    between atoms: C_10  and  C_11
REMARK    8  A    between atoms: C_11  and  O_12
REMARK    9  A    between atoms: C_18  and  C_19
REMARK   10  A    between atoms: C_19  and  N_20
REMARK   11  A    between atoms: C_21  and  C_23
REMARK                            x       y       z     vdW  Elec       q    Type
REMARK                         _______ _______ _______ _____ _____    ______ ____
ROOT
ATOM      1  C   UNL     1      47.410   6.044  13.325  0.00  0.00    +0.000 A 
ATOM      2  C   UNL     1      48.379   6.366  14.284  0.00  0.00    +0.000 A 
ATOM      3  C   UNL     1      49.413   7.258  13.970  0.00  0.00    +0.000 A 
ATOM      4  C   UNL     1      49.485   7.846  12.698  0.00  0.00    +0.000 A 
ATOM      5  C   UNL     1      48.525   7.502  11.738  0.00  0.00    +0.000 A 
ATOM      6  C   UNL     1      47.490   6.621  12.052  0.00  0.00    +0.000 A 
ENDROOT
BRANCH   1   8
ATOM      7  O   UNL     1      46.443   4.290  14.636  0.00  0.00    +0.000 OA
ATOM      8  C   UNL     1      46.384   5.015  13.656  0.00  0.00    +0.000 C 
BRANCH   8   9
ATOM      9  O   UNL     1      45.472   4.937  12.654  0.00  0.00    +0.000 OA
BRANCH   9  10
ATOM     10  C   UNL     1      45.246   3.637  12.093  0.00  0.00    +0.000 C 
BRANCH  10  11
ATOM     11  C   UNL     1      44.137   3.649  11.032  0.00  0.00    +0.000 C 
ATOM     12  C   UNL     1      44.225   2.461  10.073  0.00  0.00    +0.000 C 
ATOM     13  C   UNL     1      45.441   2.556   9.151  0.00  0.00    +0.000 C 
ATOM     14  N   UNL     1      45.455   3.821   8.393  0.00  0.00    +0.000 NA
ATOM     15  C   UNL     1      45.409   4.991   9.281  0.00  0.00    +0.000 C 
ATOM     16  C   UNL     1      44.191   4.945  10.210  0.00  0.00    +0.000 C 
BRANCH  14  17
ATOM     17  C   UNL     1      46.624   3.902   7.500  0.00  0.00    +0.000 C 
BRANCH  17  18
ATOM     18  C   UNL     1      46.642   2.835   6.400  0.00  0.00    +0.000 C 
BRANCH  18  19
ATOM     19  C   UNL     1      47.743   1.802   6.607  0.00  0.00    +0.000 C 
BRANCH  19  20
ATOM     20  O   UNL     1      48.620   1.795   5.485  0.00  0.00    +0.000 OA
ATOM     21  H   UNL     1      48.178   1.302   4.772  0.00  0.00    +0.000 HD
ENDBRANCH  19  20
ENDBRANCH  18  19
ENDBRANCH  17  18
ENDBRANCH  14  17
ENDBRANCH  10  11
ENDBRANCH   9  10
ENDBRANCH   8   9
ENDBRANCH   1   8
BRANCH   4  22
ATOM     22  C   UNL     1      50.573   8.829  12.349  0.00  0.00    +0.000 C 
BRANCH  22  23
ATOM     23  N   UNL     1      51.071   8.639  11.012  0.00  0.00    +0.000 N 
ATOM     24  C   UNL     1      52.386   8.391  10.724  0.00  0.00    +0.000 C 
ATOM     25  O   UNL     1      53.239   8.276  11.599  0.00  0.00    +0.000 OA
ATOM     26  H   UNL     1      50.425   8.855  10.257  0.00  0.00    +0.000 HD
BRANCH  24  27
ATOM     27  C   UNL     1      52.720   8.209   9.302  0.00  0.00    +0.000 A 
ATOM     28  C   UNL     1      52.585   9.274   8.422  0.00  0.00    +0.000 A 
ATOM     29  S   UNL     1      52.995   8.887   6.811  0.00  0.00    +0.000 S 
ATOM     30  C   UNL     1      53.343   7.276   7.231  0.00  0.00    +0.000 A 
ATOM     31  N   UNL     1      53.724   6.375   6.284  0.00  0.00    +0.000 NA
ATOM     32  C   UNL     1      53.931   5.183   6.733  0.00  0.00    +0.000 A 
ATOM     33  N   UNL     1      53.807   4.812   8.048  0.00  0.00    +0.000 N 
ATOM     34  C   UNL     1      53.493   5.702   9.043  0.00  0.00    +0.000 A 
ATOM     35  O   UNL     1      53.519   5.363  10.225  0.00  0.00    +0.000 OA
ATOM     36  C   UNL     1      53.190   7.044   8.585  0.00  0.00    +0.000 A 
ATOM     37  H   UNL     1      54.023   3.870   8.340  0.00  0.00    +0.000 HD
ENDBRANCH  24  27
ENDBRANCH  22  23
ENDBRANCH   4  22
TORSDOF 11
ENDMDL
MODEL 2
REMARK VINA RESULT:    -7.210      4.005      5.283
REMARK INTER + INTRA:         -12.915
REMARK INTER:                 -11.560
REMARK INTRA:                  -1.354
REMARK UNBOUND:                -1.279
REMARK  Name = 
REMARK  11 active torsions:
REMARK  status: ('A' for Active; 'I' for Inactive)
REMARK    1  A    between atoms: C_2  and  O_3
REMARK    2  A    between atoms: C_2  and  C_15
REMARK    3  A    between atoms: O_3  and  C_4
REMARK    4  A    between atoms: C_4  and  C_5
REMARK    5  A    between atoms: N_8  and  C_9
REMARK    6  A    between atoms: C_9  and  C_10
REMARK    7  A    between atoms: C_10  and  C_11
REMARK    8  A    between atoms: C_11  and  O_12
REMARK    9  A    between atoms: C_18  and  C_19
REMARK   10  A    between atoms: C_19  and  N_20
REMARK   11  A    between atoms: C_21  and  C_23
REMARK                            x       y       z     vdW  Elec       q    Type
REMARK                         _______ _______ _______ _____ _____    ______ ____
ROOT
ATOM      1  C   UNL     1      47.245   5.468  13.628  0.00  0.00    +0.000 A 
ATOM      2  C   UNL     1      48.058   6.045  14.613  0.00  0.00    +0.000 A 
ATOM      3  C   UNL     1      48.646   7.298  14.396  0.00  0.00    +0.000 A 
ATOM      4  C   UNL     1      48.422   7.994  13.198  0.00  0.00    +0.000 A 
ATOM      5  C   UNL     1      47.626   7.401  12.211  0.00  0.00    +0.000 A 
ATOM      6  C   UNL     1      47.032   6.158  12.428  0.00  0.00    +0.000 A 
ENDROOT
BRANCH   1   8
ATOM      7  O   UNL     1      47.347   3.204  14.399  0.00  0.00    +0.000 OA
ATOM      8  C   UNL     1      46.718   4.092  13.846  0.00  0.00    +0.000 C 
BRANCH   8   9
ATOM      9  O   UNL     1      45.513   3.960  13.235  0.00  0.00    +0.000 OA
BRANCH   9  10
ATOM     10  C   UNL     1      45.483   3.165  12.042  0.00  0.00    +0.000 C 
BRANCH  10  11
ATOM     11  C   UNL     1      44.261   3.480  11.167  0.00  0.00    +0.000 C 
ATOM     12  C   UNL     1      44.042   2.442  10.065  0.00  0.00    +0.000 C 
ATOM     13  C   UNL     1      45.130   2.505   8.992  0.00  0.00    +0.000 C 
ATOM     14  N   UNL     1      45.240   3.852   8.404  0.00  0.00    +0.000 NA
ATOM     15  C   UNL     1      45.490   4.877   9.428  0.00  0.00    +0.000 C 
ATOM     16  C   UNL     1      44.408   4.861  10.514  0.00  0.00    +0.000 C 
BRANCH  14  17
ATOM     17  C   UNL     1      46.283   3.904   7.365  0.00  0.00    +0.000 C 
BRANCH  17  18
ATOM     18  C   UNL     1      46.564   2.552   6.697  0.00  0.00    +0.000 C 
BRANCH  18  19
ATOM     19  C   UNL     1      48.023   2.132   6.821  0.00  0.00    +0.000 C 
BRANCH  19  20
ATOM     20  O   UNL     1      48.534   1.768   5.543  0.00  0.00    +0.000 OA
ATOM     21  H   UNL     1      49.479   1.566   5.653  0.00  0.00    +0.000 HD
ENDBRANCH  19  20
ENDBRANCH  18  19
ENDBRANCH  17  18
ENDBRANCH  14  17
ENDBRANCH  10  11
ENDBRANCH   9  10
ENDBRANCH   8   9
ENDBRANCH   1   8
BRANCH   4  22
ATOM     22  C   UNL     1      49.023   9.355  12.958  0.00  0.00    +0.000 C 
BRANCH  22  23
ATOM     23  N   UNL     1      48.441  10.013  11.818  0.00  0.00    +0.000 N 
ATOM     24  C   UNL     1      48.736  11.300  11.457  0.00  0.00    +0.000 C 
ATOM     25  O   UNL     1      49.554  11.982  12.067  0.00  0.00    +0.000 OA
ATOM     26  H   UNL     1      47.666   9.532  11.368  0.00  0.00    +0.000 HD
BRANCH  24  27
ATOM     27  C   UNL     1      48.059  11.813  10.255  0.00  0.00    +0.000 A 
ATOM     28  C   UNL     1      48.811  12.216   9.160  0.00  0.00    +0.000 A 
ATOM     29  S   UNL     1      47.872  12.802   7.862  0.00  0.00    +0.000 S 
ATOM     30  C   UNL     1      46.428  12.562   8.728  0.00  0.00    +0.000 A 
ATOM     31  N   UNL     1      45.225  12.904   8.190  0.00  0.00    +0.000 NA
ATOM     32  C   UNL     1      44.214  12.693   8.963  0.00  0.00    +0.000 A 
ATOM     33  N   UNL     1      44.294  12.156  10.223  0.00  0.00    +0.000 N 
ATOM     34  C   UNL     1      45.476  11.735  10.776  0.00  0.00    +0.000 A 
ATOM     35  O   UNL     1      45.493  11.139  11.852  0.00  0.00    +0.000 OA
ATOM     36  C   UNL     1      46.654  12.004   9.973  0.00  0.00    +0.000 A 
ATOM     37  H   UNL     1      43.458  11.980  10.762  0.00  0.00    +0.000 HD
ENDBRANCH  24  27
ENDBRANCH  22  23
ENDBRANCH   4  22
TORSDOF 11
ENDMDL
MODEL 3
REMARK VINA RESULT:    -7.073      5.855      7.393
REMARK INTER + INTRA:         -12.693
REMARK INTER:                 -11.346
REMARK INTRA:                  -1.347
REMARK UNBOUND:                -1.279
REMARK  Name = 
REMARK  11 active torsions:
REMARK  status: ('A' for Active; 'I' for Inactive)
REMARK    1  A    between atoms: C_2  and  O_3
REMARK    2  A    between atoms: C_2  and  C_15
REMARK    3  A    between atoms: O_3  and  C_4
REMARK    4  A    between atoms: C_4  and  C_5
REMARK    5  A    between atoms: N_8  and  C_9
REMARK    6  A    between atoms: C_9  and  C_10
REMARK    7  A    between atoms: C_10  and  C_11
REMARK    8  A    between atoms: C_11  and  O_12
REMARK    9  A    between atoms: C_18  and  C_19
REMARK   10  A    between atoms: C_19  and  N_20
REMARK   11  A    between atoms: C_21  and  C_23
REMARK                            x       y       z     vdW  Elec       q    Type
REMARK                         _______ _______ _______ _____ _____    ______ ____
ROOT
ATOM      1  C   UNL     1      47.521   4.946  15.288  0.00  0.00    +0.000 A 
ATOM      2  C   UNL     1      47.323   3.814  16.090  0.00  0.00    +0.000 A 
ATOM      3  C   UNL     1      47.896   3.745  17.366  0.00  0.00    +0.000 A 
ATOM      4  C   UNL     1      48.664   4.811  17.861  0.00  0.00    +0.000 A 
ATOM      5  C   UNL     1      48.874   5.929  17.046  0.00  0.00    +0.000 A 
ATOM      6  C   UNL     1      48.298   6.003  15.777  0.00  0.00    +0.000 A 
ENDROOT
BRANCH   1   8
ATOM      7  O   UNL     1      47.597   5.379  12.935  0.00  0.00    +0.000 OA
ATOM      8  C   UNL     1      46.985   4.945  13.897  0.00  0.00    +0.000 C 
BRANCH   8   9
ATOM      9  O   UNL     1      45.698   4.512  13.902  0.00  0.00    +0.000 OA
BRANCH   9  10
ATOM     10  C   UNL     1      44.757   5.293  13.153  0.00  0.00    +0.000 C 
BRANCH  10  11
ATOM     11  C   UNL     1      43.522   4.477  12.745  0.00  0.00    +0.000 C 
ATOM     12  C   UNL     1      43.850   3.007  12.477  0.00  0.00    +0.000 C 
ATOM     13  C   UNL     1      44.687   2.827  11.211  0.00  0.00    +0.000 C 
ATOM     14  N   UNL     1      44.032   3.422  10.032  0.00  0.00    +0.000 NA
ATOM     15  C   UNL     1      43.733   4.847  10.235  0.00  0.00    +0.000 C 
ATOM     16  C   UNL     1      42.876   5.070  11.485  0.00  0.00    +0.000 C 
BRANCH  14  17
ATOM     17  C   UNL     1      44.839   3.237   8.814  0.00  0.00    +0.000 C 
BRANCH  17  18
ATOM     18  C   UNL     1      45.599   1.906   8.768  0.00  0.00    +0.000 C 
BRANCH  18  19
ATOM     19  C   UNL     1      46.636   1.865   7.653  0.00  0.00    +0.000 C 
BRANCH  19  20
ATOM     20  O   UNL     1      47.044   0.521   7.416  0.00  0.00    +0.000 OA
ATOM     21  H   UNL     1      46.274   0.039   7.070  0.00  0.00    +0.000 HD
ENDBRANCH  19  20
ENDBRANCH  18  19
ENDBRANCH  17  18
ENDBRANCH  14  17
ENDBRANCH  10  11
ENDBRANCH   9  10
ENDBRANCH   8   9
ENDBRANCH   1   8
BRANCH   4  22
ATOM     22  C   UNL     1      49.265   4.769  19.242  0.00  0.00    +0.000 C 
BRANCH  22  23
ATOM     23  N   UNL     1      50.469   3.981  19.289  0.00  0.00    +0.000 N 
ATOM     24  C   UNL     1      51.712   4.485  19.014  0.00  0.00    +0.000 C 
ATOM     25  O   UNL     1      51.895   5.667  18.740  0.00  0.00    +0.000 OA
ATOM     26  H   UNL     1      50.346   2.976  19.382  0.00  0.00    +0.000 HD
BRANCH  24  27
ATOM     27  C   UNL     1      52.837   3.543  19.120  0.00  0.00    +0.000 A 
ATOM     28  C   UNL     1      53.921   3.853  19.931  0.00  0.00    +0.000 A 
ATOM     29  S   UNL     1      55.144   2.664  19.923  0.00  0.00    +0.000 S 
ATOM     30  C   UNL     1      54.279   1.704  18.817  0.00  0.00    +0.000 A 
ATOM     31  N   UNL     1      54.796   0.533  18.355  0.00  0.00    +0.000 NA
ATOM     32  C   UNL     1      54.048  -0.082  17.502  0.00  0.00    +0.000 A 
ATOM     33  N   UNL     1      52.820   0.360  17.080  0.00  0.00    +0.000 N 
ATOM     34  C   UNL     1      52.232   1.497  17.571  0.00  0.00    +0.000 A 
ATOM     35  O   UNL     1      51.077   1.793  17.269  0.00  0.00    +0.000 OA
ATOM     36  C   UNL     1      53.056   2.261  18.489  0.00  0.00    +0.000 A 
ATOM     37  H   UNL     1      52.267  -0.191  16.439  0.00  0.00    +0.000 HD
ENDBRANCH  24  27
ENDBRANCH  22  23
ENDBRANCH   4  22
TORSDOF 11
ENDMDL
MODEL 4
REMARK VINA RESULT:    -6.986      1.784      2.138
REMARK INTER + INTRA:         -12.554
REMARK INTER:                 -10.870
REMARK INTRA:                  -1.684
REMARK UNBOUND:                -1.279
REMARK  Name = 
REMARK  11 active torsions:
REMARK  status: ('A' for Active; 'I' for Inactive)
REMARK    1  A    between atoms: C_2  and  O_3
REMARK    2  A    between atoms: C_2  and  C_15
REMARK    3  A    between atoms: O_3  and  C_4
REMARK    4  A    between atoms: C_4  and  C_5
REMARK    5  A    between atoms: N_8  and  C_9
REMARK    6  A    between atoms: C_9  and  C_10
REMARK    7  A    between atoms: C_10  and  C_11
REMARK    8  A    between atoms: C_11  and  O_12
REMARK    9  A    between atoms: C_18  and  C_19
REMARK   10  A    between atoms: C_19  and  N_20
REMARK   11  A    between atoms: C_21  and  C_23
REMARK                            x       y       z     vdW  Elec       q    Type
REMARK                         _______ _______ _______ _____ _____    ______ ____
ROOT
ATOM      1  C   UNL     1      47.022   5.600  13.318  0.00  0.00    +0.000 A 
ATOM      2  C   UNL     1      47.751   6.106  14.403  0.00  0.00    +0.000 A 
ATOM      3  C   UNL     1      48.307   7.390  14.342  0.00  0.00    +0.000 A 
ATOM      4  C   UNL     1      48.132   8.189  13.201  0.00  0.00    +0.000 A 
ATOM      5  C   UNL     1      47.420   7.669  12.114  0.00  0.00    +0.000 A 
ATOM      6  C   UNL     1      46.859   6.393  12.176  0.00  0.00    +0.000 A 
ENDROOT
BRANCH   1   8
ATOM      7  O   UNL     1      47.153   3.279  13.889  0.00  0.00    +0.000 OA
ATOM      8  C   UNL     1      46.532   4.194  13.373  0.00  0.00    +0.000 C 
BRANCH   8   9
ATOM      9  O   UNL     1      45.378   4.083  12.667  0.00  0.00    +0.000 OA
BRANCH   9  10
ATOM     10  C   UNL     1      45.276   2.961  11.778  0.00  0.00    +0.000 C 
BRANCH  10  11
ATOM     11  C   UNL     1      44.168   3.150  10.733  0.00  0.00    +0.000 C 
ATOM     12  C   UNL     1      44.235   2.113   9.610  0.00  0.00    +0.000 C 
ATOM     13  C   UNL     1      45.454   2.319   8.710  0.00  0.00    +0.000 C 
ATOM     14  N   UNL     1      45.493   3.680   8.145  0.00  0.00    +0.000 NA
ATOM     15  C   UNL     1      45.468   4.709   9.195  0.00  0.00    +0.000 C 
ATOM     16  C   UNL     1      44.248   4.550  10.109  0.00  0.00    +0.000 C 
BRANCH  14  17
ATOM     17  C   UNL     1      46.664   3.869   7.271  0.00  0.00    +0.000 C 
BRANCH  17  18
ATOM     18  C   UNL     1      46.585   3.096   5.950  0.00  0.00    +0.000 C 
BRANCH  18  19
ATOM     19  C   UNL     1      47.752   2.134   5.766  0.00  0.00    +0.000 C 
BRANCH  19  20
ATOM     20  O   UNL     1      48.896   2.621   6.460  0.00  0.00    +0.000 OA
ATOM     21  H   UNL     1      49.057   2.025   7.212  0.00  0.00    +0.000 HD
ENDBRANCH  19  20
ENDBRANCH  18  19
ENDBRANCH  17  18
ENDBRANCH  14  17
ENDBRANCH  10  11
ENDBRANCH   9  10
ENDBRANCH   8   9
ENDBRANCH   1   8
BRANCH   4  22
ATOM     22  C   UNL     1      48.698   9.584  13.127  0.00  0.00    +0.000 C 
BRANCH  22  23
ATOM     23  N   UNL     1      49.901   9.642  12.340  0.00  0.00    +0.000 N 
ATOM     24  C   UNL     1      50.003  10.335  11.164  0.00  0.00    +0.000 C 
ATOM     25  O   UNL     1      49.072  10.994  10.708  0.00  0.00    +0.000 OA
ATOM     26  H   UNL     1      50.648   9.008  12.614  0.00  0.00    +0.000 HD
BRANCH  24  27
ATOM     27  C   UNL     1      51.312  10.299  10.495  0.00  0.00    +0.000 A 
ATOM     28  C   UNL     1      51.917  11.484  10.099  0.00  0.00    +0.000 A 
ATOM     29  S   UNL     1      53.419  11.260   9.321  0.00  0.00    +0.000 S 
ATOM     30  C   UNL     1      53.301   9.569   9.463  0.00  0.00    +0.000 A 
ATOM     31  N   UNL     1      54.267   8.757   8.954  0.00  0.00    +0.000 NA
ATOM     32  C   UNL     1      54.041   7.496   9.108  0.00  0.00    +0.000 A 
ATOM     33  N   UNL     1      52.943   6.972   9.740  0.00  0.00    +0.000 N 
ATOM     34  C   UNL     1      51.981   7.754  10.327  0.00  0.00    +0.000 A 
ATOM     35  O   UNL     1      51.081   7.252  10.997  0.00  0.00    +0.000 OA
ATOM     36  C   UNL     1      52.155   9.181  10.131  0.00  0.00    +0.000 A 
ATOM     37  H   UNL     1      52.846   5.974   9.862  0.00  0.00    +0.000 HD
ENDBRANCH  24  27
ENDBRANCH  22  23
ENDBRANCH   4  22
TORSDOF 11
ENDMDL
MODEL 5
REMARK VINA RESULT:    -6.877      6.194     10.393
REMARK INTER + INTRA:         -12.378
REMARK INTER:                 -10.202
REMARK INTRA:                  -2.175
REMARK UNBOUND:                -1.279
REMARK  Name = 
REMARK  11 active torsions:
REMARK  status: ('A' for Active; 'I' for Inactive)
REMARK    1  A    between atoms: C_2  and  O_3
REMARK    2  A    between atoms: C_2  and  C_15
REMARK    3  A    between atoms: O_3  and  C_4
REMARK    4  A    between atoms: C_4  and  C_5
REMARK    5  A    between atoms: N_8  and  C_9
REMARK    6  A    between atoms: C_9  and  C_10
REMARK    7  A    between atoms: C_10  and  C_11
REMARK    8  A    between atoms: C_11  and  O_12
REMARK    9  A    between atoms: C_18  and  C_19
REMARK   10  A    between atoms: C_19  and  N_20
REMARK   11  A    between atoms: C_21  and  C_23
REMARK                            x       y       z     vdW  Elec       q    Type
REMARK                         _______ _______ _______ _____ _____    ______ ____
ROOT
ATOM      1  C   UNL     1      51.385   4.869  17.567  0.00  0.00    +0.000 A 
ATOM      2  C   UNL     1      51.043   3.522  17.741  0.00  0.00    +0.000 A 
ATOM      3  C   UNL     1      49.748   3.079  17.442  0.00  0.00    +0.000 A 
ATOM      4  C   UNL     1      48.783   3.975  16.955  0.00  0.00    +0.000 A 
ATOM      5  C   UNL     1      49.126   5.323  16.803  0.00  0.00    +0.000 A 
ATOM      6  C   UNL     1      50.418   5.764  17.092  0.00  0.00    +0.000 A 
ENDROOT
BRANCH   1   8
ATOM      7  O   UNL     1      53.607   5.686  17.212  0.00  0.00    +0.000 OA
ATOM      8  C   UNL     1      52.738   5.329  17.990  0.00  0.00    +0.000 C 
BRANCH   8   9
ATOM      9  O   UNL     1      52.878   5.168  19.331  0.00  0.00    +0.000 OA
BRANCH   9  10
ATOM     10  C   UNL     1      52.530   6.292  20.151  0.00  0.00    +0.000 C 
BRANCH  10  11
ATOM     11  C   UNL     1      51.803   5.868  21.435  0.00  0.00    +0.000 C 
ATOM     12  C   UNL     1      50.533   5.063  21.156  0.00  0.00    +0.000 C 
ATOM     13  C   UNL     1      49.434   5.923  20.530  0.00  0.00    +0.000 C 
ATOM     14  N   UNL     1      49.117   7.097  21.363  0.00  0.00    +0.000 NA
ATOM     15  C   UNL     1      50.306   7.920  21.625  0.00  0.00    +0.000 C 
ATOM     16  C   UNL     1      51.427   7.099  22.273  0.00  0.00    +0.000 C 
BRANCH  14  17
ATOM     17  C   UNL     1      48.051   7.916  20.760  0.00  0.00    +0.000 C 
BRANCH  17  18
ATOM     18  C   UNL     1      47.818   7.633  19.271  0.00  0.00    +0.000 C 
BRANCH  18  19
ATOM     19  C   UNL     1      47.936   8.887  18.413  0.00  0.00    +0.000 C 
BRANCH  19  20
ATOM     20  O   UNL     1      47.742   8.558  17.041  0.00  0.00    +0.000 OA
ATOM     21  H   UNL     1      46.883   8.108  16.968  0.00  0.00    +0.000 HD
ENDBRANCH  19  20
ENDBRANCH  18  19
ENDBRANCH  17  18
ENDBRANCH  14  17
ENDBRANCH  10  11
ENDBRANCH   9  10
ENDBRANCH   8   9
ENDBRANCH   1   8
BRANCH   4  22
ATOM     22  C   UNL     1      47.393   3.512  16.600  0.00  0.00    +0.000 C 
BRANCH  22  23
ATOM     23  N   UNL     1      46.752   4.389  15.656  0.00  0.00    +0.000 N 
ATOM     24  C   UNL     1      46.748   4.171  14.305  0.00  0.00    +0.000 C 
ATOM     25  O   UNL     1      47.267   3.181  13.799  0.00  0.00    +0.000 OA
ATOM     26  H   UNL     1      46.427   5.282  16.020  0.00  0.00    +0.000 HD
BRANCH  24  27
ATOM     27  C   UNL     1      46.034   5.163  13.485  0.00  0.00    +0.000 A 
ATOM     28  C   UNL     1      46.565   6.436  13.326  0.00  0.00    +0.000 A 
ATOM     29  S   UNL     1      45.602   7.464  12.364  0.00  0.00    +0.000 S 
ATOM     30  C   UNL     1      44.429   6.252  12.147  0.00  0.00    +0.000 A 
ATOM     31  N   UNL     1      43.296   6.496  11.433  0.00  0.00    +0.000 NA
ATOM     32  C   UNL     1      42.479   5.499  11.369  0.00  0.00    +0.000 A 
ATOM     33  N   UNL     1      42.700   4.272  11.941  0.00  0.00    +0.000 N 
ATOM     34  C   UNL     1      43.857   3.962  12.609  0.00  0.00    +0.000 A 
ATOM     35  O   UNL     1      44.076   2.815  12.994  0.00  0.00    +0.000 OA
ATOM     36  C   UNL     1      44.784   5.066  12.764  0.00  0.00    +0.000 A 
ATOM     37  H   UNL     1      42.036   3.520  11.819  0.00  0.00    +0.000 HD
ENDBRANCH  24  27
ENDBRANCH  22  23
ENDBRANCH   4  22
TORSDOF 11
ENDMDL
MODEL 6
REMARK VINA RESULT:    -6.857      4.793      8.631
REMARK INTER + INTRA:         -12.346
REMARK INTER:                 -10.547
REMARK INTRA:                  -1.798
REMARK UNBOUND:                -1.279
REMARK  Name = 
REMARK  11 active torsions:
REMARK  status: ('A' for Active; 'I' for Inactive)
REMARK    1  A    between atoms: C_2  and  O_3
REMARK    2  A    between atoms: C_2  and  C_15
REMARK    3  A    between atoms: O_3  and  C_4
REMARK    4  A    between atoms: C_4  and  C_5
REMARK    5  A    between atoms: N_8  and  C_9
REMARK    6  A    between atoms: C_9  and  C_10
REMARK    7  A    between atoms: C_10  and  C_11
REMARK    8  A    between atoms: C_11  and  O_12
REMARK    9  A    between atoms: C_18  and  C_19
REMARK   10  A    between atoms: C_19  and  N_20
REMARK   11  A    between atoms: C_21  and  C_23
REMARK                            x       y       z     vdW  Elec       q    Type
REMARK                         _______ _______ _______ _____ _____    ______ ____
ROOT
ATOM      1  C   UNL     1      49.799   8.313  15.759  0.00  0.00    +0.000 A 
ATOM      2  C   UNL     1      48.487   8.761  15.553  0.00  0.00    +0.000 A 
ATOM      3  C   UNL     1      47.893   8.647  14.290  0.00  0.00    +0.000 A 
ATOM      4  C   UNL     1      48.598   8.075  13.220  0.00  0.00    +0.000 A 
ATOM      5  C   UNL     1      49.915   7.649  13.428  0.00  0.00    +0.000 A 
ATOM      6  C   UNL     1      50.505   7.753  14.688  0.00  0.00    +0.000 A 
ENDROOT
BRANCH   1   8
ATOM      7  O   UNL     1      51.644   8.594  17.257  0.00  0.00    +0.000 OA
ATOM      8  C   UNL     1      50.437   8.540  17.086  0.00  0.00    +0.000 C 
BRANCH   8   9
ATOM      9  O   UNL     1      49.488   8.551  18.056  0.00  0.00    +0.000 OA
BRANCH   9  10
ATOM     10  C   UNL     1      49.721   7.704  19.190  0.00  0.00    +0.000 C 
BRANCH  10  11
ATOM     11  C   UNL     1      48.415   7.142  19.769  0.00  0.00    +0.000 C 
ATOM     12  C   UNL     1      48.649   5.950  20.701  0.00  0.00    +0.000 C 
ATOM     13  C   UNL     1      49.128   4.713  19.941  0.00  0.00    +0.000 C 
ATOM     14  N   UNL     1      48.196   4.337  18.863  0.00  0.00    +0.000 NA
ATOM     15  C   UNL     1      47.973   5.445  17.922  0.00  0.00    +0.000 C 
ATOM     16  C   UNL     1      47.470   6.701  18.642  0.00  0.00    +0.000 C 
BRANCH  14  17
ATOM     17  C   UNL     1      48.659   3.139  18.141  0.00  0.00    +0.000 C 
BRANCH  17  18
ATOM     18  C   UNL     1      50.158   3.147  17.822  0.00  0.00    +0.000 C 
BRANCH  18  19
ATOM     19  C   UNL     1      50.573   1.975  16.941  0.00  0.00    +0.000 C 
BRANCH  19  20
ATOM     20  O   UNL     1      49.555   1.702  15.983  0.00  0.00    +0.000 OA
ATOM     21  H   UNL     1      49.605   0.756  15.765  0.00  0.00    +0.000 HD
ENDBRANCH  19  20
ENDBRANCH  18  19
ENDBRANCH  17  18
ENDBRANCH  14  17
ENDBRANCH  10  11
ENDBRANCH   9  10
ENDBRANCH   8   9
ENDBRANCH   1   8
BRANCH   4  22
ATOM     22  C   UNL     1      47.967   7.918  11.860  0.00  0.00    +0.000 C 
BRANCH  22  23
ATOM     23  N   UNL     1      47.105   6.768  11.789  0.00  0.00    +0.000 N 
ATOM     24  C   UNL     1      45.739   6.844  11.822  0.00  0.00    +0.000 C 
ATOM     25  O   UNL     1      45.143   7.915  11.879  0.00  0.00    +0.000 OA
ATOM     26  H   UNL     1      47.558   5.861  11.873  0.00  0.00    +0.000 HD
BRANCH  24  27
ATOM     27  C   UNL     1      45.011   5.569  11.727  0.00  0.00    +0.000 A 
ATOM     28  C   UNL     1      44.263   5.121  12.807  0.00  0.00    +0.000 A 
ATOM     29  S   UNL     1      43.501   3.618  12.536  0.00  0.00    +0.000 S 
ATOM     30  C   UNL     1      44.165   3.502  10.974  0.00  0.00    +0.000 A 
ATOM     31  N   UNL     1      43.931   2.411  10.195  0.00  0.00    +0.000 NA
ATOM     32  C   UNL     1      44.516   2.440   9.045  0.00  0.00    +0.000 A 
ATOM     33  N   UNL     1      45.302   3.469   8.596  0.00  0.00    +0.000 N 
ATOM     34  C   UNL     1      45.509   4.616   9.319  0.00  0.00    +0.000 A 
ATOM     35  O   UNL     1      46.110   5.571   8.832  0.00  0.00    +0.000 OA
ATOM     36  C   UNL     1      44.923   4.611  10.647  0.00  0.00    +0.000 A 
ATOM     37  H   UNL     1      45.700   3.447   7.667  0.00  0.00    +0.000 HD
ENDBRANCH  24  27
ENDBRANCH  22  23
ENDBRANCH   4  22
TORSDOF 11
ENDMDL
MODEL 7
REMARK VINA RESULT:    -6.786      4.955      6.690
REMARK INTER + INTRA:         -12.230
REMARK INTER:                 -11.176
REMARK INTRA:                  -1.054
REMARK UNBOUND:                -1.279
REMARK  Name = 
REMARK  11 active torsions:
REMARK  status: ('A' for Active; 'I' for Inactive)
REMARK    1  A    between atoms: C_2  and  O_3
REMARK    2  A    between atoms: C_2  and  C_15
REMARK    3  A    between atoms: O_3  and  C_4
REMARK    4  A    between atoms: C_4  and  C_5
REMARK    5  A    between atoms: N_8  and  C_9
REMARK    6  A    between atoms: C_9  and  C_10
REMARK    7  A    between atoms: C_10  and  C_11
REMARK    8  A    between atoms: C_11  and  O_12
REMARK    9  A    between atoms: C_18  and  C_19
REMARK   10  A    between atoms: C_19  and  N_20
REMARK   11  A    between atoms: C_21  and  C_23
REMARK                            x       y       z     vdW  Elec       q    Type
REMARK                         _______ _______ _______ _____ _____    ______ ____
ROOT
ATOM      1  C   UNL     1      47.848   6.570  13.315  0.00  0.00    +0.000 A 
ATOM      2  C   UNL     1      47.795   6.096  14.633  0.00  0.00    +0.000 A 
ATOM      3  C   UNL     1      48.830   6.390  15.530  0.00  0.00    +0.000 A 
ATOM      4  C   UNL     1      49.925   7.169  15.124  0.00  0.00    +0.000 A 
ATOM      5  C   UNL     1      49.981   7.621  13.801  0.00  0.00    +0.000 A 
ATOM      6  C   UNL     1      48.947   7.337  12.908  0.00  0.00    +0.000 A 
ENDROOT
BRANCH   1   8
ATOM      7  O   UNL     1      46.812   6.404  11.164  0.00  0.00    +0.000 OA
ATOM      8  C   UNL     1      46.784   6.155  12.358  0.00  0.00    +0.000 C 
BRANCH   8   9
ATOM      9  O   UNL     1      45.754   5.586  13.035  0.00  0.00    +0.000 OA
BRANCH   9  10
ATOM     10  C   UNL     1      44.467   6.198  12.878  0.00  0.00    +0.000 C 
BRANCH  10  11
ATOM     11  C   UNL     1      43.340   5.160  12.785  0.00  0.00    +0.000 C 
ATOM     12  C   UNL     1      43.835   3.730  13.011  0.00  0.00    +0.000 C 
ATOM     13  C   UNL     1      44.712   3.238  11.859  0.00  0.00    +0.000 C 
ATOM     14  N   UNL     1      44.016   3.333  10.563  0.00  0.00    +0.000 NA
ATOM     15  C   UNL     1      43.556   4.703  10.290  0.00  0.00    +0.000 C 
ATOM     16  C   UNL     1      42.655   5.228  11.413  0.00  0.00    +0.000 C 
BRANCH  14  17
ATOM     17  C   UNL     1      44.862   2.849   9.459  0.00  0.00    +0.000 C 
BRANCH  17  18
ATOM     18  C   UNL     1      45.329   3.953   8.503  0.00  0.00    +0.000 C 
BRANCH  18  19
ATOM     19  C   UNL     1      45.935   3.396   7.221  0.00  0.00    +0.000 C 
BRANCH  19  20
ATOM     20  O   UNL     1      46.918   2.414   7.534  0.00  0.00    +0.000 OA
ATOM     21  H   UNL     1      47.072   2.450   8.493  0.00  0.00    +0.000 HD
ENDBRANCH  19  20
ENDBRANCH  18  19
ENDBRANCH  17  18
ENDBRANCH  14  17
ENDBRANCH  10  11
ENDBRANCH   9  10
ENDBRANCH   8   9
ENDBRANCH   1   8
BRANCH   4  22
ATOM     22  C   UNL     1      51.035   7.520  16.082  0.00  0.00    +0.000 C 
BRANCH  22  23
ATOM     23  N   UNL     1      51.688   6.351  16.610  0.00  0.00    +0.000 N 
ATOM     24  C   UNL     1      51.748   6.057  17.946  0.00  0.00    +0.000 C 
ATOM     25  O   UNL     1      51.210   6.761  18.796  0.00  0.00    +0.000 OA
ATOM     26  H   UNL     1      52.254   5.817  15.955  0.00  0.00    +0.000 HD
BRANCH  24  27
ATOM     27  C   UNL     1      52.445   4.815  18.312  0.00  0.00    +0.000 A 
ATOM     28  C   UNL     1      53.636   4.877  19.022  0.00  0.00    +0.000 A 
ATOM     29  S   UNL     1      54.321   3.348  19.345  0.00  0.00    +0.000 S 
ATOM     30  C   UNL     1      53.063   2.551  18.525  0.00  0.00    +0.000 A 
ATOM     31  N   UNL     1      53.061   1.196  18.396  0.00  0.00    +0.000 NA
ATOM     32  C   UNL     1      52.063   0.723  17.729  0.00  0.00    +0.000 A 
ATOM     33  N   UNL     1      51.055   1.482  17.191  0.00  0.00    +0.000 N 
ATOM     34  C   UNL     1      50.981   2.841  17.356  0.00  0.00    +0.000 A 
ATOM     35  O   UNL     1      49.997   3.472  16.973  0.00  0.00    +0.000 OA
ATOM     36  C   UNL     1      52.111   3.433  18.046  0.00  0.00    +0.000 A 
ATOM     37  H   UNL     1      50.280   1.045  16.713  0.00  0.00    +0.000 HD
ENDBRANCH  24  27
ENDBRANCH  22  23
ENDBRANCH   4  22
TORSDOF 11
ENDMDL
MODEL 8
REMARK VINA RESULT:    -6.686      5.503      9.584
REMARK INTER + INTRA:         -12.068
REMARK INTER:                  -9.777
REMARK INTRA:                  -2.291
REMARK UNBOUND:                -1.279
REMARK  Name = 
REMARK  11 active torsions:
REMARK  status: ('A' for Active; 'I' for Inactive)
REMARK    1  A    between atoms: C_2  and  O_3
REMARK    2  A    between atoms: C_2  and  C_15
REMARK    3  A    between atoms: O_3  and  C_4
REMARK    4  A    between atoms: C_4  and  C_5
REMARK    5  A    between atoms: N_8  and  C_9
REMARK    6  A    between atoms: C_9  and  C_10
REMARK    7  A    between atoms: C_10  and  C_11
REMARK    8  A    between atoms: C_11  and  O_12
REMARK    9  A    between atoms: C_18  and  C_19
REMARK   10  A    between atoms: C_19  and  N_20
REMARK   11  A    between atoms: C_21  and  C_23
REMARK                            x       y       z     vdW  Elec       q    Type
REMARK                         _______ _______ _______ _____ _____    ______ ____
ROOT
ATOM      1  C   UNL     1      49.855   5.478  19.514  0.00  0.00    +0.000 A 
ATOM      2  C   UNL     1      48.619   6.065  19.209  0.00  0.00    +0.000 A 
ATOM      3  C   UNL     1      47.754   5.451  18.294  0.00  0.00    +0.000 A 
ATOM      4  C   UNL     1      48.109   4.240  17.680  0.00  0.00    +0.000 A 
ATOM      5  C   UNL     1      49.354   3.671  17.974  0.00  0.00    +0.000 A 
ATOM      6  C   UNL     1      50.213   4.276  18.892  0.00  0.00    +0.000 A 
ENDROOT
BRANCH   1   8
ATOM      7  O   UNL     1      50.450   6.778  21.435  0.00  0.00    +0.000 OA
ATOM      8  C   UNL     1      50.794   6.206  20.413  0.00  0.00    +0.000 C 
BRANCH   8   9
ATOM      9  O   UNL     1      52.032   6.233  19.857  0.00  0.00    +0.000 OA
BRANCH   9  10
ATOM     10  C   UNL     1      52.395   7.431  19.156  0.00  0.00    +0.000 C 
BRANCH  10  11
ATOM     11  C   UNL     1      53.307   7.146  17.955  0.00  0.00    +0.000 C 
ATOM     12  C   UNL     1      53.505   8.371  17.061  0.00  0.00    +0.000 C 
ATOM     13  C   UNL     1      52.226   8.745  16.309  0.00  0.00    +0.000 C 
ATOM     14  N   UNL     1      51.709   7.617  15.514  0.00  0.00    +0.000 NA
ATOM     15  C   UNL     1      51.470   6.428  16.345  0.00  0.00    +0.000 C 
ATOM     16  C   UNL     1      52.734   6.006  17.101  0.00  0.00    +0.000 C 
BRANCH  14  17
ATOM     17  C   UNL     1      50.483   7.986  14.785  0.00  0.00    +0.000 C 
BRANCH  17  18
ATOM     18  C   UNL     1      49.189   7.576  15.499  0.00  0.00    +0.000 C 
BRANCH  18  19
ATOM     19  C   UNL     1      48.466   8.764  16.121  0.00  0.00    +0.000 C 
BRANCH  19  20
ATOM     20  O   UNL     1      47.337   9.117  15.328  0.00  0.00    +0.000 OA
ATOM     21  H   UNL     1      47.500   8.790  14.427  0.00  0.00    +0.000 HD
ENDBRANCH  19  20
ENDBRANCH  18  19
ENDBRANCH  17  18
ENDBRANCH  14  17
ENDBRANCH  10  11
ENDBRANCH   9  10
ENDBRANCH   8   9
ENDBRANCH   1   8
BRANCH   4  22
ATOM     22  C   UNL     1      47.181   3.550  16.714  0.00  0.00    +0.000 C 
BRANCH  22  23
ATOM     23  N   UNL     1      46.692   4.442  15.695  0.00  0.00    +0.000 N 
ATOM     24  C   UNL     1      46.767   4.173  14.355  0.00  0.00    +0.000 C 
ATOM     25  O   UNL     1      47.230   3.122  13.922  0.00  0.00    +0.000 OA
ATOM     26  H   UNL     1      46.424   5.373  16.005  0.00  0.00    +0.000 HD
BRANCH  24  27
ATOM     27  C   UNL     1      46.208   5.191  13.452  0.00  0.00    +0.000 A 
ATOM     28  C   UNL     1      46.956   6.317  13.137  0.00  0.00    +0.000 A 
ATOM     29  S   UNL     1      46.152   7.403  12.096  0.00  0.00    +0.000 S 
ATOM     30  C   UNL     1      44.766   6.418  12.049  0.00  0.00    +0.000 A 
ATOM     31  N   UNL     1      43.664   6.796  11.347  0.00  0.00    +0.000 NA
ATOM     32  C   UNL     1      42.675   5.969  11.418  0.00  0.00    +0.000 A 
ATOM     33  N   UNL     1      42.694   4.789  12.115  0.00  0.00    +0.000 N 
ATOM     34  C   UNL     1      43.806   4.337  12.779  0.00  0.00    +0.000 A 
ATOM     35  O   UNL     1      43.830   3.216  13.283  0.00  0.00    +0.000 OA
ATOM     36  C   UNL     1      44.928   5.257  12.783  0.00  0.00    +0.000 A 
ATOM     37  H   UNL     1      41.899   4.166  12.098  0.00  0.00    +0.000 HD
ENDBRANCH  24  27
ENDBRANCH  22  23
ENDBRANCH   4  22
TORSDOF 11
ENDMDL
MODEL 9
REMARK VINA RESULT:    -6.652      5.861      9.875
REMARK INTER + INTRA:         -12.014
REMARK INTER:                  -9.965
REMARK INTRA:                  -2.048
REMARK UNBOUND:                -1.279
REMARK  Name = 
REMARK  11 active torsions:
REMARK  status: ('A' for Active; 'I' for Inactive)
REMARK    1  A    between atoms: C_2  and  O_3
REMARK    2  A    between atoms: C_2  and  C_15
REMARK    3  A    between atoms: O_3  and  C_4
REMARK    4  A    between atoms: C_4  and  C_5
REMARK    5  A    between atoms: N_8  and  C_9
REMARK    6  A    between atoms: C_9  and  C_10
REMARK    7  A    between atoms: C_10  and  C_11
REMARK    8  A    between atoms: C_11  and  O_12
REMARK    9  A    between atoms: C_18  and  C_19
REMARK   10  A    between atoms: C_19  and  N_20
REMARK   11  A    between atoms: C_21  and  C_23
REMARK                            x       y       z     vdW  Elec       q    Type
REMARK                         _______ _______ _______ _____ _____    ______ ____
ROOT
ATOM      1  C   UNL     1      51.392   2.964  17.886  0.00  0.00    +0.000 A 
ATOM      2  C   UNL     1      50.710   4.109  18.317  0.00  0.00    +0.000 A 
ATOM      3  C   UNL     1      49.353   4.279  18.009  0.00  0.00    +0.000 A 
ATOM      4  C   UNL     1      48.661   3.303  17.277  0.00  0.00    +0.000 A 
ATOM      5  C   UNL     1      49.355   2.171  16.832  0.00  0.00    +0.000 A 
ATOM      6  C   UNL     1      50.703   1.996  17.145  0.00  0.00    +0.000 A 
ENDROOT
BRANCH   1   8
ATOM      7  O   UNL     1      53.354   2.070  18.926  0.00  0.00    +0.000 OA
ATOM      8  C   UNL     1      52.857   2.860  18.140  0.00  0.00    +0.000 C 
BRANCH   8   9
ATOM      9  O   UNL     1      53.509   3.844  17.470  0.00  0.00    +0.000 OA
BRANCH   9  10
ATOM     10  C   UNL     1      54.001   4.938  18.256  0.00  0.00    +0.000 C 
BRANCH  10  11
ATOM     11  C   UNL     1      54.631   6.036  17.389  0.00  0.00    +0.000 C 
ATOM     12  C   UNL     1      54.765   7.369  18.129  0.00  0.00    +0.000 C 
ATOM     13  C   UNL     1      53.405   8.019  18.391  0.00  0.00    +0.000 C 
ATOM     14  N   UNL     1      52.640   8.206  17.145  0.00  0.00    +0.000 NA
ATOM     15  C   UNL     1      52.457   6.940  16.420  0.00  0.00    +0.000 C 
ATOM     16  C   UNL     1      53.799   6.265  16.119  0.00  0.00    +0.000 C 
BRANCH  14  17
ATOM     17  C   UNL     1      51.336   8.841  17.402  0.00  0.00    +0.000 C 
BRANCH  17  18
ATOM     18  C   UNL     1      50.207   7.846  17.693  0.00  0.00    +0.000 C 
BRANCH  18  19
ATOM     19  C   UNL     1      48.855   8.333  17.186  0.00  0.00    +0.000 C 
BRANCH  19  20
ATOM     20  O   UNL     1      48.059   7.223  16.782  0.00  0.00    +0.000 OA
ATOM     21  H   UNL     1      47.555   7.496  15.996  0.00  0.00    +0.000 HD
ENDBRANCH  19  20
ENDBRANCH  18  19
ENDBRANCH  17  18
ENDBRANCH  14  17
ENDBRANCH  10  11
ENDBRANCH   9  10
ENDBRANCH   8   9
ENDBRANCH   1   8
BRANCH   4  22
ATOM     22  C   UNL     1      47.195   3.454  16.960  0.00  0.00    +0.000 C 
BRANCH  22  23
ATOM     23  N   UNL     1      46.957   4.441  15.940  0.00  0.00    +0.000 N 
ATOM     24  C   UNL     1      47.032   4.176  14.600  0.00  0.00    +0.000 C 
ATOM     25  O   UNL     1      47.276   3.054  14.166  0.00  0.00    +0.000 OA
ATOM     26  H   UNL     1      46.882   5.405  16.256  0.00  0.00    +0.000 HD
BRANCH  24  27
ATOM     27  C   UNL     1      46.747   5.300  13.694  0.00  0.00    +0.000 A 
ATOM     28  C   UNL     1      47.738   6.232  13.420  0.00  0.00    +0.000 A 
ATOM     29  S   UNL     1      47.235   7.479  12.370  0.00  0.00    +0.000 S 
ATOM     30  C   UNL     1      45.666   6.829  12.264  0.00  0.00    +0.000 A 
ATOM     31  N   UNL     1      44.701   7.450  11.532  0.00  0.00    +0.000 NA
ATOM     32  C   UNL     1      43.551   6.866  11.559  0.00  0.00    +0.000 A 
ATOM     33  N   UNL     1      43.281   5.706  12.239  0.00  0.00    +0.000 N 
ATOM     34  C   UNL     1      44.239   5.012  12.932  0.00  0.00    +0.000 A 
ATOM     35  O   UNL     1      43.994   3.910  13.419  0.00  0.00    +0.000 OA
ATOM     36  C   UNL     1      45.538   5.656  12.985  0.00  0.00    +0.000 A 
ATOM     37  H   UNL     1      42.367   5.278  12.186  0.00  0.00    +0.000 HD
ENDBRANCH  24  27
ENDBRANCH  22  23
ENDBRANCH   4  22
TORSDOF 11
ENDMDL
