MODEL 1
REMARK VINA RESULT:    -8.192      0.000      0.000
REMARK INTER + INTRA:         -11.822
REMARK INTER:                 -10.586
REMARK INTRA:                  -1.236
REMARK UNBOUND:                -1.236
REMARK  Name = 
REMARK  5 active torsions:
REMARK  status: ('A' for Active; 'I' for Inactive)
REMARK    1  A    between atoms: C_2  and  C_4
REMARK    2  A    between atoms: C_9  and  C_10
REMARK    3  A    between atoms: C_10  and  C_11
REMARK    4  A    between atoms: C_11  and  C_12
REMARK    5  A    between atoms: C_16  and  C_17
REMARK                            x       y       z     vdW  Elec       q    Type
REMARK                         _______ _______ _______ _____ _____    ______ ____
ROOT
ATOM      1  C   UNL     1      44.074   6.213  11.438  0.00  0.00    +0.000 C 
ENDROOT
BRANCH   1   2
ATOM      2  C   UNL     1      44.123   4.756  11.024  0.00  0.00    +0.000 A 
ATOM      3  C   UNL     1      43.314   3.771  11.601  0.00  0.00    +0.000 A 
ATOM      4  C   UNL     1      43.364   2.456  11.146  0.00  0.00    +0.000 A 
ATOM      5  C   UNL     1      44.210   2.112  10.091  0.00  0.00    +0.000 A 
ATOM      6  C   UNL     1      45.014   3.074   9.460  0.00  0.00    +0.000 A 
ATOM      7  C   UNL     1      44.960   4.391   9.955  0.00  0.00    +0.000 A 
BRANCH   6   8
ATOM      8  C   UNL     1      45.849   2.735   8.290  0.00  0.00    +0.000 A 
ATOM      9  C   UNL     1      46.144   3.663   7.281  0.00  0.00    +0.000 A 
ATOM     10  C   UNL     1      46.893   3.285   6.166  0.00  0.00    +0.000 A 
ATOM     11  C   UNL     1      47.349   1.982   6.088  0.00  0.00    +0.000 A 
ATOM     12  N   UNL     1      47.104   1.052   7.036  0.00  0.00    +0.000 NA
ATOM     13  C   UNL     1      46.361   1.449   8.097  0.00  0.00    +0.000 A 
ENDBRANCH   6   8
ENDBRANCH   1   2
BRANCH   1  14
ATOM     14  C   UNL     1      44.826   6.540  12.735  0.00  0.00    +0.000 C 
BRANCH  14  20
ATOM     15  C   UNL     1      47.188   5.745  13.195  0.00  0.00    +0.000 A 
ATOM     16  N   UNL     1      48.553   5.857  13.189  0.00  0.00    +0.000 NA
ATOM     17  C   UNL     1      49.073   6.971  12.636  0.00  0.00    +0.000 A 
ATOM     18  C   UNL     1      48.310   7.987  12.094  0.00  0.00    +0.000 A 
ATOM     19  C   UNL     1      46.923   7.856  12.109  0.00  0.00    +0.000 A 
ATOM     20  C   UNL     1      46.324   6.718  12.665  0.00  0.00    +0.000 A 
BRANCH  15  22
ATOM     21  N   UNL     1      46.629   4.522  15.227  0.00  0.00    +0.000 N 
ATOM     22  C   UNL     1      46.684   4.478  13.859  0.00  0.00    +0.000 C 
ATOM     23  O   UNL     1      46.330   3.466  13.267  0.00  0.00    +0.000 OA
ATOM     24  H   UNL     1      46.277   3.723  15.732  0.00  0.00    +0.000 HD
ATOM     25  H   UNL     1      46.911   5.367  15.707  0.00  0.00    +0.000 HD
ENDBRANCH  15  22
ENDBRANCH  14  20
ENDBRANCH   1  14
TORSDOF 5
ENDMDL
MODEL 2
REMARK VINA RESULT:    -7.172      2.157      6.736
REMARK INTER + INTRA:         -10.504
REMARK INTER:                  -9.528
REMARK INTRA:                  -0.976
REMARK UNBOUND:                -1.236
REMARK  Name = 
REMARK  5 active torsions:
REMARK  status: ('A' for Active; 'I' for Inactive)
REMARK    1  A    between atoms: C_2  and  C_4
REMARK    2  A    between atoms: C_9  and  C_10
REMARK    3  A    between atoms: C_10  and  C_11
REMARK    4  A    between atoms: C_11  and  C_12
REMARK    5  A    between atoms: C_16  and  C_17
REMARK                            x       y       z     vdW  Elec       q    Type
REMARK                         _______ _______ _______ _____ _____    ______ ____
ROOT
ATOM      1  C   UNL     1      45.558   6.979  11.085  0.00  0.00    +0.000 C 
ENDROOT
BRANCH   1   2
ATOM      2  C   UNL     1      46.822   6.944  11.922  0.00  0.00    +0.000 A 
ATOM      3  C   UNL     1      47.966   7.683  11.605  0.00  0.00    +0.000 A 
ATOM      4  C   UNL     1      49.082   7.653  12.438  0.00  0.00    +0.000 A 
ATOM      5  C   UNL     1      49.060   6.900  13.612  0.00  0.00    +0.000 A 
ATOM      6  C   UNL     1      47.920   6.170  13.986  0.00  0.00    +0.000 A 
ATOM      7  C   UNL     1      46.815   6.200  13.115  0.00  0.00    +0.000 A 
BRANCH   6   8
ATOM      8  C   UNL     1      47.859   5.438  15.267  0.00  0.00    +0.000 A 
ATOM      9  C   UNL     1      48.613   5.817  16.387  0.00  0.00    +0.000 A 
ATOM     10  C   UNL     1      48.565   5.066  17.562  0.00  0.00    +0.000 A 
ATOM     11  C   UNL     1      47.747   3.952  17.600  0.00  0.00    +0.000 A 
ATOM     12  N   UNL     1      46.991   3.551  16.556  0.00  0.00    +0.000 NA
ATOM     13  C   UNL     1      47.074   4.294  15.426  0.00  0.00    +0.000 A 
ENDBRANCH   6   8
ENDBRANCH   1   2
BRANCH   1  14
ATOM     14  C   UNL     1      44.758   5.671  11.072  0.00  0.00    +0.000 C 
BRANCH  14  20
ATOM     15  C   UNL     1      44.771   3.286  10.214  0.00  0.00    +0.000 A 
ATOM     16  N   UNL     1      45.068   2.299   9.312  0.00  0.00    +0.000 NA
ATOM     17  C   UNL     1      45.698   2.673   8.181  0.00  0.00    +0.000 A 
ATOM     18  C   UNL     1      46.057   3.976   7.897  0.00  0.00    +0.000 A 
ATOM     19  C   UNL     1      45.748   4.967   8.826  0.00  0.00    +0.000 A 
ATOM     20  C   UNL     1      45.089   4.641  10.019  0.00  0.00    +0.000 A 
BRANCH  15  22
ATOM     21  N   UNL     1      44.884   2.737  12.585  0.00  0.00    +0.000 N 
ATOM     22  C   UNL     1      44.090   2.778  11.471  0.00  0.00    +0.000 C 
ATOM     23  O   UNL     1      42.919   2.428  11.543  0.00  0.00    +0.000 OA
ATOM     24  H   UNL     1      44.487   2.436  13.462  0.00  0.00    +0.000 HD
ATOM     25  H   UNL     1      45.847   3.041  12.519  0.00  0.00    +0.000 HD
ENDBRANCH  15  22
ENDBRANCH  14  20
ENDBRANCH   1  14
TORSDOF 5
ENDMDL
MODEL 3
REMARK VINA RESULT:    -6.942      1.467      1.998
REMARK INTER + INTRA:         -10.207
REMARK INTER:                  -9.224
REMARK INTRA:                  -0.983
REMARK UNBOUND:                -1.236
REMARK  Name = 
REMARK  5 active torsions:
REMARK  status: ('A' for Active; 'I' for Inactive)
REMARK    1  A    between atoms: C_2  and  C_4
REMARK    2  A    between atoms: C_9  and  C_10
REMARK    3  A    between atoms: C_10  and  C_11
REMARK    4  A    between atoms: C_11  and  C_12
REMARK    5  A    between atoms: C_16  and  C_17
REMARK                            x       y       z     vdW  Elec       q    Type
REMARK                         _______ _______ _______ _____ _____    ______ ____
ROOT
ATOM      1  C   UNL     1      46.039   7.305  11.979  0.00  0.00    +0.000 C 
ENDROOT
BRANCH   1   2
ATOM      2  C   UNL     1      45.160   6.233  11.364  0.00  0.00    +0.000 A 
ATOM      3  C   UNL     1      43.777   6.174  11.564  0.00  0.00    +0.000 A 
ATOM      4  C   UNL     1      43.010   5.197  10.933  0.00  0.00    +0.000 A 
ATOM      5  C   UNL     1      43.615   4.279  10.073  0.00  0.00    +0.000 A 
ATOM      6  C   UNL     1      44.995   4.324   9.817  0.00  0.00    +0.000 A 
ATOM      7  C   UNL     1      45.749   5.307  10.486  0.00  0.00    +0.000 A 
BRANCH   6   8
ATOM      8  C   UNL     1      45.628   3.410   8.845  0.00  0.00    +0.000 A 
ATOM      9  C   UNL     1      46.256   3.869   7.678  0.00  0.00    +0.000 A 
ATOM     10  C   UNL     1      46.797   2.966   6.761  0.00  0.00    +0.000 A 
ATOM     11  C   UNL     1      46.711   1.614   7.036  0.00  0.00    +0.000 A 
ATOM     12  N   UNL     1      46.129   1.119   8.150  0.00  0.00    +0.000 NA
ATOM     13  C   UNL     1      45.601   2.023   9.011  0.00  0.00    +0.000 A 
ENDBRANCH   6   8
ENDBRANCH   1   2
BRANCH   1  14
ATOM     14  C   UNL     1      47.512   6.913  12.143  0.00  0.00    +0.000 C 
BRANCH  14  20
ATOM     15  C   UNL     1      47.911   5.832  14.401  0.00  0.00    +0.000 A 
ATOM     16  N   UNL     1      48.395   5.787  15.682  0.00  0.00    +0.000 NA
ATOM     17  C   UNL     1      49.092   6.858  16.110  0.00  0.00    +0.000 A 
ATOM     18  C   UNL     1      49.330   7.978  15.338  0.00  0.00    +0.000 A 
ATOM     19  C   UNL     1      48.830   8.007  14.038  0.00  0.00    +0.000 A 
ATOM     20  C   UNL     1      48.102   6.921  13.533  0.00  0.00    +0.000 A 
BRANCH  15  22
ATOM     21  N   UNL     1      45.800   4.616  14.388  0.00  0.00    +0.000 N 
ATOM     22  C   UNL     1      47.115   4.602  14.007  0.00  0.00    +0.000 C 
ATOM     23  O   UNL     1      47.560   3.645  13.388  0.00  0.00    +0.000 OA
ATOM     24  H   UNL     1      45.205   3.842  14.134  0.00  0.00    +0.000 HD
ATOM     25  H   UNL     1      45.437   5.418  14.888  0.00  0.00    +0.000 HD
ENDBRANCH  15  22
ENDBRANCH  14  20
ENDBRANCH   1  14
TORSDOF 5
ENDMDL
MODEL 4
REMARK VINA RESULT:    -6.765      1.937      2.914
REMARK INTER + INTRA:          -9.978
REMARK INTER:                  -9.188
REMARK INTRA:                  -0.790
REMARK UNBOUND:                -1.236
REMARK  Name = 
REMARK  5 active torsions:
REMARK  status: ('A' for Active; 'I' for Inactive)
REMARK    1  A    between atoms: C_2  and  C_4
REMARK    2  A    between atoms: C_9  and  C_10
REMARK    3  A    between atoms: C_10  and  C_11
REMARK    4  A    between atoms: C_11  and  C_12
REMARK    5  A    between atoms: C_16  and  C_17
REMARK                            x       y       z     vdW  Elec       q    Type
REMARK                         _______ _______ _______ _____ _____    ______ ____
ROOT
ATOM      1  C   UNL     1      45.911   7.384  12.025  0.00  0.00    +0.000 C 
ENDROOT
BRANCH   1   2
ATOM      2  C   UNL     1      45.069   6.267  11.442  0.00  0.00    +0.000 A 
ATOM      3  C   UNL     1      43.700   6.133  11.693  0.00  0.00    +0.000 A 
ATOM      4  C   UNL     1      42.965   5.116  11.089  0.00  0.00    +0.000 A 
ATOM      5  C   UNL     1      43.586   4.231  10.207  0.00  0.00    +0.000 A 
ATOM      6  C   UNL     1      44.951   4.350   9.899  0.00  0.00    +0.000 A 
ATOM      7  C   UNL     1      45.674   5.373  10.541  0.00  0.00    +0.000 A 
BRANCH   6   8
ATOM      8  C   UNL     1      45.596   3.471   8.904  0.00  0.00    +0.000 A 
ATOM      9  C   UNL     1      46.186   3.966   7.732  0.00  0.00    +0.000 A 
ATOM     10  C   UNL     1      46.739   3.095   6.792  0.00  0.00    +0.000 A 
ATOM     11  C   UNL     1      46.704   1.737   7.051  0.00  0.00    +0.000 A 
ATOM     12  N   UNL     1      46.160   1.208   8.168  0.00  0.00    +0.000 NA
ATOM     13  C   UNL     1      45.619   2.082   9.051  0.00  0.00    +0.000 A 
ENDBRANCH   6   8
ENDBRANCH   1   2
BRANCH   1  14
ATOM     14  C   UNL     1      47.338   6.980  12.416  0.00  0.00    +0.000 C 
BRANCH  14  20
ATOM     15  C   UNL     1      48.511   6.610  14.631  0.00  0.00    +0.000 A 
ATOM     16  N   UNL     1      48.761   5.944  15.802  0.00  0.00    +0.000 NA
ATOM     17  C   UNL     1      48.015   4.849  16.054  0.00  0.00    +0.000 A 
ATOM     18  C   UNL     1      47.037   4.375  15.202  0.00  0.00    +0.000 A 
ATOM     19  C   UNL     1      46.797   5.064  14.016  0.00  0.00    +0.000 A 
ATOM     20  C   UNL     1      47.536   6.212  13.701  0.00  0.00    +0.000 A 
BRANCH  15  22
ATOM     21  N   UNL     1      50.750   7.528  14.340  0.00  0.00    +0.000 N 
ATOM     22  C   UNL     1      49.412   7.811  14.410  0.00  0.00    +0.000 C 
ATOM     23  O   UNL     1      49.026   8.966  14.288  0.00  0.00    +0.000 OA
ATOM     24  H   UNL     1      51.403   8.276  14.167  0.00  0.00    +0.000 HD
ATOM     25  H   UNL     1      51.059   6.568  14.430  0.00  0.00    +0.000 HD
ENDBRANCH  15  22
ENDBRANCH  14  20
ENDBRANCH   1  14
TORSDOF 5
ENDMDL
MODEL 5
REMARK VINA RESULT:    -6.654      1.962      2.590
REMARK INTER + INTRA:          -9.835
REMARK INTER:                  -8.781
REMARK INTRA:                  -1.054
REMARK UNBOUND:                -1.236
REMARK  Name = 
REMARK  5 active torsions:
REMARK  status: ('A' for Active; 'I' for Inactive)
REMARK    1  A    between atoms: C_2  and  C_4
REMARK    2  A    between atoms: C_9  and  C_10
REMARK    3  A    between atoms: C_10  and  C_11
REMARK    4  A    between atoms: C_11  and  C_12
REMARK    5  A    between atoms: C_16  and  C_17
REMARK                            x       y       z     vdW  Elec       q    Type
REMARK                         _______ _______ _______ _____ _____    ______ ____
ROOT
ATOM      1  C   UNL     1      45.867   5.163  14.022  0.00  0.00    +0.000 C 
ENDROOT
BRANCH   1   2
ATOM      2  C   UNL     1      44.935   4.899  12.857  0.00  0.00    +0.000 A 
ATOM      3  C   UNL     1      43.584   5.261  12.864  0.00  0.00    +0.000 A 
ATOM      4  C   UNL     1      42.785   5.040  11.744  0.00  0.00    +0.000 A 
ATOM      5  C   UNL     1      43.333   4.473  10.593  0.00  0.00    +0.000 A 
ATOM      6  C   UNL     1      44.692   4.126  10.530  0.00  0.00    +0.000 A 
ATOM      7  C   UNL     1      45.471   4.340  11.683  0.00  0.00    +0.000 A 
BRANCH   6   8
ATOM      8  C   UNL     1      45.298   3.604   9.289  0.00  0.00    +0.000 A 
ATOM      9  C   UNL     1      45.496   2.234   9.066  0.00  0.00    +0.000 A 
ATOM     10  C   UNL     1      46.120   1.788   7.900  0.00  0.00    +0.000 A 
ATOM     11  C   UNL     1      46.524   2.725   6.967  0.00  0.00    +0.000 A 
ATOM     12  N   UNL     1      46.346   4.054   7.126  0.00  0.00    +0.000 NA
ATOM     13  C   UNL     1      45.751   4.453   8.276  0.00  0.00    +0.000 A 
ENDBRANCH   6   8
ENDBRANCH   1   2
BRANCH   1  14
ATOM     14  C   UNL     1      47.360   5.141  13.671  0.00  0.00    +0.000 C 
BRANCH  14  20
ATOM     15  C   UNL     1      48.777   7.149  14.289  0.00  0.00    +0.000 A 
ATOM     16  N   UNL     1      49.388   8.352  14.049  0.00  0.00    +0.000 NA
ATOM     17  C   UNL     1      49.253   8.871  12.812  0.00  0.00    +0.000 A 
ATOM     18  C   UNL     1      48.538   8.263  11.799  0.00  0.00    +0.000 A 
ATOM     19  C   UNL     1      47.923   7.041  12.060  0.00  0.00    +0.000 A 
ATOM     20  C   UNL     1      48.031   6.449  13.326  0.00  0.00    +0.000 A 
BRANCH  15  22
ATOM     21  N   UNL     1      48.166   7.268  16.644  0.00  0.00    +0.000 N 
ATOM     22  C   UNL     1      48.953   6.650  15.710  0.00  0.00    +0.000 C 
ATOM     23  O   UNL     1      49.718   5.757  16.052  0.00  0.00    +0.000 OA
ATOM     24  H   UNL     1      48.211   6.966  17.605  0.00  0.00    +0.000 HD
ATOM     25  H   UNL     1      47.527   7.996  16.350  0.00  0.00    +0.000 HD
ENDBRANCH  15  22
ENDBRANCH  14  20
ENDBRANCH   1  14
TORSDOF 5
ENDMDL
MODEL 6
REMARK VINA RESULT:    -6.580      2.293      6.399
REMARK INTER + INTRA:          -9.740
REMARK INTER:                  -8.801
REMARK INTRA:                  -0.938
REMARK UNBOUND:                -1.236
REMARK  Name = 
REMARK  5 active torsions:
REMARK  status: ('A' for Active; 'I' for Inactive)
REMARK    1  A    between atoms: C_2  and  C_4
REMARK    2  A    between atoms: C_9  and  C_10
REMARK    3  A    between atoms: C_10  and  C_11
REMARK    4  A    between atoms: C_11  and  C_12
REMARK    5  A    between atoms: C_16  and  C_17
REMARK                            x       y       z     vdW  Elec       q    Type
REMARK                         _______ _______ _______ _____ _____    ______ ____
ROOT
ATOM      1  C   UNL     1      45.450   6.805  10.960  0.00  0.00    +0.000 C 
ENDROOT
BRANCH   1   2
ATOM      2  C   UNL     1      46.543   6.706  12.005  0.00  0.00    +0.000 A 
ATOM      3  C   UNL     1      46.410   5.959  13.180  0.00  0.00    +0.000 A 
ATOM      4  C   UNL     1      47.466   5.861  14.082  0.00  0.00    +0.000 A 
ATOM      5  C   UNL     1      48.680   6.494  13.810  0.00  0.00    +0.000 A 
ATOM      6  C   UNL     1      48.869   7.226  12.627  0.00  0.00    +0.000 A 
ATOM      7  C   UNL     1      47.777   7.327  11.744  0.00  0.00    +0.000 A 
BRANCH   6   8
ATOM      8  C   UNL     1      50.176   7.828  12.293  0.00  0.00    +0.000 A 
ATOM      9  C   UNL     1      50.768   7.687  11.030  0.00  0.00    +0.000 A 
ATOM     10  C   UNL     1      52.029   8.228  10.774  0.00  0.00    +0.000 A 
ATOM     11  C   UNL     1      52.671   8.916  11.787  0.00  0.00    +0.000 A 
ATOM     12  N   UNL     1      52.140   9.092  13.016  0.00  0.00    +0.000 NA
ATOM     13  C   UNL     1      50.922   8.540  13.235  0.00  0.00    +0.000 A 
ENDBRANCH   6   8
ENDBRANCH   1   2
BRANCH   1  14
ATOM     14  C   UNL     1      44.556   5.564  10.843  0.00  0.00    +0.000 C 
BRANCH  14  20
ATOM     15  C   UNL     1      44.737   3.122  10.190  0.00  0.00    +0.000 A 
ATOM     16  N   UNL     1      45.112   2.083   9.380  0.00  0.00    +0.000 NA
ATOM     17  C   UNL     1      45.739   2.401   8.229  0.00  0.00    +0.000 A 
ATOM     18  C   UNL     1      46.020   3.697   7.841  0.00  0.00    +0.000 A 
ATOM     19  C   UNL     1      45.632   4.740   8.678  0.00  0.00    +0.000 A 
ATOM     20  C   UNL     1      44.972   4.473   9.885  0.00  0.00    +0.000 A 
BRANCH  15  22
ATOM     21  N   UNL     1      44.885   2.625  12.571  0.00  0.00    +0.000 N 
ATOM     22  C   UNL     1      44.065   2.678  11.476  0.00  0.00    +0.000 C 
ATOM     23  O   UNL     1      42.881   2.387  11.587  0.00  0.00    +0.000 OA
ATOM     24  H   UNL     1      44.497   2.365  13.465  0.00  0.00    +0.000 HD
ATOM     25  H   UNL     1      45.860   2.881  12.473  0.00  0.00    +0.000 HD
ENDBRANCH  15  22
ENDBRANCH  14  20
ENDBRANCH   1  14
TORSDOF 5
ENDMDL
MODEL 7
REMARK VINA RESULT:    -6.460      3.601      6.038
REMARK INTER + INTRA:          -9.585
REMARK INTER:                  -8.577
REMARK INTRA:                  -1.008
REMARK UNBOUND:                -1.236
REMARK  Name = 
REMARK  5 active torsions:
REMARK  status: ('A' for Active; 'I' for Inactive)
REMARK    1  A    between atoms: C_2  and  C_4
REMARK    2  A    between atoms: C_9  and  C_10
REMARK    3  A    between atoms: C_10  and  C_11
REMARK    4  A    between atoms: C_11  and  C_12
REMARK    5  A    between atoms: C_16  and  C_17
REMARK                            x       y       z     vdW  Elec       q    Type
REMARK                         _______ _______ _______ _____ _____    ______ ____
ROOT
ATOM      1  C   UNL     1      49.412   7.093  15.570  0.00  0.00    +0.000 C 
ENDROOT
BRANCH   1   2
ATOM      2  C   UNL     1      48.696   7.055  14.234  0.00  0.00    +0.000 A 
ATOM      3  C   UNL     1      49.203   7.662  13.080  0.00  0.00    +0.000 A 
ATOM      4  C   UNL     1      48.527   7.552  11.867  0.00  0.00    +0.000 A 
ATOM      5  C   UNL     1      47.346   6.814  11.788  0.00  0.00    +0.000 A 
ATOM      6  C   UNL     1      46.820   6.160  12.913  0.00  0.00    +0.000 A 
ATOM      7  C   UNL     1      47.511   6.307  14.131  0.00  0.00    +0.000 A 
BRANCH   6   8
ATOM      8  C   UNL     1      45.617   5.309  12.818  0.00  0.00    +0.000 A 
ATOM      9  C   UNL     1      44.318   5.831  12.893  0.00  0.00    +0.000 A 
ATOM     10  C   UNL     1      43.209   4.984  12.851  0.00  0.00    +0.000 A 
ATOM     11  C   UNL     1      43.422   3.624  12.720  0.00  0.00    +0.000 A 
ATOM     12  N   UNL     1      44.650   3.071  12.631  0.00  0.00    +0.000 NA
ATOM     13  C   UNL     1      45.704   3.921  12.691  0.00  0.00    +0.000 A 
ENDBRANCH   6   8
ENDBRANCH   1   2
BRANCH   1  14
ATOM     14  C   UNL     1      48.903   6.080  16.603  0.00  0.00    +0.000 C 
BRANCH  14  20
ATOM     15  C   UNL     1      49.335   3.601  16.905  0.00  0.00    +0.000 A 
ATOM     16  N   UNL     1      50.089   2.511  17.251  0.00  0.00    +0.000 NA
ATOM     17  C   UNL     1      51.347   2.746  17.675  0.00  0.00    +0.000 A 
ATOM     18  C   UNL     1      51.897   4.008  17.781  0.00  0.00    +0.000 A 
ATOM     19  C   UNL     1      51.117   5.105  17.425  0.00  0.00    +0.000 A 
ATOM     20  C   UNL     1      49.803   4.924  16.972  0.00  0.00    +0.000 A 
BRANCH  15  22
ATOM     21  N   UNL     1      47.017   3.127  17.484  0.00  0.00    +0.000 N 
ATOM     22  C   UNL     1      47.925   3.252  16.468  0.00  0.00    +0.000 C 
ATOM     23  O   UNL     1      47.568   3.093  15.308  0.00  0.00    +0.000 OA
ATOM     24  H   UNL     1      46.054   2.924  17.262  0.00  0.00    +0.000 HD
ATOM     25  H   UNL     1      47.318   3.273  18.440  0.00  0.00    +0.000 HD
ENDBRANCH  15  22
ENDBRANCH  14  20
ENDBRANCH   1  14
TORSDOF 5
ENDMDL
MODEL 8
REMARK VINA RESULT:    -6.350      3.042      4.555
REMARK INTER + INTRA:          -9.442
REMARK INTER:                  -8.712
REMARK INTRA:                  -0.730
REMARK UNBOUND:                -1.236
REMARK  Name = 
REMARK  5 active torsions:
REMARK  status: ('A' for Active; 'I' for Inactive)
REMARK    1  A    between atoms: C_2  and  C_4
REMARK    2  A    between atoms: C_9  and  C_10
REMARK    3  A    between atoms: C_10  and  C_11
REMARK    4  A    between atoms: C_11  and  C_12
REMARK    5  A    between atoms: C_16  and  C_17
REMARK                            x       y       z     vdW  Elec       q    Type
REMARK                         _______ _______ _______ _____ _____    ______ ____
ROOT
ATOM      1  C   UNL     1      48.107   6.750  14.165  0.00  0.00    +0.000 C 
ENDROOT
BRANCH   1   2
ATOM      2  C   UNL     1      46.950   6.961  13.208  0.00  0.00    +0.000 A 
ATOM      3  C   UNL     1      46.285   8.184  13.075  0.00  0.00    +0.000 A 
ATOM      4  C   UNL     1      45.261   8.336  12.143  0.00  0.00    +0.000 A 
ATOM      5  C   UNL     1      44.903   7.271  11.316  0.00  0.00    +0.000 A 
ATOM      6  C   UNL     1      45.567   6.036  11.392  0.00  0.00    +0.000 A 
ATOM      7  C   UNL     1      46.582   5.904  12.358  0.00  0.00    +0.000 A 
BRANCH   6   8
ATOM      8  C   UNL     1      45.251   4.932  10.464  0.00  0.00    +0.000 A 
ATOM      9  C   UNL     1      45.611   4.961   9.109  0.00  0.00    +0.000 A 
ATOM     10  C   UNL     1      45.247   3.919   8.255  0.00  0.00    +0.000 A 
ATOM     11  C   UNL     1      44.537   2.854   8.778  0.00  0.00    +0.000 A 
ATOM     12  N   UNL     1      44.176   2.770  10.077  0.00  0.00    +0.000 NA
ATOM     13  C   UNL     1      44.533   3.806  10.874  0.00  0.00    +0.000 A 
ENDBRANCH   6   8
ENDBRANCH   1   2
BRANCH   1  14
ATOM     14  C   UNL     1      47.949   5.555  15.113  0.00  0.00    +0.000 C 
BRANCH  14  20
ATOM     15  C   UNL     1      48.694   4.490  17.289  0.00  0.00    +0.000 A 
ATOM     16  N   UNL     1      49.251   4.495  18.540  0.00  0.00    +0.000 NA
ATOM     17  C   UNL     1      49.738   5.670  18.989  0.00  0.00    +0.000 A 
ATOM     18  C   UNL     1      49.695   6.845  18.264  0.00  0.00    +0.000 A 
ATOM     19  C   UNL     1      49.124   6.821  16.994  0.00  0.00    +0.000 A 
ATOM     20  C   UNL     1      48.606   5.629  16.471  0.00  0.00    +0.000 A 
BRANCH  15  22
ATOM     21  N   UNL     1      47.014   2.742  17.534  0.00  0.00    +0.000 N 
ATOM     22  C   UNL     1      48.145   3.139  16.872  0.00  0.00    +0.000 C 
ATOM     23  O   UNL     1      48.630   2.419  16.009  0.00  0.00    +0.000 OA
ATOM     24  H   UNL     1      46.580   1.865  17.287  0.00  0.00    +0.000 HD
ATOM     25  H   UNL     1      46.613   3.349  18.237  0.00  0.00    +0.000 HD
ENDBRANCH  15  22
ENDBRANCH  14  20
ENDBRANCH   1  14
TORSDOF 5
ENDMDL
MODEL 9
REMARK VINA RESULT:    -5.879      3.586      6.702
REMARK INTER + INTRA:          -8.833
REMARK INTER:                  -8.090
REMARK INTRA:                  -0.743
REMARK UNBOUND:                -1.236
REMARK  Name = 
REMARK  5 active torsions:
REMARK  status: ('A' for Active; 'I' for Inactive)
REMARK    1  A    between atoms: C_2  and  C_4
REMARK    2  A    between atoms: C_9  and  C_10
REMARK    3  A    between atoms: C_10  and  C_11
REMARK    4  A    between atoms: C_11  and  C_12
REMARK    5  A    between atoms: C_16  and  C_17
REMARK                            x       y       z     vdW  Elec       q    Type
REMARK                         _______ _______ _______ _____ _____    ______ ____
ROOT
ATOM      1  C   UNL     1      47.085   7.812  12.670  0.00  0.00    +0.000 C 
ENDROOT
BRANCH   1   2
ATOM      2  C   UNL     1      48.194   8.646  12.060  0.00  0.00    +0.000 A 
ATOM      3  C   UNL     1      48.087  10.025  11.857  0.00  0.00    +0.000 A 
ATOM      4  C   UNL     1      49.158  10.751  11.339  0.00  0.00    +0.000 A 
ATOM      5  C   UNL     1      50.359  10.109  11.039  0.00  0.00    +0.000 A 
ATOM      6  C   UNL     1      50.522   8.732  11.260  0.00  0.00    +0.000 A 
ATOM      7  C   UNL     1      49.417   8.019  11.762  0.00  0.00    +0.000 A 
BRANCH   6   8
ATOM      8  C   UNL     1      51.817   8.061  11.023  0.00  0.00    +0.000 A 
ATOM      9  C   UNL     1      52.008   7.138   9.986  0.00  0.00    +0.000 A 
ATOM     10  C   UNL     1      53.233   6.488   9.830  0.00  0.00    +0.000 A 
ATOM     11  C   UNL     1      54.255   6.786  10.713  0.00  0.00    +0.000 A 
ATOM     12  N   UNL     1      54.129   7.675  11.721  0.00  0.00    +0.000 NA
ATOM     13  C   UNL     1      52.921   8.277  11.852  0.00  0.00    +0.000 A 
ENDBRANCH   6   8
ENDBRANCH   1   2
BRANCH   1  14
ATOM     14  C   UNL     1      46.881   6.437  12.020  0.00  0.00    +0.000 C 
BRANCH  14  20
ATOM     15  C   UNL     1      45.427   4.705  13.163  0.00  0.00    +0.000 A 
ATOM     16  N   UNL     1      44.264   4.015  13.378  0.00  0.00    +0.000 NA
ATOM     17  C   UNL     1      43.196   4.370  12.635  0.00  0.00    +0.000 A 
ATOM     18  C   UNL     1      43.222   5.371  11.684  0.00  0.00    +0.000 A 
ATOM     19  C   UNL     1      44.414   6.061  11.478  0.00  0.00    +0.000 A 
ATOM     20  C   UNL     1      45.557   5.741  12.223  0.00  0.00    +0.000 A 
BRANCH  15  22
ATOM     21  N   UNL     1      46.830   4.973  15.138  0.00  0.00    +0.000 N 
ATOM     22  C   UNL     1      46.586   4.225  14.017  0.00  0.00    +0.000 C 
ATOM     23  O   UNL     1      47.279   3.245  13.776  0.00  0.00    +0.000 OA
ATOM     24  H   UNL     1      47.568   4.694  15.765  0.00  0.00    +0.000 HD
ATOM     25  H   UNL     1      46.243   5.774  15.336  0.00  0.00    +0.000 HD
ENDBRANCH  15  22
ENDBRANCH  14  20
ENDBRANCH   1  14
TORSDOF 5
ENDMDL
