MODEL 1
REMARK VINA RESULT:    -8.287      0.000      0.000
REMARK INTER + INTRA:         -11.527
REMARK INTER:                 -10.710
REMARK INTRA:                  -0.817
REMARK UNBOUND:                -0.817
REMARK  Name = 
REMARK  6 active torsions:
REMARK  status: ('A' for Active; 'I' for Inactive)
REMARK    1  A    between atoms: C_1  and  C_2
REMARK    2  A    between atoms: C_5  and  C_6
REMARK    3  A    between atoms: C_6  and  C_7
REMARK    4  A    between atoms: C_10  and  C_11
REMARK    5  A    between atoms: C_11  and  N_12
REMARK    6  A    between atoms: C_13  and  C_15
REMARK                            x       y       z     vdW  Elec       q    Type
REMARK                         _______ _______ _______ _____ _____    ______ ____
ROOT
ATOM      1  C   UNL     1      47.123   8.116  13.478  0.00  0.00    +0.000 C 
ENDROOT
BRANCH   1   5
ATOM      2  C   UNL     1      44.714   5.562  11.047  0.00  0.00    +0.000 A 
ATOM      3  C   UNL     1      44.281   6.866  11.275  0.00  0.00    +0.000 A 
ATOM      4  C   UNL     1      45.059   7.710  12.066  0.00  0.00    +0.000 A 
ATOM      5  C   UNL     1      46.233   7.231  12.652  0.00  0.00    +0.000 A 
ATOM      6  C   UNL     1      46.578   5.912  12.381  0.00  0.00    +0.000 A 
ATOM      7  N   UNL     1      45.855   5.076  11.594  0.00  0.00    +0.000 NA
BRANCH   2   8
ATOM      8  C   UNL     1      43.941   4.645  10.125  0.00  0.00    +0.000 C 
BRANCH   8  13
ATOM      9  C   UNL     1      47.245   1.369   6.811  0.00  0.00    +0.000 C 
ATOM     10  C   UNL     1      46.388   2.228   7.687  0.00  0.00    +0.000 A 
ATOM     11  C   UNL     1      46.272   3.596   7.470  0.00  0.00    +0.000 A 
ATOM     12  N   UNL     1      45.500   4.403   8.238  0.00  0.00    +0.000 NA
ATOM     13  C   UNL     1      44.823   3.793   9.246  0.00  0.00    +0.000 A 
ATOM     14  C   UNL     1      44.943   2.423   9.464  0.00  0.00    +0.000 A 
ATOM     15  N   UNL     1      45.725   1.619   8.700  0.00  0.00    +0.000 NA
ENDBRANCH   8  13
ENDBRANCH   2   8
ENDBRANCH   1   5
BRANCH   1  16
ATOM     16  N   UNL     1      47.559   7.436  14.671  0.00  0.00    +0.000 N 
ATOM     17  C   UNL     1      48.807   6.874  14.787  0.00  0.00    +0.000 C 
ATOM     18  O   UNL     1      49.647   6.946  13.897  0.00  0.00    +0.000 OA
ATOM     19  H   UNL     1      46.828   7.120  15.295  0.00  0.00    +0.000 HD
BRANCH  17  20
ATOM     20  C   UNL     1      49.098   6.246  16.085  0.00  0.00    +0.000 A 
ATOM     21  C   UNL     1      50.085   6.769  16.912  0.00  0.00    +0.000 A 
ATOM     22  S   UNL     1      50.203   5.970  18.417  0.00  0.00    +0.000 S 
ATOM     23  C   UNL     1      48.987   4.859  17.989  0.00  0.00    +0.000 A 
ATOM     24  N   UNL     1      48.597   3.876  18.845  0.00  0.00    +0.000 NA
ATOM     25  C   UNL     1      47.685   3.092  18.379  0.00  0.00    +0.000 A 
ATOM     26  N   UNL     1      47.127   3.198  17.130  0.00  0.00    +0.000 N 
ATOM     27  C   UNL     1      47.470   4.186  16.244  0.00  0.00    +0.000 A 
ATOM     28  O   UNL     1      46.929   4.273  15.144  0.00  0.00    +0.000 OA
ATOM     29  C   UNL     1      48.493   5.100  16.721  0.00  0.00    +0.000 A 
ATOM     30  H   UNL     1      46.410   2.556  16.827  0.00  0.00    +0.000 HD
ENDBRANCH  17  20
ENDBRANCH   1  16
TORSDOF 5
ENDMDL
MODEL 2
REMARK VINA RESULT:    -7.464      2.053      2.492
REMARK INTER + INTRA:         -10.462
REMARK INTER:                  -9.582
REMARK INTRA:                  -0.881
REMARK UNBOUND:                -0.817
REMARK  Name = 
REMARK  6 active torsions:
REMARK  status: ('A' for Active; 'I' for Inactive)
REMARK    1  A    between atoms: C_1  and  C_2
REMARK    2  A    between atoms: C_5  and  C_6
REMARK    3  A    between atoms: C_6  and  C_7
REMARK    4  A    between atoms: C_10  and  C_11
REMARK    5  A    between atoms: C_11  and  N_12
REMARK    6  A    between atoms: C_13  and  C_15
REMARK                            x       y       z     vdW  Elec       q    Type
REMARK                         _______ _______ _______ _____ _____    ______ ____
ROOT
ATOM      1  C   UNL     1      48.285   7.156  14.107  0.00  0.00    +0.000 C 
ENDROOT
BRANCH   1   5
ATOM      2  C   UNL     1      45.389   5.376  11.521  0.00  0.00    +0.000 A 
ATOM      3  C   UNL     1      45.698   6.723  11.347  0.00  0.00    +0.000 A 
ATOM      4  C   UNL     1      46.643   7.315  12.184  0.00  0.00    +0.000 A 
ATOM      5  C   UNL     1      47.233   6.570  13.207  0.00  0.00    +0.000 A 
ATOM      6  C   UNL     1      46.852   5.238  13.316  0.00  0.00    +0.000 A 
ATOM      7  N   UNL     1      45.956   4.628  12.500  0.00  0.00    +0.000 NA
BRANCH   2   8
ATOM      8  C   UNL     1      44.434   4.678  10.579  0.00  0.00    +0.000 C 
BRANCH   8  13
ATOM      9  C   UNL     1      47.021   1.642   6.489  0.00  0.00    +0.000 C 
ATOM     10  C   UNL     1      46.353   2.436   7.568  0.00  0.00    +0.000 A 
ATOM     11  C   UNL     1      46.348   3.825   7.547  0.00  0.00    +0.000 A 
ATOM     12  N   UNL     1      45.747   4.576   8.501  0.00  0.00    +0.000 NA
ATOM     13  C   UNL     1      45.128   3.888   9.496  0.00  0.00    +0.000 A 
ATOM     14  C   UNL     1      45.137   2.497   9.517  0.00  0.00    +0.000 A 
ATOM     15  N   UNL     1      45.748   1.746   8.566  0.00  0.00    +0.000 NA
ENDBRANCH   8  13
ENDBRANCH   2   8
ENDBRANCH   1   5
BRANCH   1  16
ATOM     16  N   UNL     1      48.133   6.675  15.456  0.00  0.00    +0.000 N 
ATOM     17  C   UNL     1      49.203   6.310  16.236  0.00  0.00    +0.000 C 
ATOM     18  O   UNL     1      50.362   6.405  15.849  0.00  0.00    +0.000 OA
ATOM     19  H   UNL     1      47.215   6.327  15.704  0.00  0.00    +0.000 HD
BRANCH  17  20
ATOM     20  C   UNL     1      48.870   5.871  17.600  0.00  0.00    +0.000 A 
ATOM     21  C   UNL     1      49.079   4.552  17.984  0.00  0.00    +0.000 A 
ATOM     22  S   UNL     1      48.731   4.261  19.630  0.00  0.00    +0.000 S 
ATOM     23  C   UNL     1      48.228   5.869  19.869  0.00  0.00    +0.000 A 
ATOM     24  N   UNL     1      47.787   6.296  21.083  0.00  0.00    +0.000 NA
ATOM     25  C   UNL     1      47.414   7.531  21.112  0.00  0.00    +0.000 A 
ATOM     26  N   UNL     1      47.437   8.380  20.034  0.00  0.00    +0.000 N 
ATOM     27  C   UNL     1      47.894   8.000  18.799  0.00  0.00    +0.000 A 
ATOM     28  O   UNL     1      47.932   8.793  17.861  0.00  0.00    +0.000 OA
ATOM     29  C   UNL     1      48.331   6.617  18.712  0.00  0.00    +0.000 A 
ATOM     30  H   UNL     1      47.137   9.339  20.123  0.00  0.00    +0.000 HD
ENDBRANCH  17  20
ENDBRANCH   1  16
TORSDOF 5
ENDMDL
MODEL 3
REMARK VINA RESULT:    -7.434      2.504      4.523
REMARK INTER + INTRA:         -10.425
REMARK INTER:                  -9.370
REMARK INTRA:                  -1.054
REMARK UNBOUND:                -0.817
REMARK  Name = 
REMARK  6 active torsions:
REMARK  status: ('A' for Active; 'I' for Inactive)
REMARK    1  A    between atoms: C_1  and  C_2
REMARK    2  A    between atoms: C_5  and  C_6
REMARK    3  A    between atoms: C_6  and  C_7
REMARK    4  A    between atoms: C_10  and  C_11
REMARK    5  A    between atoms: C_11  and  N_12
REMARK    6  A    between atoms: C_13  and  C_15
REMARK                            x       y       z     vdW  Elec       q    Type
REMARK                         _______ _______ _______ _____ _____    ______ ____
ROOT
ATOM      1  C   UNL     1      47.412   5.340  14.899  0.00  0.00    +0.000 C 
ENDROOT
BRANCH   1   5
ATOM      2  C   UNL     1      44.958   3.941  11.695  0.00  0.00    +0.000 A 
ATOM      3  C   UNL     1      45.013   5.310  11.943  0.00  0.00    +0.000 A 
ATOM      4  C   UNL     1      45.811   5.779  12.985  0.00  0.00    +0.000 A 
ATOM      5  C   UNL     1      46.509   4.877  13.791  0.00  0.00    +0.000 A 
ATOM      6  C   UNL     1      46.381   3.528  13.479  0.00  0.00    +0.000 A 
ATOM      7  N   UNL     1      45.634   3.044  12.456  0.00  0.00    +0.000 NA
BRANCH   2   8
ATOM      8  C   UNL     1      44.172   3.402  10.521  0.00  0.00    +0.000 C 
BRANCH   8  13
ATOM      9  C   UNL     1      47.385   2.527   5.880  0.00  0.00    +0.000 C 
ATOM     10  C   UNL     1      46.534   2.756   7.089  0.00  0.00    +0.000 A 
ATOM     11  C   UNL     1      46.224   1.721   7.963  0.00  0.00    +0.000 A 
ATOM     12  N   UNL     1      45.463   1.892   9.071  0.00  0.00    +0.000 NA
ATOM     13  C   UNL     1      45.015   3.155   9.295  0.00  0.00    +0.000 A 
ATOM     14  C   UNL     1      45.324   4.190   8.416  0.00  0.00    +0.000 A 
ATOM     15  N   UNL     1      46.078   4.015   7.302  0.00  0.00    +0.000 NA
ENDBRANCH   8  13
ENDBRANCH   2   8
ENDBRANCH   1   5
BRANCH   1  16
ATOM     16  N   UNL     1      47.750   6.731  14.739  0.00  0.00    +0.000 N 
ATOM     17  C   UNL     1      49.000   7.225  15.020  0.00  0.00    +0.000 C 
ATOM     18  O   UNL     1      49.923   6.509  15.391  0.00  0.00    +0.000 OA
ATOM     19  H   UNL     1      46.971   7.377  14.708  0.00  0.00    +0.000 HD
BRANCH  17  20
ATOM     20  C   UNL     1      49.181   8.663  14.769  0.00  0.00    +0.000 A 
ATOM     21  C   UNL     1      49.469   9.528  15.818  0.00  0.00    +0.000 A 
ATOM     22  S   UNL     1      49.748  11.136  15.316  0.00  0.00    +0.000 S 
ATOM     23  C   UNL     1      49.429  10.746  13.691  0.00  0.00    +0.000 A 
ATOM     24  N   UNL     1      49.486  11.691  12.714  0.00  0.00    +0.000 NA
ATOM     25  C   UNL     1      49.196  11.259  11.533  0.00  0.00    +0.000 A 
ATOM     26  N   UNL     1      48.848   9.965  11.239  0.00  0.00    +0.000 N 
ATOM     27  C   UNL     1      48.800   8.974  12.185  0.00  0.00    +0.000 A 
ATOM     28  O   UNL     1      48.516   7.817  11.884  0.00  0.00    +0.000 OA
ATOM     29  C   UNL     1      49.122   9.407  13.534  0.00  0.00    +0.000 A 
ATOM     30  H   UNL     1      48.639   9.688  10.292  0.00  0.00    +0.000 HD
ENDBRANCH  17  20
ENDBRANCH   1  16
TORSDOF 5
ENDMDL
MODEL 4
REMARK VINA RESULT:    -7.373      3.950      4.993
REMARK INTER + INTRA:         -10.346
REMARK INTER:                  -9.468
REMARK INTRA:                  -0.877
REMARK UNBOUND:                -0.817
REMARK  Name = 
REMARK  6 active torsions:
REMARK  status: ('A' for Active; 'I' for Inactive)
REMARK    1  A    between atoms: C_1  and  C_2
REMARK    2  A    between atoms: C_5  and  C_6
REMARK    3  A    between atoms: C_6  and  C_7
REMARK    4  A    between atoms: C_10  and  C_11
REMARK    5  A    between atoms: C_11  and  N_12
REMARK    6  A    between atoms: C_13  and  C_15
REMARK                            x       y       z     vdW  Elec       q    Type
REMARK                         _______ _______ _______ _____ _____    ______ ____
ROOT
ATOM      1  C   UNL     1      45.098   8.087  12.717  0.00  0.00    +0.000 C 
ENDROOT
BRANCH   1   5
ATOM      2  C   UNL     1      44.402   4.286  10.897  0.00  0.00    +0.000 A 
ATOM      3  C   UNL     1      43.394   5.246  10.840  0.00  0.00    +0.000 A 
ATOM      4  C   UNL     1      43.610   6.491  11.430  0.00  0.00    +0.000 A 
ATOM      5  C   UNL     1      44.807   6.747  12.102  0.00  0.00    +0.000 A 
ATOM      6  C   UNL     1      45.748   5.724  12.121  0.00  0.00    +0.000 A 
ATOM      7  N   UNL     1      45.577   4.513  11.534  0.00  0.00    +0.000 NA
BRANCH   2   8
ATOM      8  C   UNL     1      44.238   2.956  10.195  0.00  0.00    +0.000 C 
BRANCH   8  13
ATOM      9  C   UNL     1      47.682   2.390   5.673  0.00  0.00    +0.000 C 
ATOM     10  C   UNL     1      46.770   2.537   6.850  0.00  0.00    +0.000 A 
ATOM     11  C   UNL     1      46.571   1.493   7.746  0.00  0.00    +0.000 A 
ATOM     12  N   UNL     1      45.760   1.591   8.827  0.00  0.00    +0.000 NA
ATOM     13  C   UNL     1      45.145   2.791   9.001  0.00  0.00    +0.000 A 
ATOM     14  C   UNL     1      45.343   3.834   8.101  0.00  0.00    +0.000 A 
ATOM     15  N   UNL     1      46.148   3.730   7.013  0.00  0.00    +0.000 NA
ENDBRANCH   8  13
ENDBRANCH   2   8
ENDBRANCH   1   5
BRANCH   1  16
ATOM     16  N   UNL     1      46.286   8.666  12.146  0.00  0.00    +0.000 N 
ATOM     17  C   UNL     1      47.341   9.095  12.914  0.00  0.00    +0.000 C 
ATOM     18  O   UNL     1      47.358   8.980  14.134  0.00  0.00    +0.000 OA
ATOM     19  H   UNL     1      46.198   9.025  11.204  0.00  0.00    +0.000 HD
BRANCH  17  20
ATOM     20  C   UNL     1      48.489   9.633  12.166  0.00  0.00    +0.000 A 
ATOM     21  C   UNL     1      48.535  10.978  11.822  0.00  0.00    +0.000 A 
ATOM     22  S   UNL     1      49.990  11.432  11.051  0.00  0.00    +0.000 S 
ATOM     23  C   UNL     1      50.578   9.836  11.091  0.00  0.00    +0.000 A 
ATOM     24  N   UNL     1      51.796   9.521  10.574  0.00  0.00    +0.000 NA
ATOM     25  C   UNL     1      52.101   8.269  10.649  0.00  0.00    +0.000 A 
ATOM     26  N   UNL     1      51.296   7.300  11.193  0.00  0.00    +0.000 N 
ATOM     27  C   UNL     1      50.073   7.574  11.746  0.00  0.00    +0.000 A 
ATOM     28  O   UNL     1      49.389   6.689  12.254  0.00  0.00    +0.000 OA
ATOM     29  C   UNL     1      49.681   8.972  11.690  0.00  0.00    +0.000 A 
ATOM     30  H   UNL     1      51.596   6.338  11.228  0.00  0.00    +0.000 HD
ENDBRANCH  17  20
ENDBRANCH   1  16
TORSDOF 5
ENDMDL
MODEL 5
REMARK VINA RESULT:    -7.160      2.909      4.625
REMARK INTER + INTRA:         -10.070
REMARK INTER:                  -9.178
REMARK INTRA:                  -0.892
REMARK UNBOUND:                -0.817
REMARK  Name = 
REMARK  6 active torsions:
REMARK  status: ('A' for Active; 'I' for Inactive)
REMARK    1  A    between atoms: C_1  and  C_2
REMARK    2  A    between atoms: C_5  and  C_6
REMARK    3  A    between atoms: C_6  and  C_7
REMARK    4  A    between atoms: C_10  and  C_11
REMARK    5  A    between atoms: C_11  and  N_12
REMARK    6  A    between atoms: C_13  and  C_15
REMARK                            x       y       z     vdW  Elec       q    Type
REMARK                         _______ _______ _______ _____ _____    ______ ____
ROOT
ATOM      1  C   UNL     1      47.210   5.655  14.732  0.00  0.00    +0.000 C 
ENDROOT
BRANCH   1   5
ATOM      2  C   UNL     1      44.895   3.737  11.698  0.00  0.00    +0.000 A 
ATOM      3  C   UNL     1      44.693   5.095  11.930  0.00  0.00    +0.000 A 
ATOM      4  C   UNL     1      45.444   5.733  12.916  0.00  0.00    +0.000 A 
ATOM      5  C   UNL     1      46.352   5.001  13.685  0.00  0.00    +0.000 A 
ATOM      6  C   UNL     1      46.475   3.648  13.394  0.00  0.00    +0.000 A 
ATOM      7  N   UNL     1      45.778   3.006  12.422  0.00  0.00    +0.000 NA
BRANCH   2   8
ATOM      8  C   UNL     1      44.163   3.030  10.579  0.00  0.00    +0.000 C 
BRANCH   8  13
ATOM      9  C   UNL     1      47.245   2.623   5.787  0.00  0.00    +0.000 C 
ATOM     10  C   UNL     1      46.428   2.728   7.036  0.00  0.00    +0.000 A 
ATOM     11  C   UNL     1      46.307   1.658   7.914  0.00  0.00    +0.000 A 
ATOM     12  N   UNL     1      45.582   1.718   9.058  0.00  0.00    +0.000 NA
ATOM     13  C   UNL     1      44.974   2.907   9.313  0.00  0.00    +0.000 A 
ATOM     14  C   UNL     1      45.094   3.976   8.430  0.00  0.00    +0.000 A 
ATOM     15  N   UNL     1      45.812   3.910   7.281  0.00  0.00    +0.000 NA
ENDBRANCH   8  13
ENDBRANCH   2   8
ENDBRANCH   1   5
BRANCH   1  16
ATOM     16  N   UNL     1      47.548   7.002  14.350  0.00  0.00    +0.000 N 
ATOM     17  C   UNL     1      48.574   7.289  13.482  0.00  0.00    +0.000 C 
ATOM     18  O   UNL     1      49.246   6.416  12.947  0.00  0.00    +0.000 OA
ATOM     19  H   UNL     1      47.216   7.736  14.964  0.00  0.00    +0.000 HD
BRANCH  17  20
ATOM     20  C   UNL     1      48.761   8.716  13.177  0.00  0.00    +0.000 A 
ATOM     21  C   UNL     1      48.893   9.141  11.860  0.00  0.00    +0.000 A 
ATOM     22  S   UNL     1      48.995  10.838  11.701  0.00  0.00    +0.000 S 
ATOM     23  C   UNL     1      48.933  11.059  13.387  0.00  0.00    +0.000 A 
ATOM     24  N   UNL     1      48.987  12.302  13.938  0.00  0.00    +0.000 NA
ATOM     25  C   UNL     1      48.956  12.317  15.228  0.00  0.00    +0.000 A 
ATOM     26  N   UNL     1      48.880  11.199  16.021  0.00  0.00    +0.000 N 
ATOM     27  C   UNL     1      48.801   9.930  15.511  0.00  0.00    +0.000 A 
ATOM     28  O   UNL     1      48.702   8.951  16.247  0.00  0.00    +0.000 OA
ATOM     29  C   UNL     1      48.828   9.856  14.060  0.00  0.00    +0.000 A 
ATOM     30  H   UNL     1      48.853  11.279  17.026  0.00  0.00    +0.000 HD
ENDBRANCH  17  20
ENDBRANCH   1  16
TORSDOF 5
ENDMDL
MODEL 6
REMARK VINA RESULT:    -7.132      1.773      2.148
REMARK INTER + INTRA:         -10.034
REMARK INTER:                  -9.264
REMARK INTRA:                  -0.770
REMARK UNBOUND:                -0.817
REMARK  Name = 
REMARK  6 active torsions:
REMARK  status: ('A' for Active; 'I' for Inactive)
REMARK    1  A    between atoms: C_1  and  C_2
REMARK    2  A    between atoms: C_5  and  C_6
REMARK    3  A    between atoms: C_6  and  C_7
REMARK    4  A    between atoms: C_10  and  C_11
REMARK    5  A    between atoms: C_11  and  N_12
REMARK    6  A    between atoms: C_13  and  C_15
REMARK                            x       y       z     vdW  Elec       q    Type
REMARK                         _______ _______ _______ _____ _____    ______ ____
ROOT
ATOM      1  C   UNL     1      48.282   7.406  14.061  0.00  0.00    +0.000 C 
ENDROOT
BRANCH   1   5
ATOM      2  C   UNL     1      45.356   5.229  11.837  0.00  0.00    +0.000 A 
ATOM      3  C   UNL     1      45.471   6.601  11.622  0.00  0.00    +0.000 A 
ATOM      4  C   UNL     1      46.423   7.322  12.341  0.00  0.00    +0.000 A 
ATOM      5  C   UNL     1      47.216   6.676  13.292  0.00  0.00    +0.000 A 
ATOM      6  C   UNL     1      47.020   5.309  13.451  0.00  0.00    +0.000 A 
ATOM      7  N   UNL     1      46.121   4.576  12.747  0.00  0.00    +0.000 NA
BRANCH   2   8
ATOM      8  C   UNL     1      44.395   4.400  11.015  0.00  0.00    +0.000 C 
BRANCH   8  13
ATOM      9  C   UNL     1      46.789   2.219   6.309  0.00  0.00    +0.000 C 
ATOM     10  C   UNL     1      46.152   2.791   7.536  0.00  0.00    +0.000 A 
ATOM     11  C   UNL     1      45.710   1.975   8.571  0.00  0.00    +0.000 A 
ATOM     12  N   UNL     1      45.136   2.458   9.699  0.00  0.00    +0.000 NA
ATOM     13  C   UNL     1      45.019   3.810   9.775  0.00  0.00    +0.000 A 
ATOM     14  C   UNL     1      45.459   4.625   8.736  0.00  0.00    +0.000 A 
ATOM     15  N   UNL     1      46.025   4.139   7.602  0.00  0.00    +0.000 NA
ENDBRANCH   8  13
ENDBRANCH   2   8
ENDBRANCH   1   5
BRANCH   1  16
ATOM     16  N   UNL     1      48.173   7.136  15.472  0.00  0.00    +0.000 N 
ATOM     17  C   UNL     1      48.777   7.921  16.423  0.00  0.00    +0.000 C 
ATOM     18  O   UNL     1      49.418   8.925  16.138  0.00  0.00    +0.000 OA
ATOM     19  H   UNL     1      47.901   6.194  15.725  0.00  0.00    +0.000 HD
BRANCH  17  20
ATOM     20  C   UNL     1      48.535   7.520  17.818  0.00  0.00    +0.000 A 
ATOM     21  C   UNL     1      47.992   8.423  18.724  0.00  0.00    +0.000 A 
ATOM     22  S   UNL     1      47.689   7.743  20.261  0.00  0.00    +0.000 S 
ATOM     23  C   UNL     1      48.333   6.240  19.789  0.00  0.00    +0.000 A 
ATOM     24  N   UNL     1      48.385   5.192  20.654  0.00  0.00    +0.000 NA
ATOM     25  C   UNL     1      48.922   4.124  20.168  0.00  0.00    +0.000 A 
ATOM     26  N   UNL     1      49.416   4.008  18.894  0.00  0.00    +0.000 N 
ATOM     27  C   UNL     1      49.364   5.028  17.981  0.00  0.00    +0.000 A 
ATOM     28  O   UNL     1      49.786   4.883  16.836  0.00  0.00    +0.000 OA
ATOM     29  C   UNL     1      48.765   6.256  18.476  0.00  0.00    +0.000 A 
ATOM     30  H   UNL     1      49.818   3.141  18.571  0.00  0.00    +0.000 HD
ENDBRANCH  17  20
ENDBRANCH   1  16
TORSDOF 5
ENDMDL
MODEL 7
REMARK VINA RESULT:    -7.003      2.785      3.662
REMARK INTER + INTRA:          -9.867
REMARK INTER:                  -8.957
REMARK INTRA:                  -0.910
REMARK UNBOUND:                -0.817
REMARK  Name = 
REMARK  6 active torsions:
REMARK  status: ('A' for Active; 'I' for Inactive)
REMARK    1  A    between atoms: C_1  and  C_2
REMARK    2  A    between atoms: C_5  and  C_6
REMARK    3  A    between atoms: C_6  and  C_7
REMARK    4  A    between atoms: C_10  and  C_11
REMARK    5  A    between atoms: C_11  and  N_12
REMARK    6  A    between atoms: C_13  and  C_15
REMARK                            x       y       z     vdW  Elec       q    Type
REMARK                         _______ _______ _______ _____ _____    ______ ____
ROOT
ATOM      1  C   UNL     1      47.792   5.323  14.942  0.00  0.00    +0.000 C 
ENDROOT
BRANCH   1   5
ATOM      2  C   UNL     1      45.318   4.767  11.505  0.00  0.00    +0.000 A 
ATOM      3  C   UNL     1      45.941   6.000  11.684  0.00  0.00    +0.000 A 
ATOM      4  C   UNL     1      46.752   6.194  12.801  0.00  0.00    +0.000 A 
ATOM      5  C   UNL     1      46.897   5.173  13.744  0.00  0.00    +0.000 A 
ATOM      6  C   UNL     1      46.225   3.983  13.490  0.00  0.00    +0.000 A 
ATOM      7  N   UNL     1      45.451   3.757  12.399  0.00  0.00    +0.000 NA
BRANCH   2   8
ATOM      8  C   UNL     1      44.501   4.492  10.262  0.00  0.00    +0.000 C 
BRANCH   8  13
ATOM      9  C   UNL     1      47.451   1.945   6.085  0.00  0.00    +0.000 C 
ATOM     10  C   UNL     1      46.687   2.611   7.187  0.00  0.00    +0.000 A 
ATOM     11  C   UNL     1      46.608   3.995   7.279  0.00  0.00    +0.000 A 
ATOM     12  N   UNL     1      45.920   4.632   8.258  0.00  0.00    +0.000 NA
ATOM     13  C   UNL     1      45.290   3.832   9.158  0.00  0.00    +0.000 A 
ATOM     14  C   UNL     1      45.373   2.446   9.065  0.00  0.00    +0.000 A 
ATOM     15  N   UNL     1      46.070   1.810   8.090  0.00  0.00    +0.000 NA
ENDBRANCH   8  13
ENDBRANCH   2   8
ENDBRANCH   1   5
BRANCH   1  16
ATOM     16  N   UNL     1      47.921   6.709  15.316  0.00  0.00    +0.000 N 
ATOM     17  C   UNL     1      49.140   7.322  15.469  0.00  0.00    +0.000 C 
ATOM     18  O   UNL     1      50.200   6.743  15.262  0.00  0.00    +0.000 OA
ATOM     19  H   UNL     1      47.111   7.128  15.754  0.00  0.00    +0.000 HD
BRANCH  17  20
ATOM     20  C   UNL     1      49.088   8.750  15.822  0.00  0.00    +0.000 A 
ATOM     21  C   UNL     1      49.620   9.705  14.965  0.00  0.00    +0.000 A 
ATOM     22  S   UNL     1      49.371  11.309  15.497  0.00  0.00    +0.000 S 
ATOM     23  C   UNL     1      48.603  10.779  16.921  0.00  0.00    +0.000 A 
ATOM     24  N   UNL     1      48.140  11.666  17.843  0.00  0.00    +0.000 NA
ATOM     25  C   UNL     1      47.605  11.123  18.884  0.00  0.00    +0.000 A 
ATOM     26  N   UNL     1      47.492   9.771  19.090  0.00  0.00    +0.000 N 
ATOM     27  C   UNL     1      47.922   8.842  18.179  0.00  0.00    +0.000 A 
ATOM     28  O   UNL     1      47.778   7.638  18.378  0.00  0.00    +0.000 OA
ATOM     29  C   UNL     1      48.532   9.400  16.984  0.00  0.00    +0.000 A 
ATOM     30  H   UNL     1      47.055   9.409  19.924  0.00  0.00    +0.000 HD
ENDBRANCH  17  20
ENDBRANCH   1  16
TORSDOF 5
ENDMDL
MODEL 8
REMARK VINA RESULT:    -6.830      3.705      5.817
REMARK INTER + INTRA:          -9.644
REMARK INTER:                  -8.851
REMARK INTRA:                  -0.793
REMARK UNBOUND:                -0.817
REMARK  Name = 
REMARK  6 active torsions:
REMARK  status: ('A' for Active; 'I' for Inactive)
REMARK    1  A    between atoms: C_1  and  C_2
REMARK    2  A    between atoms: C_5  and  C_6
REMARK    3  A    between atoms: C_6  and  C_7
REMARK    4  A    between atoms: C_10  and  C_11
REMARK    5  A    between atoms: C_11  and  N_12
REMARK    6  A    between atoms: C_13  and  C_15
REMARK                            x       y       z     vdW  Elec       q    Type
REMARK                         _______ _______ _______ _____ _____    ______ ____
ROOT
ATOM      1  C   UNL     1      45.603   7.462  13.250  0.00  0.00    +0.000 C 
ENDROOT
BRANCH   1   5
ATOM      2  C   UNL     1      44.514   4.039  10.939  0.00  0.00    +0.000 A 
ATOM      3  C   UNL     1      43.814   5.227  10.739  0.00  0.00    +0.000 A 
ATOM      4  C   UNL     1      44.161   6.351  11.487  0.00  0.00    +0.000 A 
ATOM      5  C   UNL     1      45.169   6.266  12.450  0.00  0.00    +0.000 A 
ATOM      6  C   UNL     1      45.801   5.035  12.591  0.00  0.00    +0.000 A 
ATOM      7  N   UNL     1      45.504   3.932  11.859  0.00  0.00    +0.000 NA
BRANCH   2   8
ATOM      8  C   UNL     1      44.224   2.823  10.087  0.00  0.00    +0.000 C 
BRANCH   8  13
ATOM      9  C   UNL     1      47.776   2.324   5.640  0.00  0.00    +0.000 C 
ATOM     10  C   UNL     1      46.836   2.453   6.798  0.00  0.00    +0.000 A 
ATOM     11  C   UNL     1      46.630   1.402   7.684  0.00  0.00    +0.000 A 
ATOM     12  N   UNL     1      45.793   1.485   8.747  0.00  0.00    +0.000 NA
ATOM     13  C   UNL     1      45.159   2.675   8.912  0.00  0.00    +0.000 A 
ATOM     14  C   UNL     1      45.365   3.725   8.022  0.00  0.00    +0.000 A 
ATOM     15  N   UNL     1      46.195   3.637   6.953  0.00  0.00    +0.000 NA
ENDBRANCH   8  13
ENDBRANCH   2   8
ENDBRANCH   1   5
BRANCH   1  16
ATOM     16  N   UNL     1      46.583   8.233  12.529  0.00  0.00    +0.000 N 
ATOM     17  C   UNL     1      47.615   8.888  13.156  0.00  0.00    +0.000 C 
ATOM     18  O   UNL     1      47.793   8.828  14.367  0.00  0.00    +0.000 OA
ATOM     19  H   UNL     1      46.319   8.530  11.598  0.00  0.00    +0.000 HD
BRANCH  17  20
ATOM     20  C   UNL     1      48.542   9.603  12.265  0.00  0.00    +0.000 A 
ATOM     21  C   UNL     1      49.894   9.284  12.257  0.00  0.00    +0.000 A 
ATOM     22  S   UNL     1      50.789  10.146  11.085  0.00  0.00    +0.000 S 
ATOM     23  C   UNL     1      49.414  11.020  10.594  0.00  0.00    +0.000 A 
ATOM     24  N   UNL     1      49.488  11.955   9.609  0.00  0.00    +0.000 NA
ATOM     25  C   UNL     1      48.375  12.558   9.359  0.00  0.00    +0.000 A 
ATOM     26  N   UNL     1      47.191  12.314  10.009  0.00  0.00    +0.000 N 
ATOM     27  C   UNL     1      47.064  11.366  10.990  0.00  0.00    +0.000 A 
ATOM     28  O   UNL     1      45.982  11.149  11.531  0.00  0.00    +0.000 OA
ATOM     29  C   UNL     1      48.289  10.654  11.309  0.00  0.00    +0.000 A 
ATOM     30  H   UNL     1      46.352  12.815   9.761  0.00  0.00    +0.000 HD
ENDBRANCH  17  20
ENDBRANCH   1  16
TORSDOF 5
ENDMDL
MODEL 9
REMARK VINA RESULT:    -6.697      2.890      4.260
REMARK INTER + INTRA:          -9.472
REMARK INTER:                  -8.490
REMARK INTRA:                  -0.982
REMARK UNBOUND:                -0.817
REMARK  Name = 
REMARK  6 active torsions:
REMARK  status: ('A' for Active; 'I' for Inactive)
REMARK    1  A    between atoms: C_1  and  C_2
REMARK    2  A    between atoms: C_5  and  C_6
REMARK    3  A    between atoms: C_6  and  C_7
REMARK    4  A    between atoms: C_10  and  C_11
REMARK    5  A    between atoms: C_11  and  N_12
REMARK    6  A    between atoms: C_13  and  C_15
REMARK                            x       y       z     vdW  Elec       q    Type
REMARK                         _______ _______ _______ _____ _____    ______ ____
ROOT
ATOM      1  C   UNL     1      47.187   5.674  14.728  0.00  0.00    +0.000 C 
ENDROOT
BRANCH   1   5
ATOM      2  C   UNL     1      44.856   3.886  11.626  0.00  0.00    +0.000 A 
ATOM      3  C   UNL     1      44.653   5.233  11.920  0.00  0.00    +0.000 A 
ATOM      4  C   UNL     1      45.409   5.828  12.929  0.00  0.00    +0.000 A 
ATOM      5  C   UNL     1      46.324   5.065  13.659  0.00  0.00    +0.000 A 
ATOM      6  C   UNL     1      46.448   3.726  13.306  0.00  0.00    +0.000 A 
ATOM      7  N   UNL     1      45.746   3.127  12.312  0.00  0.00    +0.000 NA
BRANCH   2   8
ATOM      8  C   UNL     1      44.118   3.229  10.482  0.00  0.00    +0.000 C 
BRANCH   8  13
ATOM      9  C   UNL     1      47.387   2.434   5.865  0.00  0.00    +0.000 C 
ATOM     10  C   UNL     1      46.521   2.641   7.068  0.00  0.00    +0.000 A 
ATOM     11  C   UNL     1      46.267   1.609   7.964  0.00  0.00    +0.000 A 
ATOM     12  N   UNL     1      45.494   1.762   9.067  0.00  0.00    +0.000 NA
ATOM     13  C   UNL     1      44.977   3.003   9.263  0.00  0.00    +0.000 A 
ATOM     14  C   UNL     1      45.231   4.034   8.363  0.00  0.00    +0.000 A 
ATOM     15  N   UNL     1      45.996   3.877   7.253  0.00  0.00    +0.000 NA
ENDBRANCH   8  13
ENDBRANCH   2   8
ENDBRANCH   1   5
BRANCH   1  16
ATOM     16  N   UNL     1      48.349   6.302  14.153  0.00  0.00    +0.000 N 
ATOM     17  C   UNL     1      48.404   7.647  13.882  0.00  0.00    +0.000 C 
ATOM     18  O   UNL     1      47.481   8.410  14.145  0.00  0.00    +0.000 OA
ATOM     19  H   UNL     1      48.998   5.688  13.678  0.00  0.00    +0.000 HD
BRANCH  17  20
ATOM     20  C   UNL     1      49.678   8.128  13.325  0.00  0.00    +0.000 A 
ATOM     21  C   UNL     1      49.726   8.668  12.046  0.00  0.00    +0.000 A 
ATOM     22  S   UNL     1      51.268   9.265  11.618  0.00  0.00    +0.000 S 
ATOM     23  C   UNL     1      51.938   8.762  13.099  0.00  0.00    +0.000 A 
ATOM     24  N   UNL     1      53.253   8.966  13.383  0.00  0.00    +0.000 NA
ATOM     25  C   UNL     1      53.629   8.510  14.531  0.00  0.00    +0.000 A 
ATOM     26  N   UNL     1      52.809   7.865  15.422  0.00  0.00    +0.000 N 
ATOM     27  C   UNL     1      51.474   7.659  15.189  0.00  0.00    +0.000 A 
ATOM     28  O   UNL     1      50.759   7.105  16.021  0.00  0.00    +0.000 OA
ATOM     29  C   UNL     1      50.997   8.156  13.910  0.00  0.00    +0.000 A 
ATOM     30  H   UNL     1      53.163   7.538  16.308  0.00  0.00    +0.000 HD
ENDBRANCH  17  20
ENDBRANCH   1  16
TORSDOF 5
ENDMDL
