MODEL 1
REMARK VINA RESULT:    -8.322      0.000      0.000
REMARK INTER + INTRA:         -11.020
REMARK INTER:                 -10.268
REMARK INTRA:                  -0.752
REMARK UNBOUND:                -0.752
REMARK  Name = 
REMARK  5 active torsions:
REMARK  status: ('A' for Active; 'I' for Inactive)
REMARK    1  A    between atoms: C_1  and  C_2
REMARK    2  A    between atoms: C_4  and  C_5
REMARK    3  A    between atoms: C_5  and  O_6
REMARK    4  A    between atoms: O_6  and  C_7
REMARK    5  A    between atoms: C_11  and  C_12
REMARK                            x       y       z     vdW  Elec       q    Type
REMARK                         _______ _______ _______ _____ _____    ______ ____
ROOT
ATOM      1  C   UNL     1      43.920   5.031  10.782  0.00  0.00    +0.000 A 
ATOM      2  C   UNL     1      43.232   4.085  11.529  0.00  0.00    +0.000 A 
ATOM      3  N   UNL     1      43.252   2.758  11.278  0.00  0.00    +0.000 NA
ATOM      4  C   UNL     1      44.021   2.355  10.238  0.00  0.00    +0.000 A 
ATOM      5  C   UNL     1      44.775   3.200   9.416  0.00  0.00    +0.000 A 
ATOM      6  C   UNL     1      44.697   4.573   9.718  0.00  0.00    +0.000 A 
ENDROOT
BRANCH   5   7
ATOM      7  C   UNL     1      45.614   2.683   8.311  0.00  0.00    +0.000 A 
ATOM      8  C   UNL     1      46.165   1.385   8.350  0.00  0.00    +0.000 A 
ATOM      9  C   UNL     1      46.971   0.896   7.313  0.00  0.00    +0.000 A 
ATOM     10  C   UNL     1      47.235   1.693   6.204  0.00  0.00    +0.000 A 
ATOM     11  C   UNL     1      46.694   2.970   6.147  0.00  0.00    +0.000 A 
ATOM     12  F   UNL     1      46.940   3.739   5.078  0.00  0.00    +0.000 F 
ATOM     13  C   UNL     1      45.904   3.467   7.180  0.00  0.00    +0.000 A 
ENDBRANCH   5   7
BRANCH   1  14
ATOM     14  O   UNL     1      43.809   6.324  11.198  0.00  0.00    +0.000 OA
BRANCH  14  15
ATOM     15  C   UNL     1      44.187   6.603  12.547  0.00  0.00    +0.000 C 
BRANCH  15  19
ATOM     16  C   UNL     1      48.967   7.910  11.573  0.00  0.00    +0.000 C 
ATOM     17  C   UNL     1      47.957   7.045  12.265  0.00  0.00    +0.000 A 
ATOM     18  C   UNL     1      46.595   7.232  12.054  0.00  0.00    +0.000 A 
ATOM     19  C   UNL     1      45.675   6.399  12.704  0.00  0.00    +0.000 A 
ATOM     20  C   UNL     1      46.168   5.423  13.571  0.00  0.00    +0.000 A 
ATOM     21  C   UNL     1      47.539   5.308  13.729  0.00  0.00    +0.000 A 
ATOM     22  N   UNL     1      48.439   6.092  13.097  0.00  0.00    +0.000 NA
ENDBRANCH  15  19
ENDBRANCH  14  15
ENDBRANCH   1  14
TORSDOF 4
ENDMDL
MODEL 2
REMARK VINA RESULT:    -8.144      1.193      2.129
REMARK INTER + INTRA:         -10.800
REMARK INTER:                 -10.578
REMARK INTRA:                  -0.223
REMARK UNBOUND:                -0.752
REMARK  Name = 
REMARK  5 active torsions:
REMARK  status: ('A' for Active; 'I' for Inactive)
REMARK    1  A    between atoms: C_1  and  C_2
REMARK    2  A    between atoms: C_4  and  C_5
REMARK    3  A    between atoms: C_5  and  O_6
REMARK    4  A    between atoms: O_6  and  C_7
REMARK    5  A    between atoms: C_11  and  C_12
REMARK                            x       y       z     vdW  Elec       q    Type
REMARK                         _______ _______ _______ _____ _____    ______ ____
ROOT
ATOM      1  C   UNL     1      43.981   5.129  11.164  0.00  0.00    +0.000 A 
ATOM      2  C   UNL     1      43.180   4.199  11.810  0.00  0.00    +0.000 A 
ATOM      3  N   UNL     1      43.097   2.897  11.463  0.00  0.00    +0.000 NA
ATOM      4  C   UNL     1      43.876   2.501  10.428  0.00  0.00    +0.000 A 
ATOM      5  C   UNL     1      44.738   3.330   9.702  0.00  0.00    +0.000 A 
ATOM      6  C   UNL     1      44.765   4.680  10.101  0.00  0.00    +0.000 A 
ENDROOT
BRANCH   5   7
ATOM      7  C   UNL     1      45.580   2.819   8.596  0.00  0.00    +0.000 A 
ATOM      8  C   UNL     1      46.061   3.673   7.583  0.00  0.00    +0.000 A 
ATOM      9  C   UNL     1      46.847   3.192   6.527  0.00  0.00    +0.000 A 
ATOM     10  C   UNL     1      47.180   1.844   6.467  0.00  0.00    +0.000 A 
ATOM     11  C   UNL     1      46.721   0.991   7.461  0.00  0.00    +0.000 A 
ATOM     12  F   UNL     1      47.044  -0.309   7.412  0.00  0.00    +0.000 F 
ATOM     13  C   UNL     1      45.928   1.459   8.505  0.00  0.00    +0.000 A 
ENDBRANCH   5   7
BRANCH   1  14
ATOM     14  O   UNL     1      43.962   6.395  11.670  0.00  0.00    +0.000 OA
BRANCH  14  15
ATOM     15  C   UNL     1      45.090   7.222  11.382  0.00  0.00    +0.000 C 
BRANCH  15  19
ATOM     16  C   UNL     1      47.067   4.498  15.147  0.00  0.00    +0.000 C 
ATOM     17  C   UNL     1      47.209   5.466  14.012  0.00  0.00    +0.000 A 
ATOM     18  C   UNL     1      46.098   5.876  13.282  0.00  0.00    +0.000 A 
ATOM     19  C   UNL     1      46.260   6.793  12.235  0.00  0.00    +0.000 A 
ATOM     20  C   UNL     1      47.549   7.242  11.945  0.00  0.00    +0.000 A 
ATOM     21  C   UNL     1      48.601   6.778  12.718  0.00  0.00    +0.000 A 
ATOM     22  N   UNL     1      48.459   5.907  13.740  0.00  0.00    +0.000 NA
ENDBRANCH  15  19
ENDBRANCH  14  15
ENDBRANCH   1  14
TORSDOF 4
ENDMDL
MODEL 3
REMARK VINA RESULT:    -8.031      1.552      2.211
REMARK INTER + INTRA:         -10.662
REMARK INTER:                 -10.007
REMARK INTRA:                  -0.655
REMARK UNBOUND:                -0.752
REMARK  Name = 
REMARK  5 active torsions:
REMARK  status: ('A' for Active; 'I' for Inactive)
REMARK    1  A    between atoms: C_1  and  C_2
REMARK    2  A    between atoms: C_4  and  C_5
REMARK    3  A    between atoms: C_5  and  O_6
REMARK    4  A    between atoms: O_6  and  C_7
REMARK    5  A    between atoms: C_11  and  C_12
REMARK                            x       y       z     vdW  Elec       q    Type
REMARK                         _______ _______ _______ _____ _____    ______ ____
ROOT
ATOM      1  C   UNL     1      44.294   5.389  11.003  0.00  0.00    +0.000 A 
ATOM      2  C   UNL     1      43.404   4.544  11.650  0.00  0.00    +0.000 A 
ATOM      3  N   UNL     1      43.211   3.248  11.320  0.00  0.00    +0.000 NA
ATOM      4  C   UNL     1      43.966   2.769  10.303  0.00  0.00    +0.000 A 
ATOM      5  C   UNL     1      44.908   3.508   9.579  0.00  0.00    +0.000 A 
ATOM      6  C   UNL     1      45.049   4.856   9.959  0.00  0.00    +0.000 A 
ENDROOT
BRANCH   5   7
ATOM      7  C   UNL     1      45.717   2.907   8.493  0.00  0.00    +0.000 A 
ATOM      8  C   UNL     1      46.247   3.694   7.449  0.00  0.00    +0.000 A 
ATOM      9  C   UNL     1      47.000   3.128   6.412  0.00  0.00    +0.000 A 
ATOM     10  C   UNL     1      47.253   1.761   6.403  0.00  0.00    +0.000 A 
ATOM     11  C   UNL     1      46.745   0.974   7.426  0.00  0.00    +0.000 A 
ATOM     12  F   UNL     1      46.990  -0.344   7.425  0.00  0.00    +0.000 F 
ATOM     13  C   UNL     1      45.982   1.527   8.452  0.00  0.00    +0.000 A 
ENDBRANCH   5   7
BRANCH   1  14
ATOM     14  O   UNL     1      44.379   6.660  11.491  0.00  0.00    +0.000 OA
BRANCH  14  15
ATOM     15  C   UNL     1      45.126   6.839  12.695  0.00  0.00    +0.000 C 
BRANCH  15  19
ATOM     16  C   UNL     1      49.937   7.721  11.438  0.00  0.00    +0.000 C 
ATOM     17  C   UNL     1      48.566   8.203  11.805  0.00  0.00    +0.000 A 
ATOM     18  C   UNL     1      47.545   7.301  12.084  0.00  0.00    +0.000 A 
ATOM     19  C   UNL     1      46.277   7.782  12.438  0.00  0.00    +0.000 A 
ATOM     20  C   UNL     1      46.080   9.163  12.467  0.00  0.00    +0.000 A 
ATOM     21  C   UNL     1      47.151   9.991  12.169  0.00  0.00    +0.000 A 
ATOM     22  N   UNL     1      48.382   9.544  11.843  0.00  0.00    +0.000 NA
ENDBRANCH  15  19
ENDBRANCH  14  15
ENDBRANCH   1  14
TORSDOF 4
ENDMDL
MODEL 4
REMARK VINA RESULT:    -8.019      3.011      6.753
REMARK INTER + INTRA:         -10.647
REMARK INTER:                  -9.978
REMARK INTRA:                  -0.669
REMARK UNBOUND:                -0.752
REMARK  Name = 
REMARK  5 active torsions:
REMARK  status: ('A' for Active; 'I' for Inactive)
REMARK    1  A    between atoms: C_1  and  C_2
REMARK    2  A    between atoms: C_4  and  C_5
REMARK    3  A    between atoms: C_5  and  O_6
REMARK    4  A    between atoms: O_6  and  C_7
REMARK    5  A    between atoms: C_11  and  C_12
REMARK                            x       y       z     vdW  Elec       q    Type
REMARK                         _______ _______ _______ _____ _____    ______ ____
ROOT
ATOM      1  C   UNL     1      44.840   4.040  10.794  0.00  0.00    +0.000 A 
ATOM      2  C   UNL     1      44.819   3.352  11.998  0.00  0.00    +0.000 A 
ATOM      3  N   UNL     1      45.280   3.851  13.166  0.00  0.00    +0.000 NA
ATOM      4  C   UNL     1      45.766   5.115  13.128  0.00  0.00    +0.000 A 
ATOM      5  C   UNL     1      45.831   5.922  11.987  0.00  0.00    +0.000 A 
ATOM      6  C   UNL     1      45.352   5.337  10.799  0.00  0.00    +0.000 A 
ENDROOT
BRANCH   5   7
ATOM      7  C   UNL     1      46.354   7.307  12.029  0.00  0.00    +0.000 A 
ATOM      8  C   UNL     1      47.739   7.571  12.001  0.00  0.00    +0.000 A 
ATOM      9  C   UNL     1      48.239   8.879  12.054  0.00  0.00    +0.000 A 
ATOM     10  C   UNL     1      47.362   9.956  12.124  0.00  0.00    +0.000 A 
ATOM     11  C   UNL     1      45.996   9.713  12.144  0.00  0.00    +0.000 A 
ATOM     12  F   UNL     1      45.145  10.747  12.204  0.00  0.00    +0.000 F 
ATOM     13  C   UNL     1      45.492   8.415  12.106  0.00  0.00    +0.000 A 
ENDBRANCH   5   7
BRANCH   1  14
ATOM     14  O   UNL     1      44.305   3.391   9.720  0.00  0.00    +0.000 OA
BRANCH  14  15
ATOM     15  C   UNL     1      44.701   3.849   8.427  0.00  0.00    +0.000 C 
BRANCH  15  19
ATOM     16  C   UNL     1      46.854  -0.667   7.741  0.00  0.00    +0.000 C 
ATOM     17  C   UNL     1      46.832   0.819   7.550  0.00  0.00    +0.000 A 
ATOM     18  C   UNL     1      45.808   1.591   8.090  0.00  0.00    +0.000 A 
ATOM     19  C   UNL     1      45.820   2.980   7.907  0.00  0.00    +0.000 A 
ATOM     20  C   UNL     1      46.858   3.537   7.156  0.00  0.00    +0.000 A 
ATOM     21  C   UNL     1      47.835   2.695   6.650  0.00  0.00    +0.000 A 
ATOM     22  N   UNL     1      47.845   1.357   6.831  0.00  0.00    +0.000 NA
ENDBRANCH  15  19
ENDBRANCH  14  15
ENDBRANCH   1  14
TORSDOF 4
ENDMDL
MODEL 5
REMARK VINA RESULT:    -8.010      2.728      6.626
REMARK INTER + INTRA:         -10.635
REMARK INTER:                  -9.951
REMARK INTRA:                  -0.685
REMARK UNBOUND:                -0.752
REMARK  Name = 
REMARK  5 active torsions:
REMARK  status: ('A' for Active; 'I' for Inactive)
REMARK    1  A    between atoms: C_1  and  C_2
REMARK    2  A    between atoms: C_4  and  C_5
REMARK    3  A    between atoms: C_5  and  O_6
REMARK    4  A    between atoms: O_6  and  C_7
REMARK    5  A    between atoms: C_11  and  C_12
REMARK                            x       y       z     vdW  Elec       q    Type
REMARK                         _______ _______ _______ _____ _____    ______ ____
ROOT
ATOM      1  C   UNL     1      44.818   4.031  10.867  0.00  0.00    +0.000 A 
ATOM      2  C   UNL     1      44.583   3.448  12.104  0.00  0.00    +0.000 A 
ATOM      3  N   UNL     1      44.977   3.980  13.281  0.00  0.00    +0.000 NA
ATOM      4  C   UNL     1      45.620   5.170  13.217  0.00  0.00    +0.000 A 
ATOM      5  C   UNL     1      45.907   5.871  12.041  0.00  0.00    +0.000 A 
ATOM      6  C   UNL     1      45.487   5.255  10.846  0.00  0.00    +0.000 A 
ENDROOT
BRANCH   5   7
ATOM      7  C   UNL     1      46.593   7.183  12.050  0.00  0.00    +0.000 A 
ATOM      8  C   UNL     1      45.899   8.375  12.347  0.00  0.00    +0.000 A 
ATOM      9  C   UNL     1      46.541   9.620  12.343  0.00  0.00    +0.000 A 
ATOM     10  C   UNL     1      47.898   9.701  12.054  0.00  0.00    +0.000 A 
ATOM     11  C   UNL     1      48.598   8.538  11.768  0.00  0.00    +0.000 A 
ATOM     12  F   UNL     1      49.908   8.609  11.494  0.00  0.00    +0.000 F 
ATOM     13  C   UNL     1      47.963   7.298  11.755  0.00  0.00    +0.000 A 
ENDBRANCH   5   7
BRANCH   1  14
ATOM     14  O   UNL     1      44.321   3.367   9.785  0.00  0.00    +0.000 OA
BRANCH  14  15
ATOM     15  C   UNL     1      44.712   3.848   8.498  0.00  0.00    +0.000 C 
BRANCH  15  19
ATOM     16  C   UNL     1      46.837  -0.666   7.719  0.00  0.00    +0.000 C 
ATOM     17  C   UNL     1      46.820   0.823   7.552  0.00  0.00    +0.000 A 
ATOM     18  C   UNL     1      45.805   1.591   8.114  0.00  0.00    +0.000 A 
ATOM     19  C   UNL     1      45.823   2.983   7.953  0.00  0.00    +0.000 A 
ATOM     20  C   UNL     1      46.856   3.547   7.202  0.00  0.00    +0.000 A 
ATOM     21  C   UNL     1      47.823   2.708   6.673  0.00  0.00    +0.000 A 
ATOM     22  N   UNL     1      47.829   1.368   6.832  0.00  0.00    +0.000 NA
ENDBRANCH  15  19
ENDBRANCH  14  15
ENDBRANCH   1  14
TORSDOF 4
ENDMDL
MODEL 6
REMARK VINA RESULT:    -7.528      2.308      2.931
REMARK INTER + INTRA:         -10.040
REMARK INTER:                  -9.505
REMARK INTRA:                  -0.535
REMARK UNBOUND:                -0.752
REMARK  Name = 
REMARK  5 active torsions:
REMARK  status: ('A' for Active; 'I' for Inactive)
REMARK    1  A    between atoms: C_1  and  C_2
REMARK    2  A    between atoms: C_4  and  C_5
REMARK    3  A    between atoms: C_5  and  O_6
REMARK    4  A    between atoms: O_6  and  C_7
REMARK    5  A    between atoms: C_11  and  C_12
REMARK                            x       y       z     vdW  Elec       q    Type
REMARK                         _______ _______ _______ _____ _____    ______ ____
ROOT
ATOM      1  C   UNL     1      44.151   5.421  11.333  0.00  0.00    +0.000 A 
ATOM      2  C   UNL     1      43.296   4.531  11.966  0.00  0.00    +0.000 A 
ATOM      3  N   UNL     1      43.129   3.243  11.594  0.00  0.00    +0.000 NA
ATOM      4  C   UNL     1      43.877   2.819  10.548  0.00  0.00    +0.000 A 
ATOM      5  C   UNL     1      44.786   3.606   9.833  0.00  0.00    +0.000 A 
ATOM      6  C   UNL     1      44.900   4.944  10.257  0.00  0.00    +0.000 A 
ENDROOT
BRANCH   5   7
ATOM      7  C   UNL     1      45.589   3.064   8.713  0.00  0.00    +0.000 A 
ATOM      8  C   UNL     1      46.072   3.898   7.683  0.00  0.00    +0.000 A 
ATOM      9  C   UNL     1      46.821   3.388   6.614  0.00  0.00    +0.000 A 
ATOM     10  C   UNL     1      47.114   2.030   6.557  0.00  0.00    +0.000 A 
ATOM     11  C   UNL     1      46.652   1.197   7.565  0.00  0.00    +0.000 A 
ATOM     12  F   UNL     1      46.937  -0.112   7.519  0.00  0.00    +0.000 F 
ATOM     13  C   UNL     1      45.895   1.695   8.623  0.00  0.00    +0.000 A 
ENDBRANCH   5   7
BRANCH   1  14
ATOM     14  O   UNL     1      44.214   6.676  11.863  0.00  0.00    +0.000 OA
BRANCH  14  15
ATOM     15  C   UNL     1      45.392   7.006  12.600  0.00  0.00    +0.000 C 
BRANCH  15  19
ATOM     16  C   UNL     1      44.297  11.721  11.162  0.00  0.00    +0.000 C 
ATOM     17  C   UNL     1      45.273  10.684  11.629  0.00  0.00    +0.000 A 
ATOM     18  C   UNL     1      44.865   9.375  11.861  0.00  0.00    +0.000 A 
ATOM     19  C   UNL     1      45.802   8.424  12.284  0.00  0.00    +0.000 A 
ATOM     20  C   UNL     1      47.119   8.841  12.487  0.00  0.00    +0.000 A 
ATOM     21  C   UNL     1      47.440  10.166  12.238  0.00  0.00    +0.000 A 
ATOM     22  N   UNL     1      46.551  11.090  11.814  0.00  0.00    +0.000 NA
ENDBRANCH  15  19
ENDBRANCH  14  15
ENDBRANCH   1  14
TORSDOF 4
ENDMDL
MODEL 7
REMARK VINA RESULT:    -7.208      3.268      7.036
REMARK INTER + INTRA:          -9.646
REMARK INTER:                  -9.116
REMARK INTRA:                  -0.529
REMARK UNBOUND:                -0.752
REMARK  Name = 
REMARK  5 active torsions:
REMARK  status: ('A' for Active; 'I' for Inactive)
REMARK    1  A    between atoms: C_1  and  C_2
REMARK    2  A    between atoms: C_4  and  C_5
REMARK    3  A    between atoms: C_5  and  O_6
REMARK    4  A    between atoms: O_6  and  C_7
REMARK    5  A    between atoms: C_11  and  C_12
REMARK                            x       y       z     vdW  Elec       q    Type
REMARK                         _______ _______ _______ _____ _____    ______ ____
ROOT
ATOM      1  C   UNL     1      44.520   4.240  10.683  0.00  0.00    +0.000 A 
ATOM      2  C   UNL     1      43.349   4.952  10.900  0.00  0.00    +0.000 A 
ATOM      3  N   UNL     1      43.121   5.726  11.983  0.00  0.00    +0.000 NA
ATOM      4  C   UNL     1      44.128   5.809  12.884  0.00  0.00    +0.000 A 
ATOM      5  C   UNL     1      45.361   5.156  12.780  0.00  0.00    +0.000 A 
ATOM      6  C   UNL     1      45.530   4.350  11.638  0.00  0.00    +0.000 A 
ENDROOT
BRANCH   5   7
ATOM      7  C   UNL     1      46.427   5.315  13.796  0.00  0.00    +0.000 A 
ATOM      8  C   UNL     1      47.304   6.420  13.777  0.00  0.00    +0.000 A 
ATOM      9  C   UNL     1      48.322   6.567  14.727  0.00  0.00    +0.000 A 
ATOM     10  C   UNL     1      48.480   5.617  15.730  0.00  0.00    +0.000 A 
ATOM     11  C   UNL     1      47.621   4.528  15.768  0.00  0.00    +0.000 A 
ATOM     12  F   UNL     1      47.764   3.612  16.735  0.00  0.00    +0.000 F 
ATOM     13  C   UNL     1      46.616   4.367  14.818  0.00  0.00    +0.000 A 
ENDBRANCH   5   7
BRANCH   1  14
ATOM     14  O   UNL     1      44.588   3.533   9.518  0.00  0.00    +0.000 OA
BRANCH  14  15
ATOM     15  C   UNL     1      45.315   4.130   8.444  0.00  0.00    +0.000 C 
BRANCH  15  19
ATOM     16  C   UNL     1      46.746  -0.661   7.741  0.00  0.00    +0.000 C 
ATOM     17  C   UNL     1      46.864   0.802   7.440  0.00  0.00    +0.000 A 
ATOM     18  C   UNL     1      46.060   1.731   8.093  0.00  0.00    +0.000 A 
ATOM     19  C   UNL     1      46.203   3.094   7.800  0.00  0.00    +0.000 A 
ATOM     20  C   UNL     1      47.138   3.466   6.832  0.00  0.00    +0.000 A 
ATOM     21  C   UNL     1      47.894   2.475   6.226  0.00  0.00    +0.000 A 
ATOM     22  N   UNL     1      47.779   1.160   6.508  0.00  0.00    +0.000 NA
ENDBRANCH  15  19
ENDBRANCH  14  15
ENDBRANCH   1  14
TORSDOF 4
ENDMDL
MODEL 8
REMARK VINA RESULT:    -6.921      2.598      6.526
REMARK INTER + INTRA:          -9.292
REMARK INTER:                  -8.518
REMARK INTRA:                  -0.774
REMARK UNBOUND:                -0.752
REMARK  Name = 
REMARK  5 active torsions:
REMARK  status: ('A' for Active; 'I' for Inactive)
REMARK    1  A    between atoms: C_1  and  C_2
REMARK    2  A    between atoms: C_4  and  C_5
REMARK    3  A    between atoms: C_5  and  O_6
REMARK    4  A    between atoms: O_6  and  C_7
REMARK    5  A    between atoms: C_11  and  C_12
REMARK                            x       y       z     vdW  Elec       q    Type
REMARK                         _______ _______ _______ _____ _____    ______ ____
ROOT
ATOM      1  C   UNL     1      45.344   5.209  12.353  0.00  0.00    +0.000 A 
ATOM      2  C   UNL     1      46.101   4.447  13.232  0.00  0.00    +0.000 A 
ATOM      3  N   UNL     1      47.301   4.823  13.723  0.00  0.00    +0.000 NA
ATOM      4  C   UNL     1      47.757   6.037  13.331  0.00  0.00    +0.000 A 
ATOM      5  C   UNL     1      47.090   6.909  12.464  0.00  0.00    +0.000 A 
ATOM      6  C   UNL     1      45.853   6.451  11.972  0.00  0.00    +0.000 A 
ENDROOT
BRANCH   5   7
ATOM      7  C   UNL     1      47.640   8.234  12.100  0.00  0.00    +0.000 A 
ATOM      8  C   UNL     1      46.838   9.394  12.117  0.00  0.00    +0.000 A 
ATOM      9  C   UNL     1      47.350  10.648  11.759  0.00  0.00    +0.000 A 
ATOM     10  C   UNL     1      48.684  10.773  11.387  0.00  0.00    +0.000 A 
ATOM     11  C   UNL     1      49.489   9.643  11.371  0.00  0.00    +0.000 A 
ATOM     12  F   UNL     1      50.777   9.758  11.018  0.00  0.00    +0.000 F 
ATOM     13  C   UNL     1      48.983   8.391  11.711  0.00  0.00    +0.000 A 
ENDBRANCH   5   7
BRANCH   1  14
ATOM     14  O   UNL     1      44.141   4.685  11.983  0.00  0.00    +0.000 OA
BRANCH  14  15
ATOM     15  C   UNL     1      43.724   4.914  10.637  0.00  0.00    +0.000 C 
BRANCH  15  19
ATOM     16  C   UNL     1      46.787   3.797   6.781  0.00  0.00    +0.000 C 
ATOM     17  C   UNL     1      45.886   3.383   7.904  0.00  0.00    +0.000 A 
ATOM     18  C   UNL     1      45.244   4.334   8.691  0.00  0.00    +0.000 A 
ATOM     19  C   UNL     1      44.397   3.916   9.725  0.00  0.00    +0.000 A 
ATOM     20  C   UNL     1      44.251   2.546   9.946  0.00  0.00    +0.000 A 
ATOM     21  C   UNL     1      44.932   1.666   9.119  0.00  0.00    +0.000 A 
ATOM     22  N   UNL     1      45.739   2.053   8.109  0.00  0.00    +0.000 NA
ENDBRANCH  15  19
ENDBRANCH  14  15
ENDBRANCH   1  14
TORSDOF 4
ENDMDL
MODEL 9
REMARK VINA RESULT:    -6.393      3.643      7.784
REMARK INTER + INTRA:          -8.641
REMARK INTER:                  -7.951
REMARK INTRA:                  -0.689
REMARK UNBOUND:                -0.752
REMARK  Name = 
REMARK  5 active torsions:
REMARK  status: ('A' for Active; 'I' for Inactive)
REMARK    1  A    between atoms: C_1  and  C_2
REMARK    2  A    between atoms: C_4  and  C_5
REMARK    3  A    between atoms: C_5  and  O_6
REMARK    4  A    between atoms: O_6  and  C_7
REMARK    5  A    between atoms: C_11  and  C_12
REMARK                            x       y       z     vdW  Elec       q    Type
REMARK                         _______ _______ _______ _____ _____    ______ ____
ROOT
ATOM      1  C   UNL     1      47.532   6.627  12.718  0.00  0.00    +0.000 A 
ATOM      2  C   UNL     1      48.467   7.650  12.652  0.00  0.00    +0.000 A 
ATOM      3  N   UNL     1      49.313   7.970  13.654  0.00  0.00    +0.000 NA
ATOM      4  C   UNL     1      49.235   7.211  14.773  0.00  0.00    +0.000 A 
ATOM      5  C   UNL     1      48.351   6.144  14.964  0.00  0.00    +0.000 A 
ATOM      6  C   UNL     1      47.482   5.872  13.890  0.00  0.00    +0.000 A 
ENDROOT
BRANCH   5   7
ATOM      7  C   UNL     1      48.339   5.341  16.208  0.00  0.00    +0.000 A 
ATOM      8  C   UNL     1      49.180   5.657  17.296  0.00  0.00    +0.000 A 
ATOM      9  C   UNL     1      49.184   4.892  18.469  0.00  0.00    +0.000 A 
ATOM     10  C   UNL     1      48.334   3.798  18.588  0.00  0.00    +0.000 A 
ATOM     11  C   UNL     1      47.495   3.478  17.530  0.00  0.00    +0.000 A 
ATOM     12  F   UNL     1      46.669   2.428  17.641  0.00  0.00    +0.000 F 
ATOM     13  C   UNL     1      47.497   4.225  16.355  0.00  0.00    +0.000 A 
ENDBRANCH   5   7
BRANCH   1  14
ATOM     14  O   UNL     1      46.779   6.426  11.599  0.00  0.00    +0.000 OA
BRANCH  14  15
ATOM     15  C   UNL     1      45.367   6.585  11.734  0.00  0.00    +0.000 C 
BRANCH  15  19
ATOM     16  C   UNL     1      44.645   2.457   8.916  0.00  0.00    +0.000 C 
ATOM     17  C   UNL     1      44.364   3.278  10.138  0.00  0.00    +0.000 A 
ATOM     18  C   UNL     1      44.976   4.514  10.322  0.00  0.00    +0.000 A 
ATOM     19  C   UNL     1      44.684   5.265  11.468  0.00  0.00    +0.000 A 
ATOM     20  C   UNL     1      43.801   4.723  12.404  0.00  0.00    +0.000 A 
ATOM     21  C   UNL     1      43.240   3.483  12.145  0.00  0.00    +0.000 A 
ATOM     22  N   UNL     1      43.500   2.755  11.038  0.00  0.00    +0.000 NA
ENDBRANCH  15  19
ENDBRANCH  14  15
ENDBRANCH   1  14
TORSDOF 4
ENDMDL
