MODEL 1
REMARK VINA RESULT:    -8.099      0.000      0.000
REMARK INTER + INTRA:         -11.113
REMARK INTER:                 -10.466
REMARK INTRA:                  -0.647
REMARK UNBOUND:                -0.647
REMARK  Name = 
REMARK  6 active torsions:
REMARK  status: ('A' for Active; 'I' for Inactive)
REMARK    1  A    between atoms: C_1  and  C_2
REMARK    2  A    between atoms: C_2  and  N_3
REMARK    3  A    between atoms: C_2  and  C_16
REMARK    4  A    between atoms: C_4  and  C_6
REMARK    5  A    between atoms: C_19  and  O_20
REMARK    6  A    between atoms: O_20  and  C_21
REMARK                            x       y       z     vdW  Elec       q    Type
REMARK                         _______ _______ _______ _____ _____    ______ ____
ROOT
ATOM      1  C   UNL     1      45.407   8.820  12.903  0.00  0.00    +0.000 C 
ATOM      2  C   UNL     1      46.472   7.742  12.671  0.00  0.00    +0.000 C 
ENDROOT
BRANCH   2   3
ATOM      3  C   UNL     1      45.869   6.609  11.838  0.00  0.00    +0.000 A 
ATOM      4  C   UNL     1      44.846   5.819  12.369  0.00  0.00    +0.000 A 
ATOM      5  C   UNL     1      44.289   4.808  11.592  0.00  0.00    +0.000 A 
ATOM      6  C   UNL     1      44.738   4.620  10.290  0.00  0.00    +0.000 A 
ATOM      7  C   UNL     1      45.788   5.415   9.853  0.00  0.00    +0.000 A 
ATOM      8  N   UNL     1      46.361   6.402  10.591  0.00  0.00    +0.000 NA
BRANCH   6   9
ATOM      9  O   UNL     1      44.259   3.655   9.440  0.00  0.00    +0.000 OA
BRANCH   9  10
ATOM     10  C   UNL     1      45.153   3.062   8.556  0.00  0.00    +0.000 A 
ATOM     11  N   UNL     1      45.645   1.838   8.825  0.00  0.00    +0.000 NA
ATOM     12  C   UNL     1      46.521   1.338   7.936  0.00  0.00    +0.000 A 
ATOM     13  C   UNL     1      46.895   1.997   6.791  0.00  0.00    +0.000 A 
ATOM     14  C   UNL     1      46.309   3.227   6.597  0.00  0.00    +0.000 A 
ATOM     15  N   UNL     1      45.438   3.784   7.460  0.00  0.00    +0.000 NA
ENDBRANCH   9  10
ENDBRANCH   6   9
ENDBRANCH   2   3
BRANCH   2  16
ATOM     16  N   UNL     1      47.010   7.206  13.917  0.00  0.00    +0.000 N 
ATOM     17  C   UNL     1      48.346   6.973  14.130  0.00  0.00    +0.000 C 
ATOM     18  O   UNL     1      49.213   7.253  13.310  0.00  0.00    +0.000 OA
ATOM     19  H   UNL     1      46.360   6.626  14.439  0.00  0.00    +0.000 HD
BRANCH  17  20
ATOM     20  C   UNL     1      48.694   6.439  15.451  0.00  0.00    +0.000 A 
ATOM     21  C   UNL     1      49.625   7.102  16.242  0.00  0.00    +0.000 A 
ATOM     22  S   UNL     1      49.864   6.374  17.766  0.00  0.00    +0.000 S 
ATOM     23  C   UNL     1      48.771   5.121  17.401  0.00  0.00    +0.000 A 
ATOM     24  N   UNL     1      48.527   4.120  18.291  0.00  0.00    +0.000 NA
ATOM     25  C   UNL     1      47.708   3.219  17.865  0.00  0.00    +0.000 A 
ATOM     26  N   UNL     1      47.100   3.230  16.637  0.00  0.00    +0.000 N 
ATOM     27  C   UNL     1      47.279   4.244  15.726  0.00  0.00    +0.000 A 
ATOM     28  O   UNL     1      46.666   4.268  14.666  0.00  0.00    +0.000 OA
ATOM     29  C   UNL     1      48.215   5.268  16.145  0.00  0.00    +0.000 A 
ATOM     30  H   UNL     1      46.455   2.499  16.369  0.00  0.00    +0.000 HD
ENDBRANCH  17  20
ENDBRANCH   2  16
TORSDOF 5
ENDMDL
MODEL 2
REMARK VINA RESULT:    -7.449      2.727      4.069
REMARK INTER + INTRA:         -10.273
REMARK INTER:                  -9.375
REMARK INTRA:                  -0.898
REMARK UNBOUND:                -0.647
REMARK  Name = 
REMARK  6 active torsions:
REMARK  status: ('A' for Active; 'I' for Inactive)
REMARK    1  A    between atoms: C_1  and  C_2
REMARK    2  A    between atoms: C_2  and  N_3
REMARK    3  A    between atoms: C_2  and  C_16
REMARK    4  A    between atoms: C_4  and  C_6
REMARK    5  A    between atoms: C_19  and  O_20
REMARK    6  A    between atoms: O_20  and  C_21
REMARK                            x       y       z     vdW  Elec       q    Type
REMARK                         _______ _______ _______ _____ _____    ______ ____
ROOT
ATOM      1  C   UNL     1      46.308   4.770  14.378  0.00  0.00    +0.000 C 
ATOM      2  C   UNL     1      45.984   5.792  13.282  0.00  0.00    +0.000 C 
ENDROOT
BRANCH   2   3
ATOM      3  C   UNL     1      45.626   5.053  11.993  0.00  0.00    +0.000 A 
ATOM      4  C   UNL     1      45.097   3.760  12.051  0.00  0.00    +0.000 A 
ATOM      5  C   UNL     1      44.753   3.108  10.871  0.00  0.00    +0.000 A 
ATOM      6  C   UNL     1      44.910   3.763   9.655  0.00  0.00    +0.000 A 
ATOM      7  C   UNL     1      45.484   5.027   9.679  0.00  0.00    +0.000 A 
ATOM      8  N   UNL     1      45.842   5.686  10.812  0.00  0.00    +0.000 NA
BRANCH   6   9
ATOM      9  O   UNL     1      44.602   3.214   8.437  0.00  0.00    +0.000 OA
BRANCH   9  10
ATOM     10  C   UNL     1      45.650   2.789   7.629  0.00  0.00    +0.000 A 
ATOM     11  N   UNL     1      45.983   3.503   6.537  0.00  0.00    +0.000 NA
ATOM     12  C   UNL     1      46.992   3.018   5.792  0.00  0.00    +0.000 A 
ATOM     13  C   UNL     1      47.688   1.879   6.112  0.00  0.00    +0.000 A 
ATOM     14  C   UNL     1      47.288   1.244   7.265  0.00  0.00    +0.000 A 
ATOM     15  N   UNL     1      46.275   1.674   8.041  0.00  0.00    +0.000 NA
ENDBRANCH   9  10
ENDBRANCH   6   9
ENDBRANCH   2   3
BRANCH   2  16
ATOM     16  N   UNL     1      47.087   6.715  13.032  0.00  0.00    +0.000 N 
ATOM     17  C   UNL     1      46.948   8.080  13.024  0.00  0.00    +0.000 C 
ATOM     18  O   UNL     1      45.894   8.647  13.288  0.00  0.00    +0.000 OA
ATOM     19  H   UNL     1      47.832   6.332  12.458  0.00  0.00    +0.000 HD
BRANCH  17  20
ATOM     20  C   UNL     1      48.175   8.841  12.761  0.00  0.00    +0.000 A 
ATOM     21  C   UNL     1      48.138   9.940  11.910  0.00  0.00    +0.000 A 
ATOM     22  S   UNL     1      49.639  10.738  11.766  0.00  0.00    +0.000 S 
ATOM     23  C   UNL     1      50.399   9.613  12.792  0.00  0.00    +0.000 A 
ATOM     24  N   UNL     1      51.728   9.705  13.074  0.00  0.00    +0.000 NA
ATOM     25  C   UNL     1      52.176   8.763  13.833  0.00  0.00    +0.000 A 
ATOM     26  N   UNL     1      51.418   7.743  14.348  0.00  0.00    +0.000 N 
ATOM     27  C   UNL     1      50.065   7.638  14.129  0.00  0.00    +0.000 A 
ATOM     28  O   UNL     1      49.397   6.760  14.662  0.00  0.00    +0.000 OA
ATOM     29  C   UNL     1      49.517   8.657  13.257  0.00  0.00    +0.000 A 
ATOM     30  H   UNL     1      51.828   7.044  14.950  0.00  0.00    +0.000 HD
ENDBRANCH  17  20
ENDBRANCH   2  16
TORSDOF 5
ENDMDL
MODEL 3
REMARK VINA RESULT:    -7.350      3.219      7.849
REMARK INTER + INTRA:         -10.146
REMARK INTER:                  -9.176
REMARK INTRA:                  -0.970
REMARK UNBOUND:                -0.647
REMARK  Name = 
REMARK  6 active torsions:
REMARK  status: ('A' for Active; 'I' for Inactive)
REMARK    1  A    between atoms: C_1  and  C_2
REMARK    2  A    between atoms: C_2  and  N_3
REMARK    3  A    between atoms: C_2  and  C_16
REMARK    4  A    between atoms: C_4  and  C_6
REMARK    5  A    between atoms: C_19  and  O_20
REMARK    6  A    between atoms: O_20  and  C_21
REMARK                            x       y       z     vdW  Elec       q    Type
REMARK                         _______ _______ _______ _____ _____    ______ ____
ROOT
ATOM      1  C   UNL     1      49.385   7.912  12.724  0.00  0.00    +0.000 C 
ATOM      2  C   UNL     1      48.180   7.322  13.467  0.00  0.00    +0.000 C 
ENDROOT
BRANCH   2   3
ATOM      3  C   UNL     1      48.667   6.609  14.729  0.00  0.00    +0.000 A 
ATOM      4  C   UNL     1      49.822   7.050  15.381  0.00  0.00    +0.000 A 
ATOM      5  C   UNL     1      50.239   6.407  16.542  0.00  0.00    +0.000 A 
ATOM      6  C   UNL     1      49.485   5.357  17.053  0.00  0.00    +0.000 A 
ATOM      7  C   UNL     1      48.377   4.950  16.322  0.00  0.00    +0.000 A 
ATOM      8  N   UNL     1      47.950   5.548  15.179  0.00  0.00    +0.000 NA
BRANCH   6   9
ATOM      9  O   UNL     1      49.805   4.657  18.188  0.00  0.00    +0.000 OA
BRANCH   9  10
ATOM     10  C   UNL     1      50.745   3.638  18.082  0.00  0.00    +0.000 A 
ATOM     11  N   UNL     1      51.993   3.830  18.552  0.00  0.00    +0.000 NA
ATOM     12  C   UNL     1      52.853   2.809  18.395  0.00  0.00    +0.000 A 
ATOM     13  C   UNL     1      52.507   1.611  17.820  0.00  0.00    +0.000 A 
ATOM     14  C   UNL     1      51.200   1.509  17.403  0.00  0.00    +0.000 A 
ATOM     15  N   UNL     1      50.299   2.503  17.520  0.00  0.00    +0.000 NA
ENDBRANCH   9  10
ENDBRANCH   6   9
ENDBRANCH   2   3
BRANCH   2  16
ATOM     16  N   UNL     1      47.409   6.397  12.642  0.00  0.00    +0.000 N 
ATOM     17  C   UNL     1      46.349   6.780  11.860  0.00  0.00    +0.000 C 
ATOM     18  O   UNL     1      45.994   7.946  11.737  0.00  0.00    +0.000 OA
ATOM     19  H   UNL     1      47.399   5.441  12.984  0.00  0.00    +0.000 HD
BRANCH  17  20
ATOM     20  C   UNL     1      45.704   5.705  11.096  0.00  0.00    +0.000 A 
ATOM     21  C   UNL     1      45.829   5.668   9.712  0.00  0.00    +0.000 A 
ATOM     22  S   UNL     1      45.066   4.322   8.996  0.00  0.00    +0.000 S 
ATOM     23  C   UNL     1      44.500   3.771  10.503  0.00  0.00    +0.000 A 
ATOM     24  N   UNL     1      43.735   2.649  10.599  0.00  0.00    +0.000 NA
ATOM     25  C   UNL     1      43.344   2.373  11.797  0.00  0.00    +0.000 A 
ATOM     26  N   UNL     1      43.656   3.107  12.912  0.00  0.00    +0.000 N 
ATOM     27  C   UNL     1      44.463   4.218  12.870  0.00  0.00    +0.000 A 
ATOM     28  O   UNL     1      44.788   4.813  13.890  0.00  0.00    +0.000 OA
ATOM     29  C   UNL     1      44.905   4.589  11.540  0.00  0.00    +0.000 A 
ATOM     30  H   UNL     1      43.330   2.827  13.827  0.00  0.00    +0.000 HD
ENDBRANCH  17  20
ENDBRANCH   2  16
TORSDOF 5
ENDMDL
MODEL 4
REMARK VINA RESULT:    -7.339      2.268      2.939
REMARK INTER + INTRA:         -10.131
REMARK INTER:                  -9.063
REMARK INTRA:                  -1.068
REMARK UNBOUND:                -0.647
REMARK  Name = 
REMARK  6 active torsions:
REMARK  status: ('A' for Active; 'I' for Inactive)
REMARK    1  A    between atoms: C_1  and  C_2
REMARK    2  A    between atoms: C_2  and  N_3
REMARK    3  A    between atoms: C_2  and  C_16
REMARK    4  A    between atoms: C_4  and  C_6
REMARK    5  A    between atoms: C_19  and  O_20
REMARK    6  A    between atoms: O_20  and  C_21
REMARK                            x       y       z     vdW  Elec       q    Type
REMARK                         _______ _______ _______ _____ _____    ______ ____
ROOT
ATOM      1  C   UNL     1      47.920   9.062  13.928  0.00  0.00    +0.000 C 
ATOM      2  C   UNL     1      48.153   7.547  13.970  0.00  0.00    +0.000 C 
ENDROOT
BRANCH   2   3
ATOM      3  C   UNL     1      47.131   6.854  13.068  0.00  0.00    +0.000 A 
ATOM      4  C   UNL     1      46.433   7.591  12.107  0.00  0.00    +0.000 A 
ATOM      5  C   UNL     1      45.524   6.943  11.276  0.00  0.00    +0.000 A 
ATOM      6  C   UNL     1      45.348   5.569  11.393  0.00  0.00    +0.000 A 
ATOM      7  C   UNL     1      46.045   4.918  12.402  0.00  0.00    +0.000 A 
ATOM      8  N   UNL     1      46.929   5.523  13.237  0.00  0.00    +0.000 NA
BRANCH   6   9
ATOM      9  O   UNL     1      44.481   4.834  10.626  0.00  0.00    +0.000 OA
BRANCH   9  10
ATOM     10  C   UNL     1      45.017   4.006   9.647  0.00  0.00    +0.000 A 
ATOM     11  N   UNL     1      44.921   2.668   9.777  0.00  0.00    +0.000 NA
ATOM     12  C   UNL     1      45.482   1.932   8.803  0.00  0.00    +0.000 A 
ATOM     13  C   UNL     1      46.101   2.477   7.705  0.00  0.00    +0.000 A 
ATOM     14  C   UNL     1      46.116   3.851   7.654  0.00  0.00    +0.000 A 
ATOM     15  N   UNL     1      45.584   4.640   8.607  0.00  0.00    +0.000 NA
ENDBRANCH   9  10
ENDBRANCH   6   9
ENDBRANCH   2   3
BRANCH   2  16
ATOM     16  N   UNL     1      48.067   7.003  15.323  0.00  0.00    +0.000 N 
ATOM     17  C   UNL     1      49.146   6.510  16.013  0.00  0.00    +0.000 C 
ATOM     18  O   UNL     1      50.290   6.540  15.576  0.00  0.00    +0.000 OA
ATOM     19  H   UNL     1      47.160   6.613  15.560  0.00  0.00    +0.000 HD
BRANCH  17  20
ATOM     20  C   UNL     1      48.860   6.013  17.364  0.00  0.00    +0.000 A 
ATOM     21  C   UNL     1      49.077   4.674  17.669  0.00  0.00    +0.000 A 
ATOM     22  S   UNL     1      48.748   4.286  19.297  0.00  0.00    +0.000 S 
ATOM     23  C   UNL     1      48.256   5.880  19.635  0.00  0.00    +0.000 A 
ATOM     24  N   UNL     1      47.814   6.231  20.875  0.00  0.00    +0.000 NA
ATOM     25  C   UNL     1      47.437   7.460  20.976  0.00  0.00    +0.000 A 
ATOM     26  N   UNL     1      47.471   8.377  19.957  0.00  0.00    +0.000 N 
ATOM     27  C   UNL     1      47.953   8.080  18.705  0.00  0.00    +0.000 A 
ATOM     28  O   UNL     1      48.042   8.938  17.834  0.00  0.00    +0.000 OA
ATOM     29  C   UNL     1      48.363   6.701  18.530  0.00  0.00    +0.000 A 
ATOM     30  H   UNL     1      47.175   9.331  20.107  0.00  0.00    +0.000 HD
ENDBRANCH  17  20
ENDBRANCH   2  16
TORSDOF 5
ENDMDL
MODEL 5
REMARK VINA RESULT:    -7.271      4.020      9.309
REMARK INTER + INTRA:         -10.043
REMARK INTER:                  -8.952
REMARK INTRA:                  -1.091
REMARK UNBOUND:                -0.647
REMARK  Name = 
REMARK  6 active torsions:
REMARK  status: ('A' for Active; 'I' for Inactive)
REMARK    1  A    between atoms: C_1  and  C_2
REMARK    2  A    between atoms: C_2  and  N_3
REMARK    3  A    between atoms: C_2  and  C_16
REMARK    4  A    between atoms: C_4  and  C_6
REMARK    5  A    between atoms: C_19  and  O_20
REMARK    6  A    between atoms: O_20  and  C_21
REMARK                            x       y       z     vdW  Elec       q    Type
REMARK                         _______ _______ _______ _____ _____    ______ ____
ROOT
ATOM      1  C   UNL     1      47.606   3.146  16.952  0.00  0.00    +0.000 C 
ATOM      2  C   UNL     1      48.008   4.468  16.288  0.00  0.00    +0.000 C 
ENDROOT
BRANCH   2   3
ATOM      3  C   UNL     1      48.125   5.555  17.357  0.00  0.00    +0.000 A 
ATOM      4  C   UNL     1      47.298   5.519  18.483  0.00  0.00    +0.000 A 
ATOM      5  C   UNL     1      47.431   6.501  19.461  0.00  0.00    +0.000 A 
ATOM      6  C   UNL     1      48.405   7.482  19.317  0.00  0.00    +0.000 A 
ATOM      7  C   UNL     1      49.154   7.475  18.149  0.00  0.00    +0.000 A 
ATOM      8  N   UNL     1      49.041   6.539  17.171  0.00  0.00    +0.000 NA
BRANCH   6   9
ATOM      9  O   UNL     1      48.621   8.493  20.219  0.00  0.00    +0.000 OA
BRANCH   9  10
ATOM     10  C   UNL     1      47.527   9.243  20.632  0.00  0.00    +0.000 A 
ATOM     11  N   UNL     1      47.087   9.141  21.901  0.00  0.00    +0.000 NA
ATOM     12  C   UNL     1      46.011   9.879  22.222  0.00  0.00    +0.000 A 
ATOM     13  C   UNL     1      45.386  10.726  21.341  0.00  0.00    +0.000 A 
ATOM     14  C   UNL     1      45.935  10.781  20.080  0.00  0.00    +0.000 A 
ATOM     15  N   UNL     1      47.001  10.052  19.698  0.00  0.00    +0.000 NA
ENDBRANCH   9  10
ENDBRANCH   6   9
ENDBRANCH   2   3
BRANCH   2  16
ATOM     16  N   UNL     1      47.064   4.889  15.256  0.00  0.00    +0.000 N 
ATOM     17  C   UNL     1      47.429   5.586  14.132  0.00  0.00    +0.000 C 
ATOM     18  O   UNL     1      48.592   5.864  13.864  0.00  0.00    +0.000 OA
ATOM     19  H   UNL     1      46.116   5.029  15.590  0.00  0.00    +0.000 HD
BRANCH  17  20
ATOM     20  C   UNL     1      46.337   5.912  13.207  0.00  0.00    +0.000 A 
ATOM     21  C   UNL     1      46.041   7.241  12.927  0.00  0.00    +0.000 A 
ATOM     22  S   UNL     1      44.785   7.433  11.789  0.00  0.00    +0.000 S 
ATOM     23  C   UNL     1      44.558   5.750  11.673  0.00  0.00    +0.000 A 
ATOM     24  N   UNL     1      43.593   5.225  10.869  0.00  0.00    +0.000 NA
ATOM     25  C   UNL     1      43.510   3.939  10.910  0.00  0.00    +0.000 A 
ATOM     26  N   UNL     1      44.308   3.125  11.671  0.00  0.00    +0.000 N 
ATOM     27  C   UNL     1      45.326   3.607  12.459  0.00  0.00    +0.000 A 
ATOM     28  O   UNL     1      46.074   2.854  13.071  0.00  0.00    +0.000 OA
ATOM     29  C   UNL     1      45.443   5.052  12.472  0.00  0.00    +0.000 A 
ATOM     30  H   UNL     1      44.202   2.121  11.646  0.00  0.00    +0.000 HD
ENDBRANCH  17  20
ENDBRANCH   2  16
TORSDOF 5
ENDMDL
MODEL 6
REMARK VINA RESULT:    -7.112      3.132      8.574
REMARK INTER + INTRA:          -9.839
REMARK INTER:                  -8.773
REMARK INTRA:                  -1.066
REMARK UNBOUND:                -0.647
REMARK  Name = 
REMARK  6 active torsions:
REMARK  status: ('A' for Active; 'I' for Inactive)
REMARK    1  A    between atoms: C_1  and  C_2
REMARK    2  A    between atoms: C_2  and  N_3
REMARK    3  A    between atoms: C_2  and  C_16
REMARK    4  A    between atoms: C_4  and  C_6
REMARK    5  A    between atoms: C_19  and  O_20
REMARK    6  A    between atoms: O_20  and  C_21
REMARK                            x       y       z     vdW  Elec       q    Type
REMARK                         _______ _______ _______ _____ _____    ______ ____
ROOT
ATOM      1  C   UNL     1      49.457   7.491  12.936  0.00  0.00    +0.000 C 
ATOM      2  C   UNL     1      48.116   7.044  13.529  0.00  0.00    +0.000 C 
ENDROOT
BRANCH   2   3
ATOM      3  C   UNL     1      48.364   6.342  14.864  0.00  0.00    +0.000 A 
ATOM      4  C   UNL     1      49.238   6.904  15.798  0.00  0.00    +0.000 A 
ATOM      5  C   UNL     1      49.436   6.267  17.020  0.00  0.00    +0.000 A 
ATOM      6  C   UNL     1      48.738   5.099  17.304  0.00  0.00    +0.000 A 
ATOM      7  C   UNL     1      47.924   4.581  16.306  0.00  0.00    +0.000 A 
ATOM      8  N   UNL     1      47.718   5.172  15.100  0.00  0.00    +0.000 NA
BRANCH   6   9
ATOM      9  O   UNL     1      48.858   4.394  18.474  0.00  0.00    +0.000 OA
BRANCH   9  10
ATOM     10  C   UNL     1      48.661   5.074  19.670  0.00  0.00    +0.000 A 
ATOM     11  N   UNL     1      47.506   5.735  19.880  0.00  0.00    +0.000 NA
ATOM     12  C   UNL     1      47.397   6.389  21.050  0.00  0.00    +0.000 A 
ATOM     13  C   UNL     1      48.374   6.380  22.014  0.00  0.00    +0.000 A 
ATOM     14  C   UNL     1      49.499   5.649  21.712  0.00  0.00    +0.000 A 
ATOM     15  N   UNL     1      49.671   4.988  20.551  0.00  0.00    +0.000 NA
ENDBRANCH   9  10
ENDBRANCH   6   9
ENDBRANCH   2   3
BRANCH   2  16
ATOM     16  N   UNL     1      47.373   6.159  12.636  0.00  0.00    +0.000 N 
ATOM     17  C   UNL     1      46.330   6.576  11.848  0.00  0.00    +0.000 C 
ATOM     18  O   UNL     1      45.969   7.745  11.780  0.00  0.00    +0.000 OA
ATOM     19  H   UNL     1      47.363   5.186  12.925  0.00  0.00    +0.000 HD
BRANCH  17  20
ATOM     20  C   UNL     1      45.714   5.540  11.011  0.00  0.00    +0.000 A 
ATOM     21  C   UNL     1      45.825   5.611   9.627  0.00  0.00    +0.000 A 
ATOM     22  S   UNL     1      45.100   4.296   8.818  0.00  0.00    +0.000 S 
ATOM     23  C   UNL     1      44.569   3.615  10.285  0.00  0.00    +0.000 A 
ATOM     24  N   UNL     1      43.844   2.463  10.302  0.00  0.00    +0.000 NA
ATOM     25  C   UNL     1      43.476   2.085  11.479  0.00  0.00    +0.000 A 
ATOM     26  N   UNL     1      43.775   2.744  12.643  0.00  0.00    +0.000 N 
ATOM     27  C   UNL     1      44.543   3.883  12.678  0.00  0.00    +0.000 A 
ATOM     28  O   UNL     1      44.859   4.410  13.738  0.00  0.00    +0.000 OA
ATOM     29  C   UNL     1      44.958   4.367  11.377  0.00  0.00    +0.000 A 
ATOM     30  H   UNL     1      43.468   2.385  13.537  0.00  0.00    +0.000 HD
ENDBRANCH  17  20
ENDBRANCH   2  16
TORSDOF 5
ENDMDL
MODEL 7
REMARK VINA RESULT:    -7.093      2.502      4.243
REMARK INTER + INTRA:          -9.814
REMARK INTER:                  -8.817
REMARK INTRA:                  -0.997
REMARK UNBOUND:                -0.647
REMARK  Name = 
REMARK  6 active torsions:
REMARK  status: ('A' for Active; 'I' for Inactive)
REMARK    1  A    between atoms: C_1  and  C_2
REMARK    2  A    between atoms: C_2  and  N_3
REMARK    3  A    between atoms: C_2  and  C_16
REMARK    4  A    between atoms: C_4  and  C_6
REMARK    5  A    between atoms: C_19  and  O_20
REMARK    6  A    between atoms: O_20  and  C_21
REMARK                            x       y       z     vdW  Elec       q    Type
REMARK                         _______ _______ _______ _____ _____    ______ ____
ROOT
ATOM      1  C   UNL     1      47.349   4.025  15.760  0.00  0.00    +0.000 C 
ATOM      2  C   UNL     1      47.097   5.285  14.923  0.00  0.00    +0.000 C 
ENDROOT
BRANCH   2   3
ATOM      3  C   UNL     1      46.333   4.904  13.655  0.00  0.00    +0.000 A 
ATOM      4  C   UNL     1      45.843   5.901  12.807  0.00  0.00    +0.000 A 
ATOM      5  C   UNL     1      45.170   5.540  11.643  0.00  0.00    +0.000 A 
ATOM      6  C   UNL     1      45.023   4.195  11.327  0.00  0.00    +0.000 A 
ATOM      7  C   UNL     1      45.497   3.266  12.243  0.00  0.00    +0.000 A 
ATOM      8  N   UNL     1      46.147   3.585  13.393  0.00  0.00    +0.000 NA
BRANCH   6   9
ATOM      9  O   UNL     1      44.380   3.731  10.208  0.00  0.00    +0.000 OA
BRANCH   9  10
ATOM     10  C   UNL     1      45.156   3.339   9.124  0.00  0.00    +0.000 A 
ATOM     11  N   UNL     1      45.571   4.258   8.231  0.00  0.00    +0.000 NA
ATOM     12  C   UNL     1      46.298   3.801   7.198  0.00  0.00    +0.000 A 
ATOM     13  C   UNL     1      46.646   2.481   7.044  0.00  0.00    +0.000 A 
ATOM     14  C   UNL     1      46.199   1.631   8.028  0.00  0.00    +0.000 A 
ATOM     15  N   UNL     1      45.454   2.029   9.077  0.00  0.00    +0.000 NA
ENDBRANCH   9  10
ENDBRANCH   6   9
ENDBRANCH   2   3
BRANCH   2  16
ATOM     16  N   UNL     1      48.332   5.978  14.566  0.00  0.00    +0.000 N 
ATOM     17  C   UNL     1      48.949   6.896  15.377  0.00  0.00    +0.000 C 
ATOM     18  O   UNL     1      48.550   7.171  16.503  0.00  0.00    +0.000 OA
ATOM     19  H   UNL     1      48.478   6.084  13.567  0.00  0.00    +0.000 HD
BRANCH  17  20
ATOM     20  C   UNL     1      50.187   7.480  14.847  0.00  0.00    +0.000 A 
ATOM     21  C   UNL     1      51.357   7.421  15.595  0.00  0.00    +0.000 A 
ATOM     22  S   UNL     1      52.707   8.096  14.802  0.00  0.00    +0.000 S 
ATOM     23  C   UNL     1      51.765   8.536  13.454  0.00  0.00    +0.000 A 
ATOM     24  N   UNL     1      52.315   9.193  12.396  0.00  0.00    +0.000 NA
ATOM     25  C   UNL     1      51.476   9.498  11.465  0.00  0.00    +0.000 A 
ATOM     26  N   UNL     1      50.139   9.198  11.486  0.00  0.00    +0.000 N 
ATOM     27  C   UNL     1      49.550   8.495  12.510  0.00  0.00    +0.000 A 
ATOM     28  O   UNL     1      48.368   8.174  12.469  0.00  0.00    +0.000 OA
ATOM     29  C   UNL     1      50.445   8.154  13.597  0.00  0.00    +0.000 A 
ATOM     30  H   UNL     1      49.537   9.452  10.716  0.00  0.00    +0.000 HD
ENDBRANCH  17  20
ENDBRANCH   2  16
TORSDOF 5
ENDMDL
MODEL 8
REMARK VINA RESULT:    -6.959      3.649      5.395
REMARK INTER + INTRA:          -9.640
REMARK INTER:                  -8.858
REMARK INTRA:                  -0.782
REMARK UNBOUND:                -0.647
REMARK  Name = 
REMARK  6 active torsions:
REMARK  status: ('A' for Active; 'I' for Inactive)
REMARK    1  A    between atoms: C_1  and  C_2
REMARK    2  A    between atoms: C_2  and  N_3
REMARK    3  A    between atoms: C_2  and  C_16
REMARK    4  A    between atoms: C_4  and  C_6
REMARK    5  A    between atoms: C_19  and  O_20
REMARK    6  A    between atoms: O_20  and  C_21
REMARK                            x       y       z     vdW  Elec       q    Type
REMARK                         _______ _______ _______ _____ _____    ______ ____
ROOT
ATOM      1  C   UNL     1      46.337   3.633  12.991  0.00  0.00    +0.000 C 
ATOM      2  C   UNL     1      46.193   4.749  14.032  0.00  0.00    +0.000 C 
ENDROOT
BRANCH   2   3
ATOM      3  C   UNL     1      46.012   6.088  13.316  0.00  0.00    +0.000 A 
ATOM      4  C   UNL     1      44.953   6.266  12.422  0.00  0.00    +0.000 A 
ATOM      5  C   UNL     1      44.786   7.497  11.795  0.00  0.00    +0.000 A 
ATOM      6  C   UNL     1      45.656   8.540  12.092  0.00  0.00    +0.000 A 
ATOM      7  C   UNL     1      46.709   8.269  12.955  0.00  0.00    +0.000 A 
ATOM      8  N   UNL     1      46.907   7.075  13.573  0.00  0.00    +0.000 NA
BRANCH   6   9
ATOM      9  O   UNL     1      45.582   9.790  11.533  0.00  0.00    +0.000 OA
BRANCH   9  10
ATOM     10  C   UNL     1      44.334  10.252  11.132  0.00  0.00    +0.000 A 
ATOM     11  N   UNL     1      43.480  10.751  12.046  0.00  0.00    +0.000 NA
ATOM     12  C   UNL     1      42.284  11.157  11.587  0.00  0.00    +0.000 A 
ATOM     13  C   UNL     1      41.928  11.110  10.261  0.00  0.00    +0.000 A 
ATOM     14  C   UNL     1      42.885  10.613   9.407  0.00  0.00    +0.000 A 
ATOM     15  N   UNL     1      44.093  10.177   9.812  0.00  0.00    +0.000 NA
ENDBRANCH   9  10
ENDBRANCH   6   9
ENDBRANCH   2   3
BRANCH   2  16
ATOM     16  N   UNL     1      47.335   4.823  14.938  0.00  0.00    +0.000 N 
ATOM     17  C   UNL     1      47.345   4.271  16.194  0.00  0.00    +0.000 C 
ATOM     18  O   UNL     1      46.415   3.612  16.644  0.00  0.00    +0.000 OA
ATOM     19  H   UNL     1      47.933   5.631  14.793  0.00  0.00    +0.000 HD
BRANCH  17  20
ATOM     20  C   UNL     1      48.590   4.444  16.953  0.00  0.00    +0.000 A 
ATOM     21  C   UNL     1      48.842   5.646  17.604  0.00  0.00    +0.000 A 
ATOM     22  S   UNL     1      50.305   5.650  18.482  0.00  0.00    +0.000 S 
ATOM     23  C   UNL     1      50.675   4.067  17.979  0.00  0.00    +0.000 A 
ATOM     24  N   UNL     1      51.832   3.460  18.362  0.00  0.00    +0.000 NA
ATOM     25  C   UNL     1      51.999   2.278  17.875  0.00  0.00    +0.000 A 
ATOM     26  N   UNL     1      51.112   1.638  17.049  0.00  0.00    +0.000 N 
ATOM     27  C   UNL     1      49.911   2.191  16.675  0.00  0.00    +0.000 A 
ATOM     28  O   UNL     1      49.102   1.569  15.997  0.00  0.00    +0.000 OA
ATOM     29  C   UNL     1      49.688   3.534  17.173  0.00  0.00    +0.000 A 
ATOM     30  H   UNL     1      51.295   0.703  16.713  0.00  0.00    +0.000 HD
ENDBRANCH  17  20
ENDBRANCH   2  16
TORSDOF 5
ENDMDL
MODEL 9
REMARK VINA RESULT:    -6.839      2.786      8.513
REMARK INTER + INTRA:          -9.485
REMARK INTER:                  -8.479
REMARK INTRA:                  -1.006
REMARK UNBOUND:                -0.647
REMARK  Name = 
REMARK  6 active torsions:
REMARK  status: ('A' for Active; 'I' for Inactive)
REMARK    1  A    between atoms: C_1  and  C_2
REMARK    2  A    between atoms: C_2  and  N_3
REMARK    3  A    between atoms: C_2  and  C_16
REMARK    4  A    between atoms: C_4  and  C_6
REMARK    5  A    between atoms: C_19  and  O_20
REMARK    6  A    between atoms: O_20  and  C_21
REMARK                            x       y       z     vdW  Elec       q    Type
REMARK                         _______ _______ _______ _____ _____    ______ ____
ROOT
ATOM      1  C   UNL     1      49.002   7.784  11.510  0.00  0.00    +0.000 C 
ATOM      2  C   UNL     1      47.910   7.510  12.552  0.00  0.00    +0.000 C 
ENDROOT
BRANCH   2   3
ATOM      3  C   UNL     1      48.560   7.299  13.920  0.00  0.00    +0.000 A 
ATOM      4  C   UNL     1      49.478   8.232  14.409  0.00  0.00    +0.000 A 
ATOM      5  C   UNL     1      50.043   8.041  15.667  0.00  0.00    +0.000 A 
ATOM      6  C   UNL     1      49.662   6.943  16.429  0.00  0.00    +0.000 A 
ATOM      7  C   UNL     1      48.780   6.039  15.853  0.00  0.00    +0.000 A 
ATOM      8  N   UNL     1      48.220   6.190  14.624  0.00  0.00    +0.000 NA
BRANCH   6   9
ATOM      9  O   UNL     1      50.155   6.661  17.677  0.00  0.00    +0.000 OA
BRANCH   9  10
ATOM     10  C   UNL     1      49.250   6.547  18.726  0.00  0.00    +0.000 A 
ATOM     11  N   UNL     1      49.195   5.407  19.440  0.00  0.00    +0.000 NA
ATOM     12  C   UNL     1      48.280   5.362  20.424  0.00  0.00    +0.000 A 
ATOM     13  C   UNL     1      47.452   6.412  20.733  0.00  0.00    +0.000 A 
ATOM     14  C   UNL     1      47.612   7.541  19.963  0.00  0.00    +0.000 A 
ATOM     15  N   UNL     1      48.499   7.638  18.955  0.00  0.00    +0.000 NA
ENDBRANCH   9  10
ENDBRANCH   6   9
ENDBRANCH   2   3
BRANCH   2  16
ATOM     16  N   UNL     1      47.087   6.353  12.212  0.00  0.00    +0.000 N 
ATOM     17  C   UNL     1      45.715   6.368  12.221  0.00  0.00    +0.000 C 
ATOM     18  O   UNL     1      45.058   7.376  12.455  0.00  0.00    +0.000 OA
ATOM     19  H   UNL     1      47.532   5.457  12.388  0.00  0.00    +0.000 HD
BRANCH  17  20
ATOM     20  C   UNL     1      45.065   5.108  11.842  0.00  0.00    +0.000 A 
ATOM     21  C   UNL     1      44.352   4.385  12.791  0.00  0.00    +0.000 A 
ATOM     22  S   UNL     1      43.615   2.980  12.164  0.00  0.00    +0.000 S 
ATOM     23  C   UNL     1      44.267   3.263  10.617  0.00  0.00    +0.000 A 
ATOM     24  N   UNL     1      44.039   2.399   9.590  0.00  0.00    +0.000 NA
ATOM     25  C   UNL     1      44.626   2.718   8.487  0.00  0.00    +0.000 A 
ATOM     26  N   UNL     1      45.411   3.827   8.309  0.00  0.00    +0.000 N 
ATOM     27  C   UNL     1      45.630   4.751   9.303  0.00  0.00    +0.000 A 
ATOM     28  O   UNL     1      46.274   5.773   9.097  0.00  0.00    +0.000 OA
ATOM     29  C   UNL     1      45.015   4.423  10.574  0.00  0.00    +0.000 A 
ATOM     30  H   UNL     1      45.832   4.029   7.413  0.00  0.00    +0.000 HD
ENDBRANCH  17  20
ENDBRANCH   2  16
TORSDOF 5
ENDMDL
