MODEL 1
REMARK VINA RESULT:    -8.272      0.000      0.000
REMARK INTER + INTRA:         -12.461
REMARK INTER:                 -11.657
REMARK INTRA:                  -0.805
REMARK UNBOUND:                -0.805
REMARK  Name = 
REMARK  8 active torsions:
REMARK  status: ('A' for Active; 'I' for Inactive)
REMARK    1  A    between atoms: C_1  and  N_2
REMARK    2  A    between atoms: N_2  and  C_3
REMARK    3  A    between atoms: C_3  and  C_4
REMARK    4  A    between atoms: C_7  and  C_8
REMARK    5  A    between atoms: C_8  and  O_9
REMARK    6  A    between atoms: O_9  and  C_10
REMARK    7  A    between atoms: C_10  and  C_12
REMARK    8  A    between atoms: C_24  and  C_26
REMARK                            x       y       z     vdW  Elec       q    Type
REMARK                         _______ _______ _______ _____ _____    ______ ____
ROOT
ATOM      1  C   UNL     1      46.424   4.444  13.332  0.00  0.00    +0.000 A 
ATOM      2  C   UNL     1      46.907   5.677  12.894  0.00  0.00    +0.000 A 
ATOM      3  C   UNL     1      47.779   6.400  13.704  0.00  0.00    +0.000 A 
ATOM      4  C   UNL     1      48.147   5.871  14.938  0.00  0.00    +0.000 A 
ATOM      5  N   UNL     1      47.683   4.677  15.386  0.00  0.00    +0.000 NA
ATOM      6  C   UNL     1      46.836   3.999  14.583  0.00  0.00    +0.000 A 
ENDROOT
BRANCH   1   7
ATOM      7  C   UNL     1      45.493   3.616  12.498  0.00  0.00    +0.000 C 
BRANCH   7   9
ATOM      8  C   UNL     1      43.292   4.800  13.005  0.00  0.00    +0.000 C 
ATOM      9  N   UNL     1      44.244   4.243  12.052  0.00  0.00    +0.000 N 
ATOM     10  C   UNL     1      43.926   4.410  10.692  0.00  0.00    +0.000 C 
ATOM     11  O   UNL     1      42.957   5.081  10.330  0.00  0.00    +0.000 OA
BRANCH  10  12
ATOM     12  C   UNL     1      44.777   3.799   9.628  0.00  0.00    +0.000 A 
ATOM     13  C   UNL     1      45.483   4.632   8.771  0.00  0.00    +0.000 A 
ATOM     14  N   UNL     1      46.282   4.154   7.781  0.00  0.00    +0.000 NA
ATOM     15  C   UNL     1      46.323   2.807   7.670  0.00  0.00    +0.000 A 
ATOM     16  C   UNL     1      45.607   1.973   8.511  0.00  0.00    +0.000 A 
ATOM     17  N   UNL     1      44.823   2.444   9.507  0.00  0.00    +0.000 NA
ENDBRANCH  10  12
ENDBRANCH   7   9
ENDBRANCH   1   7
BRANCH   4  18
ATOM     18  C   UNL     1      49.088   6.627  15.844  0.00  0.00    +0.000 C 
BRANCH  18  19
ATOM     19  O   UNL     1      50.168   5.791  16.276  0.00  0.00    +0.000 OA
BRANCH  19  20
ATOM     20  C   UNL     1      50.106   5.388  17.566  0.00  0.00    +0.000 C 
ATOM     21  O   UNL     1      49.150   5.578  18.313  0.00  0.00    +0.000 OA
BRANCH  20  22
ATOM     22  C   UNL     1      51.289   4.639  17.977  0.00  0.00    +0.000 A 
ATOM     23  C   UNL     1      52.362   5.272  18.580  0.00  0.00    +0.000 A 
ATOM     24  S   UNL     1      53.617   4.197  19.010  0.00  0.00    +0.000 S 
ATOM     25  C   UNL     1      52.778   2.864  18.363  0.00  0.00    +0.000 A 
ATOM     26  N   UNL     1      53.323   1.618  18.382  0.00  0.00    +0.000 NA
ATOM     27  C   UNL     1      52.579   0.707  17.848  0.00  0.00    +0.000 A 
ATOM     28  N   UNL     1      51.342   0.927  17.301  0.00  0.00    +0.000 N 
ATOM     29  C   UNL     1      50.775   2.179  17.201  0.00  0.00    +0.000 A 
ATOM     30  O   UNL     1      49.735   2.346  16.574  0.00  0.00    +0.000 OA
ATOM     31  C   UNL     1      51.553   3.231  17.833  0.00  0.00    +0.000 A 
ATOM     32  H   UNL     1      50.829   0.177  16.862  0.00  0.00    +0.000 HD
ENDBRANCH  20  22
ENDBRANCH  19  20
ENDBRANCH  18  19
ENDBRANCH   4  18
TORSDOF 7
ENDMDL
MODEL 2
REMARK VINA RESULT:    -7.495      1.895      2.374
REMARK INTER + INTRA:         -11.366
REMARK INTER:                 -10.797
REMARK INTRA:                  -0.569
REMARK UNBOUND:                -0.805
REMARK  Name = 
REMARK  8 active torsions:
REMARK  status: ('A' for Active; 'I' for Inactive)
REMARK    1  A    between atoms: C_1  and  N_2
REMARK    2  A    between atoms: N_2  and  C_3
REMARK    3  A    between atoms: C_3  and  C_4
REMARK    4  A    between atoms: C_7  and  C_8
REMARK    5  A    between atoms: C_8  and  O_9
REMARK    6  A    between atoms: O_9  and  C_10
REMARK    7  A    between atoms: C_10  and  C_12
REMARK    8  A    between atoms: C_24  and  C_26
REMARK                            x       y       z     vdW  Elec       q    Type
REMARK                         _______ _______ _______ _____ _____    ______ ____
ROOT
ATOM      1  C   UNL     1      46.611   6.261  12.354  0.00  0.00    +0.000 A 
ATOM      2  C   UNL     1      46.744   7.616  12.657  0.00  0.00    +0.000 A 
ATOM      3  C   UNL     1      47.596   8.010  13.686  0.00  0.00    +0.000 A 
ATOM      4  C   UNL     1      48.296   7.034  14.391  0.00  0.00    +0.000 A 
ATOM      5  N   UNL     1      48.174   5.710  14.118  0.00  0.00    +0.000 NA
ATOM      6  C   UNL     1      47.339   5.356  13.118  0.00  0.00    +0.000 A 
ENDROOT
BRANCH   1   7
ATOM      7  C   UNL     1      45.717   5.781  11.251  0.00  0.00    +0.000 C 
BRANCH   7   9
ATOM      8  C   UNL     1      43.757   5.299  12.810  0.00  0.00    +0.000 C 
ATOM      9  N   UNL     1      44.546   4.982  11.626  0.00  0.00    +0.000 N 
ATOM     10  C   UNL     1      44.071   3.920  10.835  0.00  0.00    +0.000 C 
ATOM     11  O   UNL     1      42.996   3.363  11.073  0.00  0.00    +0.000 OA
BRANCH  10  12
ATOM     12  C   UNL     1      44.847   3.442   9.652  0.00  0.00    +0.000 A 
ATOM     13  C   UNL     1      45.158   4.344   8.645  0.00  0.00    +0.000 A 
ATOM     14  N   UNL     1      45.864   3.990   7.538  0.00  0.00    +0.000 NA
ATOM     15  C   UNL     1      46.223   2.688   7.474  0.00  0.00    +0.000 A 
ATOM     16  C   UNL     1      45.899   1.781   8.467  0.00  0.00    +0.000 A 
ATOM     17  N   UNL     1      45.210   2.132   9.577  0.00  0.00    +0.000 NA
ENDBRANCH  10  12
ENDBRANCH   7   9
ENDBRANCH   1   7
BRANCH   4  18
ATOM     18  C   UNL     1      49.227   7.421  15.513  0.00  0.00    +0.000 C 
BRANCH  18  19
ATOM     19  O   UNL     1      48.542   7.425  16.772  0.00  0.00    +0.000 OA
BRANCH  19  20
ATOM     20  C   UNL     1      49.121   6.687  17.746  0.00  0.00    +0.000 C 
ATOM     21  O   UNL     1      49.757   7.147  18.689  0.00  0.00    +0.000 OA
BRANCH  20  22
ATOM     22  C   UNL     1      48.861   5.258  17.595  0.00  0.00    +0.000 A 
ATOM     23  C   UNL     1      47.568   4.767  17.552  0.00  0.00    +0.000 A 
ATOM     24  S   UNL     1      47.501   3.075  17.332  0.00  0.00    +0.000 S 
ATOM     25  C   UNL     1      49.200   2.949  17.332  0.00  0.00    +0.000 A 
ATOM     26  N   UNL     1      49.811   1.741  17.209  0.00  0.00    +0.000 NA
ATOM     27  C   UNL     1      51.101   1.795  17.235  0.00  0.00    +0.000 A 
ATOM     28  N   UNL     1      51.834   2.946  17.369  0.00  0.00    +0.000 N 
ATOM     29  C   UNL     1      51.262   4.185  17.560  0.00  0.00    +0.000 A 
ATOM     30  O   UNL     1      51.956   5.160  17.821  0.00  0.00    +0.000 OA
ATOM     31  C   UNL     1      49.811   4.180  17.489  0.00  0.00    +0.000 A 
ATOM     32  H   UNL     1      52.841   2.914  17.423  0.00  0.00    +0.000 HD
ENDBRANCH  20  22
ENDBRANCH  19  20
ENDBRANCH  18  19
ENDBRANCH   4  18
TORSDOF 7
ENDMDL
MODEL 3
REMARK VINA RESULT:    -7.325      3.405      8.766
REMARK INTER + INTRA:         -11.127
REMARK INTER:                 -10.067
REMARK INTRA:                  -1.060
REMARK UNBOUND:                -0.805
REMARK  Name = 
REMARK  8 active torsions:
REMARK  status: ('A' for Active; 'I' for Inactive)
REMARK    1  A    between atoms: C_1  and  N_2
REMARK    2  A    between atoms: N_2  and  C_3
REMARK    3  A    between atoms: C_3  and  C_4
REMARK    4  A    between atoms: C_7  and  C_8
REMARK    5  A    between atoms: C_8  and  O_9
REMARK    6  A    between atoms: O_9  and  C_10
REMARK    7  A    between atoms: C_10  and  C_12
REMARK    8  A    between atoms: C_24  and  C_26
REMARK                            x       y       z     vdW  Elec       q    Type
REMARK                         _______ _______ _______ _____ _____    ______ ____
ROOT
ATOM      1  C   UNL     1      49.050   7.555  16.056  0.00  0.00    +0.000 A 
ATOM      2  C   UNL     1      48.434   8.760  15.720  0.00  0.00    +0.000 A 
ATOM      3  C   UNL     1      47.877   8.917  14.454  0.00  0.00    +0.000 A 
ATOM      4  C   UNL     1      47.952   7.861  13.549  0.00  0.00    +0.000 A 
ATOM      5  N   UNL     1      48.554   6.684  13.853  0.00  0.00    +0.000 NA
ATOM      6  C   UNL     1      49.089   6.560  15.086  0.00  0.00    +0.000 A 
ENDROOT
BRANCH   1   7
ATOM      7  C   UNL     1      49.656   7.326  17.407  0.00  0.00    +0.000 C 
BRANCH   7   9
ATOM      8  C   UNL     1      48.513   8.423  19.405  0.00  0.00    +0.000 C 
ATOM      9  N   UNL     1      48.746   7.262  18.556  0.00  0.00    +0.000 N 
ATOM     10  C   UNL     1      47.995   6.113  18.862  0.00  0.00    +0.000 C 
ATOM     11  O   UNL     1      47.116   6.123  19.727  0.00  0.00    +0.000 OA
BRANCH  10  12
ATOM     12  C   UNL     1      48.219   4.834  18.123  0.00  0.00    +0.000 A 
ATOM     13  C   UNL     1      47.246   4.392  17.237  0.00  0.00    +0.000 A 
ATOM     14  N   UNL     1      47.376   3.243  16.523  0.00  0.00    +0.000 NA
ATOM     15  C   UNL     1      48.510   2.544  16.754  0.00  0.00    +0.000 A 
ATOM     16  C   UNL     1      49.475   2.972  17.650  0.00  0.00    +0.000 A 
ATOM     17  N   UNL     1      49.356   4.122  18.351  0.00  0.00    +0.000 NA
ENDBRANCH  10  12
ENDBRANCH   7   9
ENDBRANCH   1   7
BRANCH   4  18
ATOM     18  C   UNL     1      47.362   7.995  12.167  0.00  0.00    +0.000 C 
BRANCH  18  19
ATOM     19  O   UNL     1      46.806   6.751  11.722  0.00  0.00    +0.000 OA
BRANCH  19  20
ATOM     20  C   UNL     1      45.473   6.764  11.494  0.00  0.00    +0.000 C 
ATOM     21  O   UNL     1      44.803   7.776  11.316  0.00  0.00    +0.000 OA
BRANCH  20  22
ATOM     22  C   UNL     1      44.904   5.421  11.421  0.00  0.00    +0.000 A 
ATOM     23  C   UNL     1      44.266   4.855  12.512  0.00  0.00    +0.000 A 
ATOM     24  S   UNL     1      43.645   3.298  12.190  0.00  0.00    +0.000 S 
ATOM     25  C   UNL     1      44.251   3.322  10.598  0.00  0.00    +0.000 A 
ATOM     26  N   UNL     1      44.085   2.255   9.771  0.00  0.00    +0.000 NA
ATOM     27  C   UNL     1      44.604   2.409   8.598  0.00  0.00    +0.000 A 
ATOM     28  N   UNL     1      45.270   3.530   8.177  0.00  0.00    +0.000 N 
ATOM     29  C   UNL     1      45.518   4.610   8.996  0.00  0.00    +0.000 A 
ATOM     30  O   UNL     1      46.243   5.525   8.622  0.00  0.00    +0.000 OA
ATOM     31  C   UNL     1      44.910   4.503  10.312  0.00  0.00    +0.000 A 
ATOM     32  H   UNL     1      45.688   3.570   7.260  0.00  0.00    +0.000 HD
ENDBRANCH  20  22
ENDBRANCH  19  20
ENDBRANCH  18  19
ENDBRANCH   4  18
TORSDOF 7
ENDMDL
MODEL 4
REMARK VINA RESULT:    -7.146      2.580      3.441
REMARK INTER + INTRA:         -10.874
REMARK INTER:                  -9.689
REMARK INTRA:                  -1.185
REMARK UNBOUND:                -0.805
REMARK  Name = 
REMARK  8 active torsions:
REMARK  status: ('A' for Active; 'I' for Inactive)
REMARK    1  A    between atoms: C_1  and  N_2
REMARK    2  A    between atoms: N_2  and  C_3
REMARK    3  A    between atoms: C_3  and  C_4
REMARK    4  A    between atoms: C_7  and  C_8
REMARK    5  A    between atoms: C_8  and  O_9
REMARK    6  A    between atoms: O_9  and  C_10
REMARK    7  A    between atoms: C_10  and  C_12
REMARK    8  A    between atoms: C_24  and  C_26
REMARK                            x       y       z     vdW  Elec       q    Type
REMARK                         _______ _______ _______ _____ _____    ______ ____
ROOT
ATOM      1  C   UNL     1      46.643   5.240  12.869  0.00  0.00    +0.000 A 
ATOM      2  C   UNL     1      46.937   6.339  12.063  0.00  0.00    +0.000 A 
ATOM      3  C   UNL     1      47.895   7.259  12.478  0.00  0.00    +0.000 A 
ATOM      4  C   UNL     1      48.539   7.058  13.696  0.00  0.00    +0.000 A 
ATOM      5  N   UNL     1      48.263   6.000  14.500  0.00  0.00    +0.000 NA
ATOM      6  C   UNL     1      47.326   5.125  14.074  0.00  0.00    +0.000 A 
ENDROOT
BRANCH   1   7
ATOM      7  C   UNL     1      45.629   4.211  12.468  0.00  0.00    +0.000 C 
BRANCH   7   9
ATOM      8  C   UNL     1      43.387   5.314  12.978  0.00  0.00    +0.000 C 
ATOM      9  N   UNL     1      44.311   4.690  12.039  0.00  0.00    +0.000 N 
ATOM     10  C   UNL     1      43.891   4.646  10.697  0.00  0.00    +0.000 C 
ATOM     11  O   UNL     1      42.853   5.197  10.323  0.00  0.00    +0.000 OA
BRANCH  10  12
ATOM     12  C   UNL     1      44.710   3.946   9.662  0.00  0.00    +0.000 A 
ATOM     13  C   UNL     1      44.710   2.559   9.632  0.00  0.00    +0.000 A 
ATOM     14  N   UNL     1      45.424   1.847   8.720  0.00  0.00    +0.000 NA
ATOM     15  C   UNL     1      46.157   2.586   7.856  0.00  0.00    +0.000 A 
ATOM     16  C   UNL     1      46.173   3.969   7.893  0.00  0.00    +0.000 A 
ATOM     17  N   UNL     1      45.452   4.681   8.790  0.00  0.00    +0.000 NA
ENDBRANCH  10  12
ENDBRANCH   7   9
ENDBRANCH   1   7
BRANCH   4  18
ATOM     18  C   UNL     1      49.582   8.035  14.181  0.00  0.00    +0.000 C 
BRANCH  18  19
ATOM     19  O   UNL     1      50.710   7.349  14.738  0.00  0.00    +0.000 OA
BRANCH  19  20
ATOM     20  C   UNL     1      51.002   7.665  16.020  0.00  0.00    +0.000 C 
ATOM     21  O   UNL     1      51.546   8.706  16.378  0.00  0.00    +0.000 OA
BRANCH  20  22
ATOM     22  C   UNL     1      50.546   6.650  16.965  0.00  0.00    +0.000 A 
ATOM     23  C   UNL     1      51.242   5.466  17.135  0.00  0.00    +0.000 A 
ATOM     24  S   UNL     1      50.551   4.446  18.316  0.00  0.00    +0.000 S 
ATOM     25  C   UNL     1      49.277   5.541  18.600  0.00  0.00    +0.000 A 
ATOM     26  N   UNL     1      48.296   5.255  19.498  0.00  0.00    +0.000 NA
ATOM     27  C   UNL     1      47.392   6.171  19.603  0.00  0.00    +0.000 A 
ATOM     28  N   UNL     1      47.380   7.345  18.896  0.00  0.00    +0.000 N 
ATOM     29  C   UNL     1      48.314   7.653  17.932  0.00  0.00    +0.000 A 
ATOM     30  O   UNL     1      48.180   8.644  17.225  0.00  0.00    +0.000 OA
ATOM     31  C   UNL     1      49.381   6.673  17.812  0.00  0.00    +0.000 A 
ATOM     32  H   UNL     1      46.620   8.002  18.996  0.00  0.00    +0.000 HD
ENDBRANCH  20  22
ENDBRANCH  19  20
ENDBRANCH  18  19
ENDBRANCH   4  18
TORSDOF 7
ENDMDL
MODEL 5
REMARK VINA RESULT:    -6.941      1.866      3.115
REMARK INTER + INTRA:         -10.587
REMARK INTER:                 -10.234
REMARK INTRA:                  -0.352
REMARK UNBOUND:                -0.805
REMARK  Name = 
REMARK  8 active torsions:
REMARK  status: ('A' for Active; 'I' for Inactive)
REMARK    1  A    between atoms: C_1  and  N_2
REMARK    2  A    between atoms: N_2  and  C_3
REMARK    3  A    between atoms: C_3  and  C_4
REMARK    4  A    between atoms: C_7  and  C_8
REMARK    5  A    between atoms: C_8  and  O_9
REMARK    6  A    between atoms: O_9  and  C_10
REMARK    7  A    between atoms: C_10  and  C_12
REMARK    8  A    between atoms: C_24  and  C_26
REMARK                            x       y       z     vdW  Elec       q    Type
REMARK                         _______ _______ _______ _____ _____    ______ ____
ROOT
ATOM      1  C   UNL     1      47.376   5.526  13.714  0.00  0.00    +0.000 A 
ATOM      2  C   UNL     1      47.929   6.100  14.859  0.00  0.00    +0.000 A 
ATOM      3  C   UNL     1      48.070   5.333  16.012  0.00  0.00    +0.000 A 
ATOM      4  C   UNL     1      47.650   4.005  15.993  0.00  0.00    +0.000 A 
ATOM      5  N   UNL     1      47.102   3.430  14.893  0.00  0.00    +0.000 NA
ATOM      6  C   UNL     1      46.974   4.198  13.790  0.00  0.00    +0.000 A 
ENDROOT
BRANCH   1   7
ATOM      7  C   UNL     1      47.212   6.300  12.441  0.00  0.00    +0.000 C 
BRANCH   7   9
ATOM      8  C   UNL     1      46.059   8.515  12.964  0.00  0.00    +0.000 C 
ATOM      9  N   UNL     1      46.056   7.198  12.338  0.00  0.00    +0.000 N 
ATOM     10  C   UNL     1      44.918   6.880  11.576  0.00  0.00    +0.000 C 
ATOM     11  O   UNL     1      44.027   7.706  11.363  0.00  0.00    +0.000 OA
BRANCH  10  12
ATOM     12  C   UNL     1      44.759   5.525  10.967  0.00  0.00    +0.000 A 
ATOM     13  C   UNL     1      43.979   4.583  11.622  0.00  0.00    +0.000 A 
ATOM     14  N   UNL     1      43.781   3.330  11.132  0.00  0.00    +0.000 NA
ATOM     15  C   UNL     1      44.419   3.056   9.972  0.00  0.00    +0.000 A 
ATOM     16  C   UNL     1      45.212   3.987   9.325  0.00  0.00    +0.000 A 
ATOM     17  N   UNL     1      45.400   5.239   9.801  0.00  0.00    +0.000 NA
ENDBRANCH  10  12
ENDBRANCH   7   9
ENDBRANCH   1   7
BRANCH   4  18
ATOM     18  C   UNL     1      47.784   3.143  17.225  0.00  0.00    +0.000 C 
BRANCH  18  19
ATOM     19  O   UNL     1      49.151   3.054  17.644  0.00  0.00    +0.000 OA
BRANCH  19  20
ATOM     20  C   UNL     1      49.922   2.209  16.923  0.00  0.00    +0.000 C 
ATOM     21  O   UNL     1      49.544   1.590  15.933  0.00  0.00    +0.000 OA
BRANCH  20  22
ATOM     22  C   UNL     1      51.296   2.148  17.412  0.00  0.00    +0.000 A 
ATOM     23  C   UNL     1      51.890   0.938  17.726  0.00  0.00    +0.000 A 
ATOM     24  S   UNL     1      53.509   1.101  18.241  0.00  0.00    +0.000 S 
ATOM     25  C   UNL     1      53.446   2.798  18.098  0.00  0.00    +0.000 A 
ATOM     26  N   UNL     1      54.519   3.567  18.421  0.00  0.00    +0.000 NA
ATOM     27  C   UNL     1      54.325   4.836  18.273  0.00  0.00    +0.000 A 
ATOM     28  N   UNL     1      53.158   5.403  17.831  0.00  0.00    +0.000 N 
ATOM     29  C   UNL     1      52.024   4.672  17.552  0.00  0.00    +0.000 A 
ATOM     30  O   UNL     1      50.964   5.234  17.301  0.00  0.00    +0.000 OA
ATOM     31  C   UNL     1      52.210   3.235  17.656  0.00  0.00    +0.000 A 
ATOM     32  H   UNL     1      53.058   6.406  17.777  0.00  0.00    +0.000 HD
ENDBRANCH  20  22
ENDBRANCH  19  20
ENDBRANCH  18  19
ENDBRANCH   4  18
TORSDOF 7
ENDMDL
MODEL 6
REMARK VINA RESULT:    -6.808      3.596      8.585
REMARK INTER + INTRA:         -10.398
REMARK INTER:                  -9.436
REMARK INTRA:                  -0.962
REMARK UNBOUND:                -0.805
REMARK  Name = 
REMARK  8 active torsions:
REMARK  status: ('A' for Active; 'I' for Inactive)
REMARK    1  A    between atoms: C_1  and  N_2
REMARK    2  A    between atoms: N_2  and  C_3
REMARK    3  A    between atoms: C_3  and  C_4
REMARK    4  A    between atoms: C_7  and  C_8
REMARK    5  A    between atoms: C_8  and  O_9
REMARK    6  A    between atoms: O_9  and  C_10
REMARK    7  A    between atoms: C_10  and  C_12
REMARK    8  A    between atoms: C_24  and  C_26
REMARK                            x       y       z     vdW  Elec       q    Type
REMARK                         _______ _______ _______ _____ _____    ______ ____
ROOT
ATOM      1  C   UNL     1      49.580   7.428  16.039  0.00  0.00    +0.000 A 
ATOM      2  C   UNL     1      49.501   8.746  15.592  0.00  0.00    +0.000 A 
ATOM      3  C   UNL     1      48.980   9.013  14.328  0.00  0.00    +0.000 A 
ATOM      4  C   UNL     1      48.551   7.949  13.539  0.00  0.00    +0.000 A 
ATOM      5  N   UNL     1      48.627   6.659  13.952  0.00  0.00    +0.000 NA
ATOM      6  C   UNL     1      49.139   6.429  15.180  0.00  0.00    +0.000 A 
ENDROOT
BRANCH   1   7
ATOM      7  C   UNL     1      50.121   7.083  17.394  0.00  0.00    +0.000 C 
BRANCH   7   9
ATOM      8  C   UNL     1      49.100   8.325  19.374  0.00  0.00    +0.000 C 
ATOM      9  N   UNL     1      49.194   7.141  18.529  0.00  0.00    +0.000 N 
ATOM     10  C   UNL     1      48.295   6.100  18.824  0.00  0.00    +0.000 C 
ATOM     11  O   UNL     1      47.412   6.227  19.675  0.00  0.00    +0.000 OA
BRANCH  10  12
ATOM     12  C   UNL     1      48.362   4.801  18.090  0.00  0.00    +0.000 A 
ATOM     13  C   UNL     1      47.256   4.384  17.363  0.00  0.00    +0.000 A 
ATOM     14  N   UNL     1      47.238   3.218  16.664  0.00  0.00    +0.000 NA
ATOM     15  C   UNL     1      48.367   2.478  16.745  0.00  0.00    +0.000 A 
ATOM     16  C   UNL     1      49.466   2.882  17.483  0.00  0.00    +0.000 A 
ATOM     17  N   UNL     1      49.493   4.048  18.168  0.00  0.00    +0.000 NA
ENDBRANCH  10  12
ENDBRANCH   7   9
ENDBRANCH   1   7
BRANCH   4  18
ATOM     18  C   UNL     1      47.983   8.198  12.163  0.00  0.00    +0.000 C 
BRANCH  18  19
ATOM     19  O   UNL     1      47.416   7.001  11.616  0.00  0.00    +0.000 OA
BRANCH  19  20
ATOM     20  C   UNL     1      46.076   7.027  11.436  0.00  0.00    +0.000 C 
ATOM     21  O   UNL     1      45.347   7.966  11.742  0.00  0.00    +0.000 OA
BRANCH  20  22
ATOM     22  C   UNL     1      45.575   5.826  10.774  0.00  0.00    +0.000 A 
ATOM     23  C   UNL     1      45.830   5.591   9.434  0.00  0.00    +0.000 A 
ATOM     24  S   UNL     1      45.183   4.111   8.880  0.00  0.00    +0.000 S 
ATOM     25  C   UNL     1      44.510   3.767  10.407  0.00  0.00    +0.000 A 
ATOM     26  N   UNL     1      43.783   2.635  10.611  0.00  0.00    +0.000 NA
ATOM     27  C   UNL     1      43.326   2.510  11.813  0.00  0.00    +0.000 A 
ATOM     28  N   UNL     1      43.530   3.410  12.827  0.00  0.00    +0.000 N 
ATOM     29  C   UNL     1      44.204   4.599  12.653  0.00  0.00    +0.000 A 
ATOM     30  O   UNL     1      44.235   5.436  13.547  0.00  0.00    +0.000 OA
ATOM     31  C   UNL     1      44.780   4.762  11.329  0.00  0.00    +0.000 A 
ATOM     32  H   UNL     1      43.110   3.272  13.733  0.00  0.00    +0.000 HD
ENDBRANCH  20  22
ENDBRANCH  19  20
ENDBRANCH  18  19
ENDBRANCH   4  18
TORSDOF 7
ENDMDL
MODEL 7
REMARK VINA RESULT:    -6.677      2.630      2.946
REMARK INTER + INTRA:         -10.215
REMARK INTER:                 -10.007
REMARK INTRA:                  -0.208
REMARK UNBOUND:                -0.805
REMARK  Name = 
REMARK  8 active torsions:
REMARK  status: ('A' for Active; 'I' for Inactive)
REMARK    1  A    between atoms: C_1  and  N_2
REMARK    2  A    between atoms: N_2  and  C_3
REMARK    3  A    between atoms: C_3  and  C_4
REMARK    4  A    between atoms: C_7  and  C_8
REMARK    5  A    between atoms: C_8  and  O_9
REMARK    6  A    between atoms: O_9  and  C_10
REMARK    7  A    between atoms: C_10  and  C_12
REMARK    8  A    between atoms: C_24  and  C_26
REMARK                            x       y       z     vdW  Elec       q    Type
REMARK                         _______ _______ _______ _____ _____    ______ ____
ROOT
ATOM      1  C   UNL     1      46.199   6.141  11.704  0.00  0.00    +0.000 A 
ATOM      2  C   UNL     1      46.119   7.515  11.926  0.00  0.00    +0.000 A 
ATOM      3  C   UNL     1      46.886   8.095  12.932  0.00  0.00    +0.000 A 
ATOM      4  C   UNL     1      47.719   7.283  13.696  0.00  0.00    +0.000 A 
ATOM      5  N   UNL     1      47.807   5.942  13.502  0.00  0.00    +0.000 NA
ATOM      6  C   UNL     1      47.049   5.406  12.522  0.00  0.00    +0.000 A 
ENDROOT
BRANCH   1   7
ATOM      7  C   UNL     1      45.405   5.465  10.627  0.00  0.00    +0.000 C 
BRANCH   7   9
ATOM      8  C   UNL     1      43.672   4.477  12.217  0.00  0.00    +0.000 C 
ATOM      9  N   UNL     1      44.510   4.374  11.029  0.00  0.00    +0.000 N 
ATOM     10  C   UNL     1      44.352   3.206  10.261  0.00  0.00    +0.000 C 
ATOM     11  O   UNL     1      43.480   2.372  10.520  0.00  0.00    +0.000 OA
BRANCH  10  12
ATOM     12  C   UNL     1      45.223   2.945   9.077  0.00  0.00    +0.000 A 
ATOM     13  C   UNL     1      45.427   3.964   8.156  0.00  0.00    +0.000 A 
ATOM     14  N   UNL     1      46.209   3.809   7.055  0.00  0.00    +0.000 NA
ATOM     15  C   UNL     1      46.758   2.582   6.905  0.00  0.00    +0.000 A 
ATOM     16  C   UNL     1      46.544   1.558   7.811  0.00  0.00    +0.000 A 
ATOM     17  N   UNL     1      45.778   1.713   8.915  0.00  0.00    +0.000 NA
ENDBRANCH  10  12
ENDBRANCH   7   9
ENDBRANCH   1   7
BRANCH   4  18
ATOM     18  C   UNL     1      48.565   7.874  14.797  0.00  0.00    +0.000 C 
BRANCH  18  19
ATOM     19  O   UNL     1      48.601   7.009  15.940  0.00  0.00    +0.000 OA
BRANCH  19  20
ATOM     20  C   UNL     1      49.837   6.724  16.408  0.00  0.00    +0.000 C 
ATOM     21  O   UNL     1      50.818   6.502  15.705  0.00  0.00    +0.000 OA
BRANCH  20  22
ATOM     22  C   UNL     1      49.906   6.763  17.866  0.00  0.00    +0.000 A 
ATOM     23  C   UNL     1      50.515   7.817  18.525  0.00  0.00    +0.000 A 
ATOM     24  S   UNL     1      50.446   7.673  20.224  0.00  0.00    +0.000 S 
ATOM     25  C   UNL     1      49.638   6.176  20.124  0.00  0.00    +0.000 A 
ATOM     26  N   UNL     1      49.304   5.486  21.246  0.00  0.00    +0.000 NA
ATOM     27  C   UNL     1      48.705   4.364  21.019  0.00  0.00    +0.000 A 
ATOM     28  N   UNL     1      48.410   3.872  19.774  0.00  0.00    +0.000 N 
ATOM     29  C   UNL     1      48.783   4.502  18.607  0.00  0.00    +0.000 A 
ATOM     30  O   UNL     1      48.627   3.954  17.523  0.00  0.00    +0.000 OA
ATOM     31  C   UNL     1      49.417   5.794  18.813  0.00  0.00    +0.000 A 
ATOM     32  H   UNL     1      47.976   2.967  19.664  0.00  0.00    +0.000 HD
ENDBRANCH  20  22
ENDBRANCH  19  20
ENDBRANCH  18  19
ENDBRANCH   4  18
TORSDOF 7
ENDMDL
MODEL 8
REMARK VINA RESULT:    -6.612      3.310      9.265
REMARK INTER + INTRA:         -10.123
REMARK INTER:                  -9.123
REMARK INTRA:                  -1.000
REMARK UNBOUND:                -0.805
REMARK  Name = 
REMARK  8 active torsions:
REMARK  status: ('A' for Active; 'I' for Inactive)
REMARK    1  A    between atoms: C_1  and  N_2
REMARK    2  A    between atoms: N_2  and  C_3
REMARK    3  A    between atoms: C_3  and  C_4
REMARK    4  A    between atoms: C_7  and  C_8
REMARK    5  A    between atoms: C_8  and  O_9
REMARK    6  A    between atoms: O_9  and  C_10
REMARK    7  A    between atoms: C_10  and  C_12
REMARK    8  A    between atoms: C_24  and  C_26
REMARK                            x       y       z     vdW  Elec       q    Type
REMARK                         _______ _______ _______ _____ _____    ______ ____
ROOT
ATOM      1  C   UNL     1      50.052   7.754  15.414  0.00  0.00    +0.000 A 
ATOM      2  C   UNL     1      50.312   8.764  14.488  0.00  0.00    +0.000 A 
ATOM      3  C   UNL     1      49.508   8.883  13.358  0.00  0.00    +0.000 A 
ATOM      4  C   UNL     1      48.459   7.985  13.179  0.00  0.00    +0.000 A 
ATOM      5  N   UNL     1      48.194   6.990  14.064  0.00  0.00    +0.000 NA
ATOM      6  C   UNL     1      48.992   6.895  15.149  0.00  0.00    +0.000 A 
ENDROOT
BRANCH   1   7
ATOM      7  C   UNL     1      50.877   7.585  16.654  0.00  0.00    +0.000 C 
BRANCH   7   9
ATOM      8  C   UNL     1      53.274   7.067  15.954  0.00  0.00    +0.000 C 
ATOM      9  N   UNL     1      52.023   6.671  16.587  0.00  0.00    +0.000 N 
ATOM     10  C   UNL     1      52.011   5.400  17.189  0.00  0.00    +0.000 C 
ATOM     11  O   UNL     1      53.029   4.709  17.268  0.00  0.00    +0.000 OA
BRANCH  10  12
ATOM     12  C   UNL     1      50.757   4.847  17.784  0.00  0.00    +0.000 A 
ATOM     13  C   UNL     1      50.479   5.104  19.119  0.00  0.00    +0.000 A 
ATOM     14  N   UNL     1      49.358   4.642  19.735  0.00  0.00    +0.000 NA
ATOM     15  C   UNL     1      48.542   3.891  18.960  0.00  0.00    +0.000 A 
ATOM     16  C   UNL     1      48.824   3.619  17.633  0.00  0.00    +0.000 A 
ATOM     17  N   UNL     1      49.930   4.089  17.014  0.00  0.00    +0.000 NA
ENDBRANCH  10  12
ENDBRANCH   7   9
ENDBRANCH   1   7
BRANCH   4  18
ATOM     18  C   UNL     1      47.567   8.081  11.966  0.00  0.00    +0.000 C 
BRANCH  18  19
ATOM     19  O   UNL     1      46.917   6.831  11.705  0.00  0.00    +0.000 OA
BRANCH  19  20
ATOM     20  C   UNL     1      45.573   6.897  11.573  0.00  0.00    +0.000 C 
ATOM     21  O   UNL     1      44.935   7.934  11.419  0.00  0.00    +0.000 OA
BRANCH  20  22
ATOM     22  C   UNL     1      44.944   5.579  11.573  0.00  0.00    +0.000 A 
ATOM     23  C   UNL     1      44.294   5.097  12.697  0.00  0.00    +0.000 A 
ATOM     24  S   UNL     1      43.602   3.555  12.459  0.00  0.00    +0.000 S 
ATOM     25  C   UNL     1      44.188   3.473  10.862  0.00  0.00    +0.000 A 
ATOM     26  N   UNL     1      43.965   2.375  10.091  0.00  0.00    +0.000 NA
ATOM     27  C   UNL     1      44.476   2.448   8.906  0.00  0.00    +0.000 A 
ATOM     28  N   UNL     1      45.186   3.516   8.424  0.00  0.00    +0.000 N 
ATOM     29  C   UNL     1      45.492   4.623   9.185  0.00  0.00    +0.000 A 
ATOM     30  O   UNL     1      46.251   5.485   8.759  0.00  0.00    +0.000 OA
ATOM     31  C   UNL     1      44.896   4.609  10.511  0.00  0.00    +0.000 A 
ATOM     32  H   UNL     1      45.594   3.492   7.501  0.00  0.00    +0.000 HD
ENDBRANCH  20  22
ENDBRANCH  19  20
ENDBRANCH  18  19
ENDBRANCH   4  18
TORSDOF 7
ENDMDL
MODEL 9
REMARK VINA RESULT:    -6.535      2.571      3.622
REMARK INTER + INTRA:         -10.014
REMARK INTER:                  -9.147
REMARK INTRA:                  -0.867
REMARK UNBOUND:                -0.805
REMARK  Name = 
REMARK  8 active torsions:
REMARK  status: ('A' for Active; 'I' for Inactive)
REMARK    1  A    between atoms: C_1  and  N_2
REMARK    2  A    between atoms: N_2  and  C_3
REMARK    3  A    between atoms: C_3  and  C_4
REMARK    4  A    between atoms: C_7  and  C_8
REMARK    5  A    between atoms: C_8  and  O_9
REMARK    6  A    between atoms: O_9  and  C_10
REMARK    7  A    between atoms: C_10  and  C_12
REMARK    8  A    between atoms: C_24  and  C_26
REMARK                            x       y       z     vdW  Elec       q    Type
REMARK                         _______ _______ _______ _____ _____    ______ ____
ROOT
ATOM      1  C   UNL     1      47.422   6.547  12.937  0.00  0.00    +0.000 A 
ATOM      2  C   UNL     1      48.356   7.563  13.138  0.00  0.00    +0.000 A 
ATOM      3  C   UNL     1      49.114   7.578  14.306  0.00  0.00    +0.000 A 
ATOM      4  C   UNL     1      48.917   6.574  15.250  0.00  0.00    +0.000 A 
ATOM      5  N   UNL     1      48.008   5.581  15.078  0.00  0.00    +0.000 NA
ATOM      6  C   UNL     1      47.284   5.592  13.938  0.00  0.00    +0.000 A 
ENDROOT
BRANCH   1   7
ATOM      7  C   UNL     1      46.586   6.473  11.695  0.00  0.00    +0.000 C 
BRANCH   7   9
ATOM      8  C   UNL     1      45.251   8.636  11.909  0.00  0.00    +0.000 C 
ATOM      9  N   UNL     1      45.310   7.196  11.692  0.00  0.00    +0.000 N 
ATOM     10  C   UNL     1      44.085   6.564  11.409  0.00  0.00    +0.000 C 
ATOM     11  O   UNL     1      43.045   7.207  11.248  0.00  0.00    +0.000 OA
BRANCH  10  12
ATOM     12  C   UNL     1      44.006   5.080  11.263  0.00  0.00    +0.000 A 
ATOM     13  C   UNL     1      44.220   4.516  10.013  0.00  0.00    +0.000 A 
ATOM     14  N   UNL     1      44.171   3.175   9.798  0.00  0.00    +0.000 NA
ATOM     15  C   UNL     1      43.874   2.426  10.884  0.00  0.00    +0.000 A 
ATOM     16  C   UNL     1      43.643   2.985  12.129  0.00  0.00    +0.000 A 
ATOM     17  N   UNL     1      43.705   4.318  12.350  0.00  0.00    +0.000 NA
ENDBRANCH  10  12
ENDBRANCH   7   9
ENDBRANCH   1   7
BRANCH   4  18
ATOM     18  C   UNL     1      49.718   6.558  16.529  0.00  0.00    +0.000 C 
BRANCH  18  19
ATOM     19  O   UNL     1      50.598   5.428  16.570  0.00  0.00    +0.000 OA
BRANCH  19  20
ATOM     20  C   UNL     1      50.188   4.406  17.356  0.00  0.00    +0.000 C 
ATOM     21  O   UNL     1      49.856   3.298  16.946  0.00  0.00    +0.000 OA
BRANCH  20  22
ATOM     22  C   UNL     1      50.235   4.739  18.777  0.00  0.00    +0.000 A 
ATOM     23  C   UNL     1      51.419   4.664  19.489  0.00  0.00    +0.000 A 
ATOM     24  S   UNL     1      51.248   5.133  21.122  0.00  0.00    +0.000 S 
ATOM     25  C   UNL     1      49.578   5.407  20.930  0.00  0.00    +0.000 A 
ATOM     26  N   UNL     1      48.809   5.806  21.978  0.00  0.00    +0.000 NA
ATOM     27  C   UNL     1      47.560   5.965  21.689  0.00  0.00    +0.000 A 
ATOM     28  N   UNL     1      47.012   5.763  20.449  0.00  0.00    +0.000 N 
ATOM     29  C   UNL     1      47.735   5.298  19.373  0.00  0.00    +0.000 A 
ATOM     30  O   UNL     1      47.173   4.994  18.327  0.00  0.00    +0.000 OA
ATOM     31  C   UNL     1      49.156   5.152  19.637  0.00  0.00    +0.000 A 
ATOM     32  H   UNL     1      46.019   5.865  20.300  0.00  0.00    +0.000 HD
ENDBRANCH  20  22
ENDBRANCH  19  20
ENDBRANCH  18  19
ENDBRANCH   4  18
TORSDOF 7
ENDMDL
