MODEL 1
REMARK VINA RESULT:    -7.908      0.000      0.000
REMARK INTER + INTRA:         -13.907
REMARK INTER:                 -12.762
REMARK INTRA:                  -1.144
REMARK UNBOUND:                -1.144
REMARK  Name = 
REMARK  11 active torsions:
REMARK  status: ('A' for Active; 'I' for Inactive)
REMARK    1  A    between atoms: N_1  and  C_2
REMARK    2  A    between atoms: C_2  and  C_3
REMARK    3  A    between atoms: C_3  and  C_4
REMARK    4  A    between atoms: C_4  and  N_5
REMARK    5  A    between atoms: C_4  and  C_13
REMARK    6  A    between atoms: N_5  and  C_6
REMARK    7  A    between atoms: C_6  and  C_7
REMARK    8  A    between atoms: C_16  and  C_17
REMARK    9  A    between atoms: C_17  and  N_18
REMARK   10  A    between atoms: N_18  and  C_19
REMARK   11  A    between atoms: C_19  and  C_20
REMARK                            x       y       z     vdW  Elec       q    Type
REMARK                         _______ _______ _______ _____ _____    ______ ____
ROOT
ATOM      1  C   UNL     1      45.427   4.454  12.237  0.00  0.00    +0.000 A 
ATOM      2  C   UNL     1      45.868   5.627  11.590  0.00  0.00    +0.000 A 
ATOM      3  C   UNL     1      46.860   6.438  12.153  0.00  0.00    +0.000 A 
ATOM      4  C   UNL     1      47.490   6.067  13.346  0.00  0.00    +0.000 A 
ATOM      5  C   UNL     1      47.074   4.895  13.985  0.00  0.00    +0.000 A 
ATOM      6  C   UNL     1      46.048   4.112  13.446  0.00  0.00    +0.000 A 
ENDROOT
BRANCH   1   7
ATOM      7  C   UNL     1      44.272   3.641  11.640  0.00  0.00    +0.000 C 
BRANCH   7   8
ATOM      8  N   UNL     1      44.748   2.492  10.818  0.00  0.00    +0.000 NA
ATOM      9  H   UNL     1      44.234   1.661  11.108  0.00  0.00    +0.000 HD
BRANCH   8  10
ATOM     10  C   UNL     1      44.449   2.716   9.386  0.00  0.00    +0.000 C 
BRANCH  10  11
ATOM     11  C   UNL     1      45.587   2.532   8.400  0.00  0.00    +0.000 A 
ATOM     12  C   UNL     1      45.911   3.513   7.469  0.00  0.00    +0.000 A 
ATOM     13  C   UNL     1      46.808   3.197   6.449  0.00  0.00    +0.000 A 
ATOM     14  C   UNL     1      47.358   1.921   6.383  0.00  0.00    +0.000 A 
ATOM     15  C   UNL     1      47.005   1.012   7.362  0.00  0.00    +0.000 A 
ATOM     16  N   UNL     1      46.141   1.289   8.360  0.00  0.00    +0.000 NA
ENDBRANCH  10  11
ENDBRANCH   8  10
ENDBRANCH   7   8
BRANCH   7  17
ATOM     17  C   UNL     1      43.316   4.567  10.839  0.00  0.00    +0.000 C 
BRANCH  17  18
ATOM     18  C   UNL     1      42.415   5.470  11.674  0.00  0.00    +0.000 C 
BRANCH  18  19
ATOM     19  N   UNL     1      42.443   6.823  11.109  0.00  0.00    +0.000 NA
ATOM     20  H   UNL     1      41.861   7.443  11.671  0.00  0.00    +0.000 HD
ATOM     21  H   UNL     1      42.031   6.815  10.177  0.00  0.00    +0.000 HD
ENDBRANCH  18  19
ENDBRANCH  17  18
ENDBRANCH   7  17
ENDBRANCH   1   7
BRANCH   4  22
ATOM     22  C   UNL     1      48.571   6.928  13.951  0.00  0.00    +0.000 C 
BRANCH  22  23
ATOM     23  N   UNL     1      48.296   7.193  15.359  0.00  0.00    +0.000 NA
ATOM     24  H   UNL     1      47.504   6.621  15.656  0.00  0.00    +0.000 HD
BRANCH  23  25
ATOM     25  C   UNL     1      49.451   6.841  16.194  0.00  0.00    +0.000 C 
BRANCH  25  26
ATOM     26  C   UNL     1      49.264   5.506  16.891  0.00  0.00    +0.000 A 
ATOM     27  C   UNL     1      48.005   5.134  17.362  0.00  0.00    +0.000 A 
ATOM     28  C   UNL     1      47.854   3.899  17.983  0.00  0.00    +0.000 A 
ATOM     29  C   UNL     1      48.960   3.070  18.123  0.00  0.00    +0.000 A 
ATOM     30  C   UNL     1      50.177   3.514  17.633  0.00  0.00    +0.000 A 
ATOM     31  N   UNL     1      50.354   4.707  17.021  0.00  0.00    +0.000 NA
ENDBRANCH  25  26
ENDBRANCH  23  25
ENDBRANCH  22  23
ENDBRANCH   4  22
TORSDOF 11
ENDMDL
MODEL 2
REMARK VINA RESULT:    -7.748      1.137      8.306
REMARK INTER + INTRA:         -13.647
REMARK INTER:                 -12.124
REMARK INTRA:                  -1.524
REMARK UNBOUND:                -1.144
REMARK  Name = 
REMARK  11 active torsions:
REMARK  status: ('A' for Active; 'I' for Inactive)
REMARK    1  A    between atoms: N_1  and  C_2
REMARK    2  A    between atoms: C_2  and  C_3
REMARK    3  A    between atoms: C_3  and  C_4
REMARK    4  A    between atoms: C_4  and  N_5
REMARK    5  A    between atoms: C_4  and  C_13
REMARK    6  A    between atoms: N_5  and  C_6
REMARK    7  A    between atoms: C_6  and  C_7
REMARK    8  A    between atoms: C_16  and  C_17
REMARK    9  A    between atoms: C_17  and  N_18
REMARK   10  A    between atoms: N_18  and  C_19
REMARK   11  A    between atoms: C_19  and  C_20
REMARK                            x       y       z     vdW  Elec       q    Type
REMARK                         _______ _______ _______ _____ _____    ______ ____
ROOT
ATOM      1  C   UNL     1      46.941   6.004  12.677  0.00  0.00    +0.000 A 
ATOM      2  C   UNL     1      46.220   4.975  13.319  0.00  0.00    +0.000 A 
ATOM      3  C   UNL     1      45.088   4.403  12.727  0.00  0.00    +0.000 A 
ATOM      4  C   UNL     1      44.682   4.792  11.445  0.00  0.00    +0.000 A 
ATOM      5  C   UNL     1      45.403   5.797  10.792  0.00  0.00    +0.000 A 
ATOM      6  C   UNL     1      46.503   6.403  11.407  0.00  0.00    +0.000 A 
ENDROOT
BRANCH   1   7
ATOM      7  C   UNL     1      48.117   6.675  13.397  0.00  0.00    +0.000 C 
BRANCH   7   8
ATOM      8  N   UNL     1      47.805   7.003  14.817  0.00  0.00    +0.000 NA
ATOM      9  H   UNL     1      46.963   6.494  15.083  0.00  0.00    +0.000 HD
BRANCH   8  10
ATOM     10  C   UNL     1      48.894   6.548  15.709  0.00  0.00    +0.000 C 
BRANCH  10  11
ATOM     11  C   UNL     1      48.716   5.209  16.399  0.00  0.00    +0.000 A 
ATOM     12  C   UNL     1      47.459   4.639  16.570  0.00  0.00    +0.000 A 
ATOM     13  C   UNL     1      47.337   3.528  17.404  0.00  0.00    +0.000 A 
ATOM     14  C   UNL     1      48.462   3.016  18.043  0.00  0.00    +0.000 A 
ATOM     15  C   UNL     1      49.678   3.624  17.799  0.00  0.00    +0.000 A 
ATOM     16  N   UNL     1      49.827   4.698  16.997  0.00  0.00    +0.000 NA
ENDBRANCH  10  11
ENDBRANCH   8  10
ENDBRANCH   7   8
BRANCH   7  17
ATOM     17  C   UNL     1      48.595   7.924  12.607  0.00  0.00    +0.000 C 
BRANCH  17  18
ATOM     18  C   UNL     1      48.366   9.267  13.291  0.00  0.00    +0.000 C 
BRANCH  18  19
ATOM     19  N   UNL     1      46.928   9.558  13.300  0.00  0.00    +0.000 NA
ATOM     20  H   UNL     1      46.585   9.570  14.259  0.00  0.00    +0.000 HD
ATOM     21  H   UNL     1      46.423   8.809  12.827  0.00  0.00    +0.000 HD
ENDBRANCH  18  19
ENDBRANCH  17  18
ENDBRANCH   7  17
ENDBRANCH   1   7
BRANCH   4  22
ATOM     22  C   UNL     1      43.473   4.168  10.794  0.00  0.00    +0.000 C 
BRANCH  22  23
ATOM     23  N   UNL     1      43.801   3.666   9.464  0.00  0.00    +0.000 NA
ATOM     24  H   UNL     1      44.399   4.345   8.991  0.00  0.00    +0.000 HD
BRANCH  23  25
ATOM     25  C   UNL     1      44.536   2.396   9.551  0.00  0.00    +0.000 C 
BRANCH  25  26
ATOM     26  C   UNL     1      45.597   2.278   8.474  0.00  0.00    +0.000 A 
ATOM     27  C   UNL     1      45.936   3.389   7.701  0.00  0.00    +0.000 A 
ATOM     28  C   UNL     1      46.924   3.261   6.731  0.00  0.00    +0.000 A 
ATOM     29  C   UNL     1      47.544   2.031   6.551  0.00  0.00    +0.000 A 
ATOM     30  C   UNL     1      47.147   0.975   7.355  0.00  0.00    +0.000 A 
ATOM     31  N   UNL     1      46.194   1.069   8.309  0.00  0.00    +0.000 NA
ENDBRANCH  25  26
ENDBRANCH  23  25
ENDBRANCH  22  23
ENDBRANCH   4  22
TORSDOF 11
ENDMDL
MODEL 3
REMARK VINA RESULT:    -7.560      1.542      2.195
REMARK INTER + INTRA:         -13.344
REMARK INTER:                 -12.149
REMARK INTRA:                  -1.195
REMARK UNBOUND:                -1.144
REMARK  Name = 
REMARK  11 active torsions:
REMARK  status: ('A' for Active; 'I' for Inactive)
REMARK    1  A    between atoms: N_1  and  C_2
REMARK    2  A    between atoms: C_2  and  C_3
REMARK    3  A    between atoms: C_3  and  C_4
REMARK    4  A    between atoms: C_4  and  N_5
REMARK    5  A    between atoms: C_4  and  C_13
REMARK    6  A    between atoms: N_5  and  C_6
REMARK    7  A    between atoms: C_6  and  C_7
REMARK    8  A    between atoms: C_16  and  C_17
REMARK    9  A    between atoms: C_17  and  N_18
REMARK   10  A    between atoms: N_18  and  C_19
REMARK   11  A    between atoms: C_19  and  C_20
REMARK                            x       y       z     vdW  Elec       q    Type
REMARK                         _______ _______ _______ _____ _____    ______ ____
ROOT
ATOM      1  C   UNL     1      45.520   4.812  12.236  0.00  0.00    +0.000 A 
ATOM      2  C   UNL     1      46.155   4.619  13.481  0.00  0.00    +0.000 A 
ATOM      3  C   UNL     1      47.259   5.392  13.862  0.00  0.00    +0.000 A 
ATOM      4  C   UNL     1      47.719   6.426  13.041  0.00  0.00    +0.000 A 
ATOM      5  C   UNL     1      47.085   6.638  11.812  0.00  0.00    +0.000 A 
ATOM      6  C   UNL     1      46.014   5.832  11.412  0.00  0.00    +0.000 A 
ENDROOT
BRANCH   1   7
ATOM      7  C   UNL     1      44.376   3.884  11.811  0.00  0.00    +0.000 C 
BRANCH   7   8
ATOM      8  N   UNL     1      44.864   2.649  11.134  0.00  0.00    +0.000 NA
ATOM      9  H   UNL     1      44.432   1.846  11.588  0.00  0.00    +0.000 HD
BRANCH   8  10
ATOM     10  C   UNL     1      44.443   2.631   9.715  0.00  0.00    +0.000 C 
BRANCH  10  11
ATOM     11  C   UNL     1      45.535   2.602   8.664  0.00  0.00    +0.000 A 
ATOM     12  C   UNL     1      45.796   3.701   7.852  0.00  0.00    +0.000 A 
ATOM     13  C   UNL     1      46.650   3.539   6.762  0.00  0.00    +0.000 A 
ATOM     14  C   UNL     1      47.220   2.296   6.509  0.00  0.00    +0.000 A 
ATOM     15  C   UNL     1      46.932   1.262   7.379  0.00  0.00    +0.000 A 
ATOM     16  N   UNL     1      46.111   1.389   8.441  0.00  0.00    +0.000 NA
ENDBRANCH  10  11
ENDBRANCH   8  10
ENDBRANCH   7   8
BRANCH   7  17
ATOM     17  C   UNL     1      43.350   4.654  10.937  0.00  0.00    +0.000 C 
BRANCH  17  18
ATOM     18  C   UNL     1      42.377   5.553  11.693  0.00  0.00    +0.000 C 
BRANCH  18  19
ATOM     19  N   UNL     1      42.566   6.938  11.251  0.00  0.00    +0.000 NA
ATOM     20  H   UNL     1      41.713   7.278  10.809  0.00  0.00    +0.000 HD
ATOM     21  H   UNL     1      43.291   6.974  10.534  0.00  0.00    +0.000 HD
ENDBRANCH  18  19
ENDBRANCH  17  18
ENDBRANCH   7  17
ENDBRANCH   1   7
BRANCH   4  22
ATOM     22  C   UNL     1      48.898   7.273  13.451  0.00  0.00    +0.000 C 
BRANCH  22  23
ATOM     23  N   UNL     1      49.632   6.647  14.544  0.00  0.00    +0.000 NA
ATOM     24  H   UNL     1      50.433   6.142  14.161  0.00  0.00    +0.000 HD
BRANCH  23  25
ATOM     25  C   UNL     1      50.138   7.658  15.482  0.00  0.00    +0.000 C 
BRANCH  25  26
ATOM     26  C   UNL     1      49.224   7.830  16.680  0.00  0.00    +0.000 A 
ATOM     27  C   UNL     1      48.649   9.072  16.948  0.00  0.00    +0.000 A 
ATOM     28  C   UNL     1      47.802   9.203  18.043  0.00  0.00    +0.000 A 
ATOM     29  C   UNL     1      47.553   8.096  18.845  0.00  0.00    +0.000 A 
ATOM     30  C   UNL     1      48.167   6.899  18.515  0.00  0.00    +0.000 A 
ATOM     31  N   UNL     1      48.991   6.740  17.455  0.00  0.00    +0.000 NA
ENDBRANCH  25  26
ENDBRANCH  23  25
ENDBRANCH  22  23
ENDBRANCH   4  22
TORSDOF 11
ENDMDL
MODEL 4
REMARK VINA RESULT:    -7.501      2.648      4.773
REMARK INTER + INTRA:         -13.250
REMARK INTER:                 -11.675
REMARK INTRA:                  -1.575
REMARK UNBOUND:                -1.144
REMARK  Name = 
REMARK  11 active torsions:
REMARK  status: ('A' for Active; 'I' for Inactive)
REMARK    1  A    between atoms: N_1  and  C_2
REMARK    2  A    between atoms: C_2  and  C_3
REMARK    3  A    between atoms: C_3  and  C_4
REMARK    4  A    between atoms: C_4  and  N_5
REMARK    5  A    between atoms: C_4  and  C_13
REMARK    6  A    between atoms: N_5  and  C_6
REMARK    7  A    between atoms: C_6  and  C_7
REMARK    8  A    between atoms: C_16  and  C_17
REMARK    9  A    between atoms: C_17  and  N_18
REMARK   10  A    between atoms: N_18  and  C_19
REMARK   11  A    between atoms: C_19  and  C_20
REMARK                            x       y       z     vdW  Elec       q    Type
REMARK                         _______ _______ _______ _____ _____    ______ ____
ROOT
ATOM      1  C   UNL     1      45.519   4.695  12.017  0.00  0.00    +0.000 A 
ATOM      2  C   UNL     1      45.929   5.627  11.039  0.00  0.00    +0.000 A 
ATOM      3  C   UNL     1      46.957   6.542  11.295  0.00  0.00    +0.000 A 
ATOM      4  C   UNL     1      47.652   6.510  12.508  0.00  0.00    +0.000 A 
ATOM      5  C   UNL     1      47.266   5.578  13.476  0.00  0.00    +0.000 A 
ATOM      6  C   UNL     1      46.206   4.697  13.238  0.00  0.00    +0.000 A 
ENDROOT
BRANCH   1   7
ATOM      7  C   UNL     1      44.326   3.773  11.738  0.00  0.00    +0.000 C 
BRANCH   7   8
ATOM      8  N   UNL     1      44.727   2.514  11.048  0.00  0.00    +0.000 NA
ATOM      9  H   UNL     1      44.208   1.743  11.467  0.00  0.00    +0.000 HD
BRANCH   8  10
ATOM     10  C   UNL     1      44.358   2.565   9.615  0.00  0.00    +0.000 C 
BRANCH  10  11
ATOM     11  C   UNL     1      45.487   2.544   8.603  0.00  0.00    +0.000 A 
ATOM     12  C   UNL     1      45.743   3.631   7.774  0.00  0.00    +0.000 A 
ATOM     13  C   UNL     1      46.640   3.470   6.718  0.00  0.00    +0.000 A 
ATOM     14  C   UNL     1      47.256   2.239   6.516  0.00  0.00    +0.000 A 
ATOM     15  C   UNL     1      46.968   1.218   7.402  0.00  0.00    +0.000 A 
ATOM     16  N   UNL     1      46.106   1.344   8.431  0.00  0.00    +0.000 NA
ENDBRANCH  10  11
ENDBRANCH   8  10
ENDBRANCH   7   8
BRANCH   7  17
ATOM     17  C   UNL     1      43.222   4.535  10.955  0.00  0.00    +0.000 C 
BRANCH  17  18
ATOM     18  C   UNL     1      42.371   5.496  11.776  0.00  0.00    +0.000 C 
BRANCH  18  19
ATOM     19  N   UNL     1      42.452   6.833  11.179  0.00  0.00    +0.000 NA
ATOM     20  H   UNL     1      42.015   6.827  10.259  0.00  0.00    +0.000 HD
ATOM     21  H   UNL     1      43.429   7.083  11.027  0.00  0.00    +0.000 HD
ENDBRANCH  18  19
ENDBRANCH  17  18
ENDBRANCH   7  17
ENDBRANCH   1   7
BRANCH   4  22
ATOM     22  C   UNL     1      48.772   7.483  12.784  0.00  0.00    +0.000 C 
BRANCH  22  23
ATOM     23  N   UNL     1      48.483   8.787  12.197  0.00  0.00    +0.000 NA
ATOM     24  H   UNL     1      48.115   8.652  11.254  0.00  0.00    +0.000 HD
BRANCH  23  25
ATOM     25  C   UNL     1      47.468   9.502  12.983  0.00  0.00    +0.000 C 
BRANCH  25  26
ATOM     26  C   UNL     1      46.397  10.117  12.103  0.00  0.00    +0.000 A 
ATOM     27  C   UNL     1      45.091   9.631  12.148  0.00  0.00    +0.000 A 
ATOM     28  C   UNL     1      44.121  10.221  11.344  0.00  0.00    +0.000 A 
ATOM     29  C   UNL     1      44.479  11.275  10.514  0.00  0.00    +0.000 A 
ATOM     30  C   UNL     1      45.798  11.697  10.523  0.00  0.00    +0.000 A 
ATOM     31  N   UNL     1      46.761  11.147  11.296  0.00  0.00    +0.000 NA
ENDBRANCH  25  26
ENDBRANCH  23  25
ENDBRANCH  22  23
ENDBRANCH   4  22
TORSDOF 11
ENDMDL
MODEL 5
REMARK VINA RESULT:    -7.270      1.261      8.588
REMARK INTER + INTRA:         -12.877
REMARK INTER:                 -11.695
REMARK INTRA:                  -1.183
REMARK UNBOUND:                -1.144
REMARK  Name = 
REMARK  11 active torsions:
REMARK  status: ('A' for Active; 'I' for Inactive)
REMARK    1  A    between atoms: N_1  and  C_2
REMARK    2  A    between atoms: C_2  and  C_3
REMARK    3  A    between atoms: C_3  and  C_4
REMARK    4  A    between atoms: C_4  and  N_5
REMARK    5  A    between atoms: C_4  and  C_13
REMARK    6  A    between atoms: N_5  and  C_6
REMARK    7  A    between atoms: C_6  and  C_7
REMARK    8  A    between atoms: C_16  and  C_17
REMARK    9  A    between atoms: C_17  and  N_18
REMARK   10  A    between atoms: N_18  and  C_19
REMARK   11  A    between atoms: C_19  and  C_20
REMARK                            x       y       z     vdW  Elec       q    Type
REMARK                         _______ _______ _______ _____ _____    ______ ____
ROOT
ATOM      1  C   UNL     1      47.045   6.008  12.910  0.00  0.00    +0.000 A 
ATOM      2  C   UNL     1      46.539   6.335  11.634  0.00  0.00    +0.000 A 
ATOM      3  C   UNL     1      45.470   5.626  11.074  0.00  0.00    +0.000 A 
ATOM      4  C   UNL     1      44.829   4.615  11.798  0.00  0.00    +0.000 A 
ATOM      5  C   UNL     1      45.312   4.297  13.072  0.00  0.00    +0.000 A 
ATOM      6  C   UNL     1      46.412   4.973  13.610  0.00  0.00    +0.000 A 
ENDROOT
BRANCH   1   7
ATOM      7  C   UNL     1      48.279   6.742  13.452  0.00  0.00    +0.000 C 
BRANCH   7   8
ATOM      8  N   UNL     1      48.088   7.221  14.850  0.00  0.00    +0.000 NA
ATOM      9  H   UNL     1      47.215   6.833  15.203  0.00  0.00    +0.000 HD
BRANCH   8  10
ATOM     10  C   UNL     1      49.174   6.726  15.724  0.00  0.00    +0.000 C 
BRANCH  10  11
ATOM     11  C   UNL     1      48.803   5.714  16.792  0.00  0.00    +0.000 A 
ATOM     12  C   UNL     1      48.277   6.109  18.018  0.00  0.00    +0.000 A 
ATOM     13  C   UNL     1      48.170   5.161  19.035  0.00  0.00    +0.000 A 
ATOM     14  C   UNL     1      48.584   3.852  18.807  0.00  0.00    +0.000 A 
ATOM     15  C   UNL     1      49.070   3.536  17.553  0.00  0.00    +0.000 A 
ATOM     16  N   UNL     1      49.185   4.431  16.551  0.00  0.00    +0.000 NA
ENDBRANCH  10  11
ENDBRANCH   8  10
ENDBRANCH   7   8
BRANCH   7  17
ATOM     17  C   UNL     1      48.686   7.896  12.496  0.00  0.00    +0.000 C 
BRANCH  17  18
ATOM     18  C   UNL     1      49.994   7.696  11.737  0.00  0.00    +0.000 C 
BRANCH  18  19
ATOM     19  N   UNL     1      51.115   7.877  12.665  0.00  0.00    +0.000 NA
ATOM     20  H   UNL     1      50.784   7.803  13.625  0.00  0.00    +0.000 HD
ATOM     21  H   UNL     1      51.494   8.819  12.567  0.00  0.00    +0.000 HD
ENDBRANCH  18  19
ENDBRANCH  17  18
ENDBRANCH   7  17
ENDBRANCH   1   7
BRANCH   4  22
ATOM     22  C   UNL     1      43.667   3.857  11.207  0.00  0.00    +0.000 C 
BRANCH  22  23
ATOM     23  N   UNL     1      43.859   3.644   9.777  0.00  0.00    +0.000 NA
ATOM     24  H   UNL     1      44.526   4.333   9.425  0.00  0.00    +0.000 HD
BRANCH  23  25
ATOM     25  C   UNL     1      44.406   2.306   9.515  0.00  0.00    +0.000 C 
BRANCH  25  26
ATOM     26  C   UNL     1      45.480   2.330   8.444  0.00  0.00    +0.000 A 
ATOM     27  C   UNL     1      45.646   3.461   7.645  0.00  0.00    +0.000 A 
ATOM     28  C   UNL     1      46.647   3.466   6.680  0.00  0.00    +0.000 A 
ATOM     29  C   UNL     1      47.453   2.344   6.533  0.00  0.00    +0.000 A 
ATOM     30  C   UNL     1      47.222   1.259   7.362  0.00  0.00    +0.000 A 
ATOM     31  N   UNL     1      46.260   1.226   8.311  0.00  0.00    +0.000 NA
ENDBRANCH  25  26
ENDBRANCH  23  25
ENDBRANCH  22  23
ENDBRANCH   4  22
TORSDOF 11
ENDMDL
MODEL 6
REMARK VINA RESULT:    -7.196      2.868      4.437
REMARK INTER + INTRA:         -12.758
REMARK INTER:                 -11.690
REMARK INTRA:                  -1.068
REMARK UNBOUND:                -1.144
REMARK  Name = 
REMARK  11 active torsions:
REMARK  status: ('A' for Active; 'I' for Inactive)
REMARK    1  A    between atoms: N_1  and  C_2
REMARK    2  A    between atoms: C_2  and  C_3
REMARK    3  A    between atoms: C_3  and  C_4
REMARK    4  A    between atoms: C_4  and  N_5
REMARK    5  A    between atoms: C_4  and  C_13
REMARK    6  A    between atoms: N_5  and  C_6
REMARK    7  A    between atoms: C_6  and  C_7
REMARK    8  A    between atoms: C_16  and  C_17
REMARK    9  A    between atoms: C_17  and  N_18
REMARK   10  A    between atoms: N_18  and  C_19
REMARK   11  A    between atoms: C_19  and  C_20
REMARK                            x       y       z     vdW  Elec       q    Type
REMARK                         _______ _______ _______ _____ _____    ______ ____
ROOT
ATOM      1  C   UNL     1      45.600   4.863  12.168  0.00  0.00    +0.000 A 
ATOM      2  C   UNL     1      46.220   4.678  13.422  0.00  0.00    +0.000 A 
ATOM      3  C   UNL     1      47.292   5.482  13.828  0.00  0.00    +0.000 A 
ATOM      4  C   UNL     1      47.733   6.538  13.024  0.00  0.00    +0.000 A 
ATOM      5  C   UNL     1      47.113   6.741  11.787  0.00  0.00    +0.000 A 
ATOM      6  C   UNL     1      46.074   5.906  11.362  0.00  0.00    +0.000 A 
ENDROOT
BRANCH   1   7
ATOM      7  C   UNL     1      44.493   3.903  11.716  0.00  0.00    +0.000 C 
BRANCH   7   8
ATOM      8  N   UNL     1      45.025   2.729  10.969  0.00  0.00    +0.000 NA
ATOM      9  H   UNL     1      44.648   1.884  11.395  0.00  0.00    +0.000 HD
BRANCH   8  10
ATOM     10  C   UNL     1      44.567   2.754   9.562  0.00  0.00    +0.000 C 
BRANCH  10  11
ATOM     11  C   UNL     1      45.615   2.551   8.484  0.00  0.00    +0.000 A 
ATOM     12  C   UNL     1      45.868   3.523   7.522  0.00  0.00    +0.000 A 
ATOM     13  C   UNL     1      46.672   3.192   6.432  0.00  0.00    +0.000 A 
ATOM     14  C   UNL     1      47.202   1.910   6.329  0.00  0.00    +0.000 A 
ATOM     15  C   UNL     1      46.925   1.011   7.341  0.00  0.00    +0.000 A 
ATOM     16  N   UNL     1      46.151   1.303   8.406  0.00  0.00    +0.000 NA
ENDBRANCH  10  11
ENDBRANCH   8  10
ENDBRANCH   7   8
BRANCH   7  17
ATOM     17  C   UNL     1      43.415   4.667  10.898  0.00  0.00    +0.000 C 
BRANCH  17  18
ATOM     18  C   UNL     1      42.475   5.553  11.707  0.00  0.00    +0.000 C 
BRANCH  18  19
ATOM     19  N   UNL     1      42.586   6.933  11.222  0.00  0.00    +0.000 NA
ATOM     20  H   UNL     1      43.565   7.215  11.208  0.00  0.00    +0.000 HD
ATOM     21  H   UNL     1      42.118   7.564  11.872  0.00  0.00    +0.000 HD
ENDBRANCH  18  19
ENDBRANCH  17  18
ENDBRANCH   7  17
ENDBRANCH   1   7
BRANCH   4  22
ATOM     22  C   UNL     1      48.878   7.418  13.461  0.00  0.00    +0.000 C 
BRANCH  22  23
ATOM     23  N   UNL     1      49.379   8.211  12.345  0.00  0.00    +0.000 NA
ATOM     24  H   UNL     1      48.759   9.008  12.199  0.00  0.00    +0.000 HD
BRANCH  23  25
ATOM     25  C   UNL     1      50.724   8.727  12.631  0.00  0.00    +0.000 C 
BRANCH  25  26
ATOM     26  C   UNL     1      51.701   8.423  11.511  0.00  0.00    +0.000 A 
ATOM     27  C   UNL     1      51.417   7.415  10.590  0.00  0.00    +0.000 A 
ATOM     28  C   UNL     1      52.320   7.164   9.562  0.00  0.00    +0.000 A 
ATOM     29  C   UNL     1      53.483   7.919   9.482  0.00  0.00    +0.000 A 
ATOM     30  C   UNL     1      53.695   8.899  10.438  0.00  0.00    +0.000 A 
ATOM     31  N   UNL     1      52.834   9.168  11.445  0.00  0.00    +0.000 NA
ENDBRANCH  25  26
ENDBRANCH  23  25
ENDBRANCH  22  23
ENDBRANCH   4  22
TORSDOF 11
ENDMDL
MODEL 7
REMARK VINA RESULT:    -6.840      1.963      9.302
REMARK INTER + INTRA:         -12.183
REMARK INTER:                 -10.927
REMARK INTRA:                  -1.255
REMARK UNBOUND:                -1.144
REMARK  Name = 
REMARK  11 active torsions:
REMARK  status: ('A' for Active; 'I' for Inactive)
REMARK    1  A    between atoms: N_1  and  C_2
REMARK    2  A    between atoms: C_2  and  C_3
REMARK    3  A    between atoms: C_3  and  C_4
REMARK    4  A    between atoms: C_4  and  N_5
REMARK    5  A    between atoms: C_4  and  C_13
REMARK    6  A    between atoms: N_5  and  C_6
REMARK    7  A    between atoms: C_6  and  C_7
REMARK    8  A    between atoms: C_16  and  C_17
REMARK    9  A    between atoms: C_17  and  N_18
REMARK   10  A    between atoms: N_18  and  C_19
REMARK   11  A    between atoms: C_19  and  C_20
REMARK                            x       y       z     vdW  Elec       q    Type
REMARK                         _______ _______ _______ _____ _____    ______ ____
ROOT
ATOM      1  C   UNL     1      47.316   5.030  14.789  0.00  0.00    +0.000 A 
ATOM      2  C   UNL     1      46.589   3.965  14.217  0.00  0.00    +0.000 A 
ATOM      3  C   UNL     1      45.994   4.087  12.956  0.00  0.00    +0.000 A 
ATOM      4  C   UNL     1      46.164   5.251  12.199  0.00  0.00    +0.000 A 
ATOM      5  C   UNL     1      46.899   6.305  12.749  0.00  0.00    +0.000 A 
ATOM      6  C   UNL     1      47.451   6.200  14.030  0.00  0.00    +0.000 A 
ENDROOT
BRANCH   1   7
ATOM      7  C   UNL     1      47.872   4.896  16.212  0.00  0.00    +0.000 C 
BRANCH   7   8
ATOM      8  N   UNL     1      49.316   5.256  16.296  0.00  0.00    +0.000 NA
ATOM      9  H   UNL     1      49.676   5.347  15.347  0.00  0.00    +0.000 HD
BRANCH   8  10
ATOM     10  C   UNL     1      49.489   6.567  16.961  0.00  0.00    +0.000 C 
BRANCH  10  11
ATOM     11  C   UNL     1      48.867   6.741  18.333  0.00  0.00    +0.000 A 
ATOM     12  C   UNL     1      47.981   7.777  18.605  0.00  0.00    +0.000 A 
ATOM     13  C   UNL     1      47.622   8.019  19.931  0.00  0.00    +0.000 A 
ATOM     14  C   UNL     1      48.150   7.227  20.946  0.00  0.00    +0.000 A 
ATOM     15  C   UNL     1      49.003   6.200  20.588  0.00  0.00    +0.000 A 
ATOM     16  N   UNL     1      49.367   5.943  19.316  0.00  0.00    +0.000 NA
ENDBRANCH  10  11
ENDBRANCH   8  10
ENDBRANCH   7   8
BRANCH   7  17
ATOM     17  C   UNL     1      47.598   3.473  16.770  0.00  0.00    +0.000 C 
BRANCH  17  18
ATOM     18  C   UNL     1      48.831   2.672  17.174  0.00  0.00    +0.000 C 
BRANCH  18  19
ATOM     19  N   UNL     1      49.341   1.957  15.999  0.00  0.00    +0.000 NA
ATOM     20  H   UNL     1      49.811   1.102  16.293  0.00  0.00    +0.000 HD
ATOM     21  H   UNL     1      50.047   2.524  15.532  0.00  0.00    +0.000 HD
ENDBRANCH  18  19
ENDBRANCH  17  18
ENDBRANCH   7  17
ENDBRANCH   1   7
BRANCH   4  22
ATOM     22  C   UNL     1      45.538   5.384  10.832  0.00  0.00    +0.000 C 
BRANCH  22  23
ATOM     23  N   UNL     1      44.441   4.437  10.670  0.00  0.00    +0.000 NA
ATOM     24  H   UNL     1      43.613   4.803  11.142  0.00  0.00    +0.000 HD
BRANCH  23  25
ATOM     25  C   UNL     1      44.111   4.255   9.249  0.00  0.00    +0.000 C 
BRANCH  25  26
ATOM     26  C   UNL     1      45.181   3.472   8.513  0.00  0.00    +0.000 A 
ATOM     27  C   UNL     1      45.373   2.119   8.789  0.00  0.00    +0.000 A 
ATOM     28  C   UNL     1      46.349   1.418   8.090  0.00  0.00    +0.000 A 
ATOM     29  C   UNL     1      47.112   2.082   7.138  0.00  0.00    +0.000 A 
ATOM     30  C   UNL     1      46.864   3.428   6.926  0.00  0.00    +0.000 A 
ATOM     31  N   UNL     1      45.920   4.136   7.586  0.00  0.00    +0.000 NA
ENDBRANCH  25  26
ENDBRANCH  23  25
ENDBRANCH  22  23
ENDBRANCH   4  22
TORSDOF 11
ENDMDL
MODEL 8
REMARK VINA RESULT:    -6.720      1.698      8.497
REMARK INTER + INTRA:         -11.989
REMARK INTER:                 -10.555
REMARK INTRA:                  -1.435
REMARK UNBOUND:                -1.144
REMARK  Name = 
REMARK  11 active torsions:
REMARK  status: ('A' for Active; 'I' for Inactive)
REMARK    1  A    between atoms: N_1  and  C_2
REMARK    2  A    between atoms: C_2  and  C_3
REMARK    3  A    between atoms: C_3  and  C_4
REMARK    4  A    between atoms: C_4  and  N_5
REMARK    5  A    between atoms: C_4  and  C_13
REMARK    6  A    between atoms: N_5  and  C_6
REMARK    7  A    between atoms: C_6  and  C_7
REMARK    8  A    between atoms: C_16  and  C_17
REMARK    9  A    between atoms: C_17  and  N_18
REMARK   10  A    between atoms: N_18  and  C_19
REMARK   11  A    between atoms: C_19  and  C_20
REMARK                            x       y       z     vdW  Elec       q    Type
REMARK                         _______ _______ _______ _____ _____    ______ ____
ROOT
ATOM      1  C   UNL     1      47.157   6.358  13.092  0.00  0.00    +0.000 A 
ATOM      2  C   UNL     1      46.886   5.073  13.607  0.00  0.00    +0.000 A 
ATOM      3  C   UNL     1      45.598   4.526  13.554  0.00  0.00    +0.000 A 
ATOM      4  C   UNL     1      44.558   5.216  12.922  0.00  0.00    +0.000 A 
ATOM      5  C   UNL     1      44.821   6.482  12.391  0.00  0.00    +0.000 A 
ATOM      6  C   UNL     1      46.096   7.048  12.490  0.00  0.00    +0.000 A 
ENDROOT
BRANCH   1   7
ATOM      7  C   UNL     1      48.556   6.966  13.254  0.00  0.00    +0.000 C 
BRANCH   7   8
ATOM      8  N   UNL     1      48.722   7.677  14.553  0.00  0.00    +0.000 NA
ATOM      9  H   UNL     1      47.798   7.812  14.961  0.00  0.00    +0.000 HD
BRANCH   8  10
ATOM     10  C   UNL     1      49.505   6.854  15.501  0.00  0.00    +0.000 C 
BRANCH  10  11
ATOM     11  C   UNL     1      48.811   6.405  16.773  0.00  0.00    +0.000 A 
ATOM     12  C   UNL     1      48.223   5.148  16.877  0.00  0.00    +0.000 A 
ATOM     13  C   UNL     1      47.410   4.880  17.978  0.00  0.00    +0.000 A 
ATOM     14  C   UNL     1      47.204   5.862  18.941  0.00  0.00    +0.000 A 
ATOM     15  C   UNL     1      47.846   7.075  18.777  0.00  0.00    +0.000 A 
ATOM     16  N   UNL     1      48.638   7.363  17.724  0.00  0.00    +0.000 NA
ENDBRANCH  10  11
ENDBRANCH   8  10
ENDBRANCH   7   8
BRANCH   7  17
ATOM     17  C   UNL     1      48.891   7.883  12.046  0.00  0.00    +0.000 C 
BRANCH  17  18
ATOM     18  C   UNL     1      50.281   7.706  11.446  0.00  0.00    +0.000 C 
BRANCH  18  19
ATOM     19  N   UNL     1      51.284   7.924  12.494  0.00  0.00    +0.000 NA
ATOM     20  H   UNL     1      50.982   8.677  13.109  0.00  0.00    +0.000 HD
ATOM     21  H   UNL     1      52.159   8.234  12.073  0.00  0.00    +0.000 HD
ENDBRANCH  18  19
ENDBRANCH  17  18
ENDBRANCH   7  17
ENDBRANCH   1   7
BRANCH   4  22
ATOM     22  C   UNL     1      43.172   4.625  12.847  0.00  0.00    +0.000 C 
BRANCH  22  23
ATOM     23  N   UNL     1      42.859   4.207  11.485  0.00  0.00    +0.000 NA
ATOM     24  H   UNL     1      43.179   4.926  10.835  0.00  0.00    +0.000 HD
BRANCH  23  25
ATOM     25  C   UNL     1      43.549   2.953  11.151  0.00  0.00    +0.000 C 
BRANCH  25  26
ATOM     26  C   UNL     1      44.455   3.106   9.945  0.00  0.00    +0.000 A 
ATOM     27  C   UNL     1      44.921   1.976   9.273  0.00  0.00    +0.000 A 
ATOM     28  C   UNL     1      45.738   2.141   8.159  0.00  0.00    +0.000 A 
ATOM     29  C   UNL     1      46.073   3.425   7.748  0.00  0.00    +0.000 A 
ATOM     30  C   UNL     1      45.574   4.495   8.472  0.00  0.00    +0.000 A 
ATOM     31  N   UNL     1      44.775   4.367   9.555  0.00  0.00    +0.000 NA
ENDBRANCH  25  26
ENDBRANCH  23  25
ENDBRANCH  22  23
ENDBRANCH   4  22
TORSDOF 11
ENDMDL
MODEL 9
REMARK VINA RESULT:    -6.465      3.096      8.097
REMARK INTER + INTRA:         -11.577
REMARK INTER:                 -10.466
REMARK INTRA:                  -1.111
REMARK UNBOUND:                -1.144
REMARK  Name = 
REMARK  11 active torsions:
REMARK  status: ('A' for Active; 'I' for Inactive)
REMARK    1  A    between atoms: N_1  and  C_2
REMARK    2  A    between atoms: C_2  and  C_3
REMARK    3  A    between atoms: C_3  and  C_4
REMARK    4  A    between atoms: C_4  and  N_5
REMARK    5  A    between atoms: C_4  and  C_13
REMARK    6  A    between atoms: N_5  and  C_6
REMARK    7  A    between atoms: C_6  and  C_7
REMARK    8  A    between atoms: C_16  and  C_17
REMARK    9  A    between atoms: C_17  and  N_18
REMARK   10  A    between atoms: N_18  and  C_19
REMARK   11  A    between atoms: C_19  and  C_20
REMARK                            x       y       z     vdW  Elec       q    Type
REMARK                         _______ _______ _______ _____ _____    ______ ____
ROOT
ATOM      1  C   UNL     1      45.924   6.919  12.626  0.00  0.00    +0.000 A 
ATOM      2  C   UNL     1      44.719   6.950  11.894  0.00  0.00    +0.000 A 
ATOM      3  C   UNL     1      44.078   5.770  11.498  0.00  0.00    +0.000 A 
ATOM      4  C   UNL     1      44.586   4.523  11.879  0.00  0.00    +0.000 A 
ATOM      5  C   UNL     1      45.770   4.482  12.621  0.00  0.00    +0.000 A 
ATOM      6  C   UNL     1      46.435   5.661  12.974  0.00  0.00    +0.000 A 
ENDROOT
BRANCH   1   7
ATOM      7  C   UNL     1      46.649   8.228  12.960  0.00  0.00    +0.000 C 
BRANCH   7   8
ATOM      8  N   UNL     1      46.622   9.199  11.829  0.00  0.00    +0.000 NA
ATOM      9  H   UNL     1      46.253   8.721  11.009  0.00  0.00    +0.000 HD
BRANCH   8  10
ATOM     10  C   UNL     1      45.710  10.325  12.130  0.00  0.00    +0.000 C 
BRANCH  10  11
ATOM     11  C   UNL     1      44.712  10.718  11.058  0.00  0.00    +0.000 A 
ATOM     12  C   UNL     1      43.430  10.180  11.023  0.00  0.00    +0.000 A 
ATOM     13  C   UNL     1      42.641  10.403   9.895  0.00  0.00    +0.000 A 
ATOM     14  C   UNL     1      43.144  11.153   8.837  0.00  0.00    +0.000 A 
ATOM     15  C   UNL     1      44.417  11.676   8.962  0.00  0.00    +0.000 A 
ATOM     16  N   UNL     1      45.202  11.477  10.040  0.00  0.00    +0.000 NA
ENDBRANCH  10  11
ENDBRANCH   8  10
ENDBRANCH   7   8
BRANCH   7  17
ATOM     17  C   UNL     1      48.098   7.939  13.438  0.00  0.00    +0.000 C 
BRANCH  17  18
ATOM     18  C   UNL     1      48.524   8.643  14.722  0.00  0.00    +0.000 C 
BRANCH  18  19
ATOM     19  N   UNL     1      47.331   9.163  15.398  0.00  0.00    +0.000 NA
ATOM     20  H   UNL     1      47.438  10.162  15.567  0.00  0.00    +0.000 HD
ATOM     21  H   UNL     1      47.240   8.729  16.316  0.00  0.00    +0.000 HD
ENDBRANCH  18  19
ENDBRANCH  17  18
ENDBRANCH   7  17
ENDBRANCH   1   7
BRANCH   4  22
ATOM     22  C   UNL     1      43.893   3.247  11.469  0.00  0.00    +0.000 C 
BRANCH  22  23
ATOM     23  N   UNL     1      44.747   2.450  10.597  0.00  0.00    +0.000 NA
ATOM     24  H   UNL     1      44.629   1.463  10.829  0.00  0.00    +0.000 HD
BRANCH  23  25
ATOM     25  C   UNL     1      44.376   2.634   9.188  0.00  0.00    +0.000 C 
BRANCH  25  26
ATOM     26  C   UNL     1      45.584   2.598   8.271  0.00  0.00    +0.000 A 
ATOM     27  C   UNL     1      46.278   1.405   8.077  0.00  0.00    +0.000 A 
ATOM     28  C   UNL     1      47.373   1.392   7.219  0.00  0.00    +0.000 A 
ATOM     29  C   UNL     1      47.751   2.568   6.583  0.00  0.00    +0.000 A 
ATOM     30  C   UNL     1      47.012   3.713   6.833  0.00  0.00    +0.000 A 
ATOM     31  N   UNL     1      45.941   3.755   7.657  0.00  0.00    +0.000 NA
ENDBRANCH  25  26
ENDBRANCH  23  25
ENDBRANCH  22  23
ENDBRANCH   4  22
TORSDOF 11
ENDMDL
