MODEL 1
REMARK VINA RESULT:    -8.458      0.000      0.000
REMARK INTER + INTRA:         -12.199
REMARK INTER:                 -11.672
REMARK INTRA:                  -0.526
REMARK UNBOUND:                -0.526
REMARK  Name = 
REMARK  7 active torsions:
REMARK  status: ('A' for Active; 'I' for Inactive)
REMARK    1  A    between atoms: C_2  and  C_4
REMARK    2  A    between atoms: C_7  and  C_8
REMARK    3  A    between atoms: C_8  and  S_9
REMARK    4  A    between atoms: S_9  and  C_10
REMARK    5  A    between atoms: C_14  and  N_15
REMARK    6  A    between atoms: N_15  and  C_16
REMARK    7  A    between atoms: C_19  and  O_20
REMARK                            x       y       z     vdW  Elec       q    Type
REMARK                         _______ _______ _______ _____ _____    ______ ____
ROOT
ATOM      1  C   UNL     1      45.142   5.426  12.241  0.00  0.00    +0.000 A 
ATOM      2  C   UNL     1      46.005   6.470  11.893  0.00  0.00    +0.000 A 
ATOM      3  C   UNL     1      47.243   6.598  12.512  0.00  0.00    +0.000 A 
ATOM      4  C   UNL     1      47.615   5.701  13.513  0.00  0.00    +0.000 A 
ATOM      5  C   UNL     1      46.738   4.708  13.963  0.00  0.00    +0.000 A 
ATOM      6  C   UNL     1      45.519   4.552  13.273  0.00  0.00    +0.000 A 
ENDROOT
BRANCH   5   7
ATOM      7  N   UNL     1      47.070   3.797  14.978  0.00  0.00    +0.000 N 
ATOM      8  H   UNL     1      46.540   2.932  14.901  0.00  0.00    +0.000 HD
BRANCH   7   9
ATOM      9  C   UNL     1      47.219   4.268  16.359  0.00  0.00    +0.000 C 
ATOM     10  C   UNL     1      48.511   5.094  16.524  0.00  0.00    +0.000 C 
ATOM     11  C   UNL     1      49.385   4.351  17.529  0.00  0.00    +0.000 C 
ATOM     12  C   UNL     1      48.419   3.509  18.346  0.00  0.00    +0.000 C 
ATOM     13  C   UNL     1      47.336   3.106  17.359  0.00  0.00    +0.000 C 
BRANCH  12  14
ATOM     14  O   UNL     1      47.868   4.255  19.425  0.00  0.00    +0.000 OA
ATOM     15  H   UNL     1      47.258   3.694  19.926  0.00  0.00    +0.000 HD
ENDBRANCH  12  14
ENDBRANCH   7   9
ENDBRANCH   5   7
BRANCH   1  16
ATOM     16  S   UNL     1      43.692   5.226  11.215  0.00  0.00    +0.000 S 
BRANCH  16  17
ATOM     17  C   UNL     1      43.712   3.454  10.762  0.00  0.00    +0.000 C 
BRANCH  17  21
ATOM     18  C   UNL     1      46.420   2.690   7.542  0.00  0.00    +0.000 A 
ATOM     19  C   UNL     1      45.954   3.990   7.730  0.00  0.00    +0.000 A 
ATOM     20  C   UNL     1      45.049   4.247   8.757  0.00  0.00    +0.000 A 
ATOM     21  C   UNL     1      44.645   3.202   9.592  0.00  0.00    +0.000 A 
ATOM     22  N   UNL     1      45.060   1.923   9.392  0.00  0.00    +0.000 NA
ATOM     23  C   UNL     1      45.931   1.696   8.377  0.00  0.00    +0.000 A 
BRANCH  18  25
ATOM     24  N   UNL     1      47.416   3.118   5.376  0.00  0.00    +0.000 N 
ATOM     25  C   UNL     1      47.399   2.341   6.499  0.00  0.00    +0.000 C 
ATOM     26  O   UNL     1      48.193   1.417   6.649  0.00  0.00    +0.000 OA
ATOM     27  H   UNL     1      48.160   2.937   4.713  0.00  0.00    +0.000 HD
ATOM     28  H   UNL     1      46.976   4.028   5.341  0.00  0.00    +0.000 HD
ENDBRANCH  18  25
ENDBRANCH  17  21
ENDBRANCH  16  17
ENDBRANCH   1  16
TORSDOF 7
ENDMDL
MODEL 2
REMARK VINA RESULT:    -8.060      3.032      4.293
REMARK INTER + INTRA:         -11.649
REMARK INTER:                 -10.636
REMARK INTRA:                  -1.013
REMARK UNBOUND:                -0.526
REMARK  Name = 
REMARK  7 active torsions:
REMARK  status: ('A' for Active; 'I' for Inactive)
REMARK    1  A    between atoms: C_2  and  C_4
REMARK    2  A    between atoms: C_7  and  C_8
REMARK    3  A    between atoms: C_8  and  S_9
REMARK    4  A    between atoms: S_9  and  C_10
REMARK    5  A    between atoms: C_14  and  N_15
REMARK    6  A    between atoms: N_15  and  C_16
REMARK    7  A    between atoms: C_19  and  O_20
REMARK                            x       y       z     vdW  Elec       q    Type
REMARK                         _______ _______ _______ _____ _____    ______ ____
ROOT
ATOM      1  C   UNL     1      44.950   4.466  12.428  0.00  0.00    +0.000 A 
ATOM      2  C   UNL     1      45.719   3.420  12.947  0.00  0.00    +0.000 A 
ATOM      3  C   UNL     1      46.834   3.687  13.733  0.00  0.00    +0.000 A 
ATOM      4  C   UNL     1      47.211   5.007  13.979  0.00  0.00    +0.000 A 
ATOM      5  C   UNL     1      46.530   6.078  13.391  0.00  0.00    +0.000 A 
ATOM      6  C   UNL     1      45.362   5.788  12.658  0.00  0.00    +0.000 A 
ENDROOT
BRANCH   5   7
ATOM      7  N   UNL     1      46.889   7.420  13.601  0.00  0.00    +0.000 N 
ATOM      8  H   UNL     1      46.247   7.889  14.236  0.00  0.00    +0.000 HD
BRANCH   7   9
ATOM      9  C   UNL     1      47.299   8.251  12.465  0.00  0.00    +0.000 C 
ATOM     10  C   UNL     1      48.503   7.628  11.731  0.00  0.00    +0.000 C 
ATOM     11  C   UNL     1      49.654   8.624  11.846  0.00  0.00    +0.000 C 
ATOM     12  C   UNL     1      48.988   9.971  12.075  0.00  0.00    +0.000 C 
ATOM     13  C   UNL     1      47.756   9.651  12.906  0.00  0.00    +0.000 C 
BRANCH  12  14
ATOM     14  O   UNL     1      48.623  10.583  10.843  0.00  0.00    +0.000 OA
ATOM     15  H   UNL     1      48.855  11.523  10.870  0.00  0.00    +0.000 HD
ENDBRANCH  12  14
ENDBRANCH   7   9
ENDBRANCH   5   7
BRANCH   1  16
ATOM     16  S   UNL     1      43.415   4.000  11.638  0.00  0.00    +0.000 S 
BRANCH  16  17
ATOM     17  C   UNL     1      43.598   4.614   9.924  0.00  0.00    +0.000 C 
BRANCH  17  21
ATOM     18  C   UNL     1      46.622   2.522   7.742  0.00  0.00    +0.000 A 
ATOM     19  C   UNL     1      45.787   1.797   8.591  0.00  0.00    +0.000 A 
ATOM     20  C   UNL     1      44.817   2.470   9.330  0.00  0.00    +0.000 A 
ATOM     21  C   UNL     1      44.685   3.853   9.187  0.00  0.00    +0.000 A 
ATOM     22  N   UNL     1      45.520   4.576   8.394  0.00  0.00    +0.000 NA
ATOM     23  C   UNL     1      46.466   3.899   7.695  0.00  0.00    +0.000 A 
BRANCH  18  25
ATOM     24  N   UNL     1      48.544   2.703   6.280  0.00  0.00    +0.000 N 
ATOM     25  C   UNL     1      47.652   1.882   6.906  0.00  0.00    +0.000 C 
ATOM     26  O   UNL     1      47.729   0.660   6.808  0.00  0.00    +0.000 OA
ATOM     27  H   UNL     1      49.310   2.252   5.794  0.00  0.00    +0.000 HD
ATOM     28  H   UNL     1      48.674   3.669   6.552  0.00  0.00    +0.000 HD
ENDBRANCH  18  25
ENDBRANCH  17  21
ENDBRANCH  16  17
ENDBRANCH   1  16
TORSDOF 7
ENDMDL
MODEL 3
REMARK VINA RESULT:    -7.875      3.744      5.518
REMARK INTER + INTRA:         -11.394
REMARK INTER:                 -10.615
REMARK INTRA:                  -0.778
REMARK UNBOUND:                -0.526
REMARK  Name = 
REMARK  7 active torsions:
REMARK  status: ('A' for Active; 'I' for Inactive)
REMARK    1  A    between atoms: C_2  and  C_4
REMARK    2  A    between atoms: C_7  and  C_8
REMARK    3  A    between atoms: C_8  and  S_9
REMARK    4  A    between atoms: S_9  and  C_10
REMARK    5  A    between atoms: C_14  and  N_15
REMARK    6  A    between atoms: N_15  and  C_16
REMARK    7  A    between atoms: C_19  and  O_20
REMARK                            x       y       z     vdW  Elec       q    Type
REMARK                         _______ _______ _______ _____ _____    ______ ____
ROOT
ATOM      1  C   UNL     1      45.268   5.414  12.528  0.00  0.00    +0.000 A 
ATOM      2  C   UNL     1      46.614   5.182  12.830  0.00  0.00    +0.000 A 
ATOM      3  C   UNL     1      47.440   6.232  13.215  0.00  0.00    +0.000 A 
ATOM      4  C   UNL     1      46.936   7.531  13.269  0.00  0.00    +0.000 A 
ATOM      5  C   UNL     1      45.625   7.818  12.873  0.00  0.00    +0.000 A 
ATOM      6  C   UNL     1      44.785   6.732  12.556  0.00  0.00    +0.000 A 
ENDROOT
BRANCH   5   7
ATOM      7  N   UNL     1      45.085   9.114  12.899  0.00  0.00    +0.000 N 
ATOM      8  H   UNL     1      44.217   9.154  13.427  0.00  0.00    +0.000 HD
BRANCH   7   9
ATOM      9  C   UNL     1      45.059   9.915  11.671  0.00  0.00    +0.000 C 
ATOM     10  C   UNL     1      46.111  11.041  11.724  0.00  0.00    +0.000 C 
ATOM     11  C   UNL     1      45.350  12.361  11.650  0.00  0.00    +0.000 C 
ATOM     12  C   UNL     1      44.030  12.019  10.978  0.00  0.00    +0.000 C 
ATOM     13  C   UNL     1      43.706  10.617  11.466  0.00  0.00    +0.000 C 
BRANCH  12  14
ATOM     14  O   UNL     1      44.151  12.047   9.560  0.00  0.00    +0.000 OA
ATOM     15  H   UNL     1      43.331  12.389   9.174  0.00  0.00    +0.000 HD
ENDBRANCH  12  14
ENDBRANCH   7   9
ENDBRANCH   5   7
BRANCH   1  16
ATOM     16  S   UNL     1      44.255   3.962  12.279  0.00  0.00    +0.000 S 
BRANCH  16  17
ATOM     17  C   UNL     1      43.610   4.161  10.578  0.00  0.00    +0.000 C 
BRANCH  17  21
ATOM     18  C   UNL     1      46.392   2.488   7.796  0.00  0.00    +0.000 A 
ATOM     19  C   UNL     1      46.258   3.874   7.856  0.00  0.00    +0.000 A 
ATOM     20  C   UNL     1      45.334   4.431   8.737  0.00  0.00    +0.000 A 
ATOM     21  C   UNL     1      44.579   3.591   9.559  0.00  0.00    +0.000 A 
ATOM     22  N   UNL     1      44.671   2.237   9.479  0.00  0.00    +0.000 NA
ATOM     23  C   UNL     1      45.568   1.718   8.603  0.00  0.00    +0.000 A 
BRANCH  18  25
ATOM     24  N   UNL     1      48.413   2.574   6.462  0.00  0.00    +0.000 N 
ATOM     25  C   UNL     1      47.365   1.823   6.913  0.00  0.00    +0.000 C 
ATOM     26  O   UNL     1      47.262   0.633   6.627  0.00  0.00    +0.000 OA
ATOM     27  H   UNL     1      49.131   2.083   5.943  0.00  0.00    +0.000 HD
ATOM     28  H   UNL     1      48.670   3.455   6.889  0.00  0.00    +0.000 HD
ENDBRANCH  18  25
ENDBRANCH  17  21
ENDBRANCH  16  17
ENDBRANCH   1  16
TORSDOF 7
ENDMDL
MODEL 4
REMARK VINA RESULT:    -7.851      1.588      8.642
REMARK INTER + INTRA:         -11.361
REMARK INTER:                 -10.577
REMARK INTRA:                  -0.784
REMARK UNBOUND:                -0.526
REMARK  Name = 
REMARK  7 active torsions:
REMARK  status: ('A' for Active; 'I' for Inactive)
REMARK    1  A    between atoms: C_2  and  C_4
REMARK    2  A    between atoms: C_7  and  C_8
REMARK    3  A    between atoms: C_8  and  S_9
REMARK    4  A    between atoms: S_9  and  C_10
REMARK    5  A    between atoms: C_14  and  N_15
REMARK    6  A    between atoms: N_15  and  C_16
REMARK    7  A    between atoms: C_19  and  O_20
REMARK                            x       y       z     vdW  Elec       q    Type
REMARK                         _______ _______ _______ _____ _____    ______ ____
ROOT
ATOM      1  C   UNL     1      44.934   5.118  12.000  0.00  0.00    +0.000 A 
ATOM      2  C   UNL     1      44.119   4.354  12.842  0.00  0.00    +0.000 A 
ATOM      3  C   UNL     1      43.543   3.174  12.386  0.00  0.00    +0.000 A 
ATOM      4  C   UNL     1      43.749   2.764  11.069  0.00  0.00    +0.000 A 
ATOM      5  C   UNL     1      44.469   3.554  10.166  0.00  0.00    +0.000 A 
ATOM      6  C   UNL     1      45.103   4.708  10.668  0.00  0.00    +0.000 A 
ENDROOT
BRANCH   5   7
ATOM      7  N   UNL     1      44.685   3.183   8.829  0.00  0.00    +0.000 N 
ATOM      8  H   UNL     1      44.016   2.483   8.517  0.00  0.00    +0.000 HD
BRANCH   7   9
ATOM      9  C   UNL     1      46.050   2.940   8.352  0.00  0.00    +0.000 C 
ATOM     10  C   UNL     1      46.351   3.773   7.090  0.00  0.00    +0.000 C 
ATOM     11  C   UNL     1      46.637   2.784   5.965  0.00  0.00    +0.000 C 
ATOM     12  C   UNL     1      47.084   1.510   6.664  0.00  0.00    +0.000 C 
ATOM     13  C   UNL     1      46.270   1.473   7.946  0.00  0.00    +0.000 C 
BRANCH  12  14
ATOM     14  O   UNL     1      48.478   1.540   6.950  0.00  0.00    +0.000 OA
ATOM     15  H   UNL     1      48.775   2.461   7.006  0.00  0.00    +0.000 HD
ENDBRANCH  12  14
ENDBRANCH   7   9
ENDBRANCH   5   7
BRANCH   1  16
ATOM     16  S   UNL     1      45.804   6.478  12.766  0.00  0.00    +0.000 S 
BRANCH  16  17
ATOM     17  C   UNL     1      47.498   5.834  13.013  0.00  0.00    +0.000 C 
BRANCH  17  21
ATOM     18  C   UNL     1      48.268   4.761  17.080  0.00  0.00    +0.000 A 
ATOM     19  C   UNL     1      47.372   3.989  16.343  0.00  0.00    +0.000 A 
ATOM     20  C   UNL     1      47.090   4.345  15.026  0.00  0.00    +0.000 A 
ATOM     21  C   UNL     1      47.728   5.453  14.464  0.00  0.00    +0.000 A 
ATOM     22  N   UNL     1      48.571   6.238  15.187  0.00  0.00    +0.000 NA
ATOM     23  C   UNL     1      48.819   5.878  16.471  0.00  0.00    +0.000 A 
BRANCH  18  25
ATOM     24  N   UNL     1      48.263   3.213  18.944  0.00  0.00    +0.000 N 
ATOM     25  C   UNL     1      48.641   4.435  18.467  0.00  0.00    +0.000 C 
ATOM     26  O   UNL     1      49.299   5.213  19.153  0.00  0.00    +0.000 OA
ATOM     27  H   UNL     1      48.613   2.956  19.859  0.00  0.00    +0.000 HD
ATOM     28  H   UNL     1      47.969   2.462  18.333  0.00  0.00    +0.000 HD
ENDBRANCH  18  25
ENDBRANCH  17  21
ENDBRANCH  16  17
ENDBRANCH   1  16
TORSDOF 7
ENDMDL
MODEL 5
REMARK VINA RESULT:    -7.230      1.970      8.068
REMARK INTER + INTRA:         -10.504
REMARK INTER:                  -9.877
REMARK INTRA:                  -0.628
REMARK UNBOUND:                -0.526
REMARK  Name = 
REMARK  7 active torsions:
REMARK  status: ('A' for Active; 'I' for Inactive)
REMARK    1  A    between atoms: C_2  and  C_4
REMARK    2  A    between atoms: C_7  and  C_8
REMARK    3  A    between atoms: C_8  and  S_9
REMARK    4  A    between atoms: S_9  and  C_10
REMARK    5  A    between atoms: C_14  and  N_15
REMARK    6  A    between atoms: N_15  and  C_16
REMARK    7  A    between atoms: C_19  and  O_20
REMARK                            x       y       z     vdW  Elec       q    Type
REMARK                         _______ _______ _______ _____ _____    ______ ____
ROOT
ATOM      1  C   UNL     1      44.044   5.281  11.361  0.00  0.00    +0.000 A 
ATOM      2  C   UNL     1      43.524   4.541  12.428  0.00  0.00    +0.000 A 
ATOM      3  C   UNL     1      43.381   3.162  12.325  0.00  0.00    +0.000 A 
ATOM      4  C   UNL     1      43.723   2.513  11.139  0.00  0.00    +0.000 A 
ATOM      5  C   UNL     1      44.146   3.231  10.015  0.00  0.00    +0.000 A 
ATOM      6  C   UNL     1      44.354   4.617  10.164  0.00  0.00    +0.000 A 
ENDROOT
BRANCH   5   7
ATOM      7  N   UNL     1      44.486   2.616   8.799  0.00  0.00    +0.000 N 
ATOM      8  H   UNL     1      44.000   1.732   8.672  0.00  0.00    +0.000 HD
BRANCH   7   9
ATOM      9  C   UNL     1      45.887   2.579   8.368  0.00  0.00    +0.000 C 
ATOM     10  C   UNL     1      46.123   3.525   7.173  0.00  0.00    +0.000 C 
ATOM     11  C   UNL     1      46.574   2.655   6.004  0.00  0.00    +0.000 C 
ATOM     12  C   UNL     1      47.156   1.405   6.644  0.00  0.00    +0.000 C 
ATOM     13  C   UNL     1      46.308   1.181   7.885  0.00  0.00    +0.000 C 
BRANCH  12  14
ATOM     14  O   UNL     1      48.524   1.591   6.992  0.00  0.00    +0.000 OA
ATOM     15  H   UNL     1      49.068   1.545   6.191  0.00  0.00    +0.000 HD
ENDBRANCH  12  14
ENDBRANCH   7   9
ENDBRANCH   5   7
BRANCH   1  16
ATOM     16  S   UNL     1      44.403   7.000  11.695  0.00  0.00    +0.000 S 
BRANCH  16  17
ATOM     17  C   UNL     1      46.211   7.129  11.453  0.00  0.00    +0.000 C 
BRANCH  17  21
ATOM     18  C   UNL     1      48.200   6.262  15.138  0.00  0.00    +0.000 A 
ATOM     19  C   UNL     1      48.423   7.497  14.532  0.00  0.00    +0.000 A 
ATOM     20  C   UNL     1      47.805   7.781  13.317  0.00  0.00    +0.000 A 
ATOM     21  C   UNL     1      46.955   6.832  12.743  0.00  0.00    +0.000 A 
ATOM     22  N   UNL     1      46.762   5.609  13.303  0.00  0.00    +0.000 NA
ATOM     23  C   UNL     1      47.387   5.351  14.480  0.00  0.00    +0.000 A 
BRANCH  18  25
ATOM     24  N   UNL     1      47.943   5.781  17.498  0.00  0.00    +0.000 N 
ATOM     25  C   UNL     1      48.792   5.897  16.436  0.00  0.00    +0.000 C 
ATOM     26  O   UNL     1      49.993   5.667  16.550  0.00  0.00    +0.000 OA
ATOM     27  H   UNL     1      48.342   5.428  18.360  0.00  0.00    +0.000 HD
ATOM     28  H   UNL     1      46.941   5.697  17.383  0.00  0.00    +0.000 HD
ENDBRANCH  18  25
ENDBRANCH  17  21
ENDBRANCH  16  17
ENDBRANCH   1  16
TORSDOF 7
ENDMDL
MODEL 6
REMARK VINA RESULT:    -7.170      3.391      7.582
REMARK INTER + INTRA:         -10.421
REMARK INTER:                  -9.425
REMARK INTRA:                  -0.996
REMARK UNBOUND:                -0.526
REMARK  Name = 
REMARK  7 active torsions:
REMARK  status: ('A' for Active; 'I' for Inactive)
REMARK    1  A    between atoms: C_2  and  C_4
REMARK    2  A    between atoms: C_7  and  C_8
REMARK    3  A    between atoms: C_8  and  S_9
REMARK    4  A    between atoms: S_9  and  C_10
REMARK    5  A    between atoms: C_14  and  N_15
REMARK    6  A    between atoms: N_15  and  C_16
REMARK    7  A    between atoms: C_19  and  O_20
REMARK                            x       y       z     vdW  Elec       q    Type
REMARK                         _______ _______ _______ _____ _____    ______ ____
ROOT
ATOM      1  C   UNL     1      46.452   8.907  12.477  0.00  0.00    +0.000 A 
ATOM      2  C   UNL     1      45.997  10.168  12.077  0.00  0.00    +0.000 A 
ATOM      3  C   UNL     1      44.792  10.299  11.397  0.00  0.00    +0.000 A 
ATOM      4  C   UNL     1      44.046   9.164  11.079  0.00  0.00    +0.000 A 
ATOM      5  C   UNL     1      44.518   7.880  11.369  0.00  0.00    +0.000 A 
ATOM      6  C   UNL     1      45.705   7.774  12.121  0.00  0.00    +0.000 A 
ENDROOT
BRANCH   5   7
ATOM      7  N   UNL     1      43.804   6.713  11.051  0.00  0.00    +0.000 N 
ATOM      8  H   UNL     1      42.799   6.856  11.110  0.00  0.00    +0.000 HD
BRANCH   7   9
ATOM      9  C   UNL     1      44.243   5.422  11.590  0.00  0.00    +0.000 C 
ATOM     10  C   UNL     1      44.876   4.549  10.488  0.00  0.00    +0.000 C 
ATOM     11  C   UNL     1      44.011   3.299  10.363  0.00  0.00    +0.000 C 
ATOM     12  C   UNL     1      43.311   3.168  11.706  0.00  0.00    +0.000 C 
ATOM     13  C   UNL     1      43.071   4.600  12.153  0.00  0.00    +0.000 C 
BRANCH  12  14
ATOM     14  O   UNL     1      44.124   2.473  12.646  0.00  0.00    +0.000 OA
ATOM     15  H   UNL     1      45.057   2.604  12.422  0.00  0.00    +0.000 HD
ENDBRANCH  12  14
ENDBRANCH   7   9
ENDBRANCH   5   7
BRANCH   1  16
ATOM     16  S   UNL     1      47.886   8.889  13.545  0.00  0.00    +0.000 S 
BRANCH  16  17
ATOM     17  C   UNL     1      48.618   7.235  13.272  0.00  0.00    +0.000 C 
BRANCH  17  21
ATOM     18  C   UNL     1      47.651   4.511  16.422  0.00  0.00    +0.000 A 
ATOM     19  C   UNL     1      46.961   4.411  15.216  0.00  0.00    +0.000 A 
ATOM     20  C   UNL     1      47.245   5.311  14.192  0.00  0.00    +0.000 A 
ATOM     21  C   UNL     1      48.233   6.279  14.386  0.00  0.00    +0.000 A 
ATOM     22  N   UNL     1      48.883   6.413  15.572  0.00  0.00    +0.000 NA
ATOM     23  C   UNL     1      48.578   5.534  16.559  0.00  0.00    +0.000 A 
BRANCH  18  25
ATOM     24  N   UNL     1      48.192   3.760  18.661  0.00  0.00    +0.000 N 
ATOM     25  C   UNL     1      47.430   3.581  17.543  0.00  0.00    +0.000 C 
ATOM     26  O   UNL     1      46.568   2.708  17.489  0.00  0.00    +0.000 OA
ATOM     27  H   UNL     1      47.961   3.186  19.462  0.00  0.00    +0.000 HD
ATOM     28  H   UNL     1      48.702   4.617  18.837  0.00  0.00    +0.000 HD
ENDBRANCH  18  25
ENDBRANCH  17  21
ENDBRANCH  16  17
ENDBRANCH   1  16
TORSDOF 7
ENDMDL
MODEL 7
REMARK VINA RESULT:    -7.134      2.295      2.737
REMARK INTER + INTRA:         -10.372
REMARK INTER:                  -9.689
REMARK INTRA:                  -0.683
REMARK UNBOUND:                -0.526
REMARK  Name = 
REMARK  7 active torsions:
REMARK  status: ('A' for Active; 'I' for Inactive)
REMARK    1  A    between atoms: C_2  and  C_4
REMARK    2  A    between atoms: C_7  and  C_8
REMARK    3  A    between atoms: C_8  and  S_9
REMARK    4  A    between atoms: S_9  and  C_10
REMARK    5  A    between atoms: C_14  and  N_15
REMARK    6  A    between atoms: N_15  and  C_16
REMARK    7  A    between atoms: C_19  and  O_20
REMARK                            x       y       z     vdW  Elec       q    Type
REMARK                         _______ _______ _______ _____ _____    ______ ____
ROOT
ATOM      1  C   UNL     1      45.232   5.246  12.580  0.00  0.00    +0.000 A 
ATOM      2  C   UNL     1      44.576   6.462  12.359  0.00  0.00    +0.000 A 
ATOM      3  C   UNL     1      45.255   7.666  12.504  0.00  0.00    +0.000 A 
ATOM      4  C   UNL     1      46.590   7.667  12.906  0.00  0.00    +0.000 A 
ATOM      5  C   UNL     1      47.250   6.479  13.239  0.00  0.00    +0.000 A 
ATOM      6  C   UNL     1      46.566   5.267  13.016  0.00  0.00    +0.000 A 
ENDROOT
BRANCH   5   7
ATOM      7  N   UNL     1      48.588   6.441  13.662  0.00  0.00    +0.000 N 
ATOM      8  H   UNL     1      48.875   5.503  13.929  0.00  0.00    +0.000 HD
BRANCH   7   9
ATOM      9  C   UNL     1      49.099   7.485  14.557  0.00  0.00    +0.000 C 
ATOM     10  C   UNL     1      50.616   7.682  14.366  0.00  0.00    +0.000 C 
ATOM     11  C   UNL     1      51.278   7.337  15.697  0.00  0.00    +0.000 C 
ATOM     12  C   UNL     1      50.190   7.536  16.740  0.00  0.00    +0.000 C 
ATOM     13  C   UNL     1      48.908   7.122  16.039  0.00  0.00    +0.000 C 
BRANCH  12  14
ATOM     14  O   UNL     1      50.122   8.894  17.163  0.00  0.00    +0.000 OA
ATOM     15  H   UNL     1      50.034   8.926  18.127  0.00  0.00    +0.000 HD
ENDBRANCH  12  14
ENDBRANCH   7   9
ENDBRANCH   5   7
BRANCH   1  16
ATOM     16  S   UNL     1      44.329   3.770  12.134  0.00  0.00    +0.000 S 
BRANCH  16  17
ATOM     17  C   UNL     1      43.774   4.093  10.421  0.00  0.00    +0.000 C 
BRANCH  17  21
ATOM     18  C   UNL     1      46.596   2.756   7.500  0.00  0.00    +0.000 A 
ATOM     19  C   UNL     1      45.956   1.808   8.294  0.00  0.00    +0.000 A 
ATOM     20  C   UNL     1      45.056   2.231   9.270  0.00  0.00    +0.000 A 
ATOM     21  C   UNL     1      44.796   3.596   9.415  0.00  0.00    +0.000 A 
ATOM     22  N   UNL     1      45.446   4.533   8.674  0.00  0.00    +0.000 NA
ATOM     23  C   UNL     1      46.328   4.095   7.740  0.00  0.00    +0.000 A 
BRANCH  18  25
ATOM     24  N   UNL     1      47.343   2.960   5.204  0.00  0.00    +0.000 N 
ATOM     25  C   UNL     1      47.538   2.389   6.428  0.00  0.00    +0.000 C 
ATOM     26  O   UNL     1      48.482   1.632   6.638  0.00  0.00    +0.000 OA
ATOM     27  H   UNL     1      48.054   2.785   4.505  0.00  0.00    +0.000 HD
ATOM     28  H   UNL     1      46.758   3.776   5.075  0.00  0.00    +0.000 HD
ENDBRANCH  18  25
ENDBRANCH  17  21
ENDBRANCH  16  17
ENDBRANCH   1  16
TORSDOF 7
ENDMDL
MODEL 8
REMARK VINA RESULT:    -7.127      2.581      3.471
REMARK INTER + INTRA:         -10.362
REMARK INTER:                 -10.092
REMARK INTRA:                  -0.270
REMARK UNBOUND:                -0.526
REMARK  Name = 
REMARK  7 active torsions:
REMARK  status: ('A' for Active; 'I' for Inactive)
REMARK    1  A    between atoms: C_2  and  C_4
REMARK    2  A    between atoms: C_7  and  C_8
REMARK    3  A    between atoms: C_8  and  S_9
REMARK    4  A    between atoms: S_9  and  C_10
REMARK    5  A    between atoms: C_14  and  N_15
REMARK    6  A    between atoms: N_15  and  C_16
REMARK    7  A    between atoms: C_19  and  O_20
REMARK                            x       y       z     vdW  Elec       q    Type
REMARK                         _______ _______ _______ _____ _____    ______ ____
ROOT
ATOM      1  C   UNL     1      45.294   4.617  12.449  0.00  0.00    +0.000 A 
ATOM      2  C   UNL     1      45.824   4.054  13.615  0.00  0.00    +0.000 A 
ATOM      3  C   UNL     1      46.959   4.596  14.206  0.00  0.00    +0.000 A 
ATOM      4  C   UNL     1      47.598   5.686  13.616  0.00  0.00    +0.000 A 
ATOM      5  C   UNL     1      47.161   6.210  12.394  0.00  0.00    +0.000 A 
ATOM      6  C   UNL     1      45.968   5.693  11.851  0.00  0.00    +0.000 A 
ENDROOT
BRANCH   5   7
ATOM      7  N   UNL     1      47.785   7.297  11.761  0.00  0.00    +0.000 N 
ATOM      8  H   UNL     1      48.522   6.996  11.128  0.00  0.00    +0.000 HD
BRANCH   7   9
ATOM      9  C   UNL     1      48.137   8.489  12.540  0.00  0.00    +0.000 C 
ATOM     10  C   UNL     1      49.553   8.361  13.137  0.00  0.00    +0.000 C 
ATOM     11  C   UNL     1      49.398   8.396  14.654  0.00  0.00    +0.000 C 
ATOM     12  C   UNL     1      48.082   9.115  14.900  0.00  0.00    +0.000 C 
ATOM     13  C   UNL     1      47.196   8.696  13.738  0.00  0.00    +0.000 C 
BRANCH  12  14
ATOM     14  O   UNL     1      48.260  10.527  14.918  0.00  0.00    +0.000 OA
ATOM     15  H   UNL     1      49.114  10.748  14.516  0.00  0.00    +0.000 HD
ENDBRANCH  12  14
ENDBRANCH   7   9
ENDBRANCH   5   7
BRANCH   1  16
ATOM     16  S   UNL     1      43.708   3.986  11.919  0.00  0.00    +0.000 S 
BRANCH  16  17
ATOM     17  C   UNL     1      43.577   4.527  10.177  0.00  0.00    +0.000 C 
BRANCH  17  21
ATOM     18  C   UNL     1      46.386   2.347   7.802  0.00  0.00    +0.000 A 
ATOM     19  C   UNL     1      46.306   3.729   7.643  0.00  0.00    +0.000 A 
ATOM     20  C   UNL     1      45.375   4.447   8.388  0.00  0.00    +0.000 A 
ATOM     21  C   UNL     1      44.558   3.772   9.298  0.00  0.00    +0.000 A 
ATOM     22  N   UNL     1      44.598   2.420   9.432  0.00  0.00    +0.000 NA
ATOM     23  C   UNL     1      45.503   1.741   8.683  0.00  0.00    +0.000 A 
BRANCH  18  25
ATOM     24  N   UNL     1      48.491   2.139   6.622  0.00  0.00    +0.000 N 
ATOM     25  C   UNL     1      47.362   1.519   7.073  0.00  0.00    +0.000 C 
ATOM     26  O   UNL     1      47.187   0.314   6.912  0.00  0.00    +0.000 OA
ATOM     27  H   UNL     1      49.203   1.544   6.215  0.00  0.00    +0.000 HD
ATOM     28  H   UNL     1      48.786   3.044   6.967  0.00  0.00    +0.000 HD
ENDBRANCH  18  25
ENDBRANCH  17  21
ENDBRANCH  16  17
ENDBRANCH   1  16
TORSDOF 7
ENDMDL
MODEL 9
REMARK VINA RESULT:    -7.108      3.257      7.932
REMARK INTER + INTRA:         -10.335
REMARK INTER:                  -9.624
REMARK INTRA:                  -0.711
REMARK UNBOUND:                -0.526
REMARK  Name = 
REMARK  7 active torsions:
REMARK  status: ('A' for Active; 'I' for Inactive)
REMARK    1  A    between atoms: C_2  and  C_4
REMARK    2  A    between atoms: C_7  and  C_8
REMARK    3  A    between atoms: C_8  and  S_9
REMARK    4  A    between atoms: S_9  and  C_10
REMARK    5  A    between atoms: C_14  and  N_15
REMARK    6  A    between atoms: N_15  and  C_16
REMARK    7  A    between atoms: C_19  and  O_20
REMARK                            x       y       z     vdW  Elec       q    Type
REMARK                         _______ _______ _______ _____ _____    ______ ____
ROOT
ATOM      1  C   UNL     1      44.690   5.191  11.915  0.00  0.00    +0.000 A 
ATOM      2  C   UNL     1      43.985   4.289  12.719  0.00  0.00    +0.000 A 
ATOM      3  C   UNL     1      43.566   3.067  12.205  0.00  0.00    +0.000 A 
ATOM      4  C   UNL     1      43.818   2.750  10.870  0.00  0.00    +0.000 A 
ATOM      5  C   UNL     1      44.426   3.669  10.008  0.00  0.00    +0.000 A 
ATOM      6  C   UNL     1      44.907   4.870  10.566  0.00  0.00    +0.000 A 
ENDROOT
BRANCH   5   7
ATOM      7  N   UNL     1      44.683   3.393   8.655  0.00  0.00    +0.000 N 
ATOM      8  H   UNL     1      43.984   2.772   8.255  0.00  0.00    +0.000 HD
BRANCH   7   9
ATOM      9  C   UNL     1      46.051   3.090   8.222  0.00  0.00    +0.000 C 
ATOM     10  C   UNL     1      46.380   3.803   6.894  0.00  0.00    +0.000 C 
ATOM     11  C   UNL     1      46.666   2.712   5.866  0.00  0.00    +0.000 C 
ATOM     12  C   UNL     1      47.085   1.501   6.683  0.00  0.00    +0.000 C 
ATOM     13  C   UNL     1      46.254   1.590   7.952  0.00  0.00    +0.000 C 
BRANCH  12  14
ATOM     14  O   UNL     1      48.476   1.537   6.985  0.00  0.00    +0.000 OA
ATOM     15  H   UNL     1      48.672   0.886   7.676  0.00  0.00    +0.000 HD
ENDBRANCH  12  14
ENDBRANCH   7   9
ENDBRANCH   5   7
BRANCH   1  16
ATOM     16  S   UNL     1      45.379   6.615  12.748  0.00  0.00    +0.000 S 
BRANCH  16  17
ATOM     17  C   UNL     1      46.894   5.970  13.545  0.00  0.00    +0.000 C 
BRANCH  17  21
ATOM     18  C   UNL     1      50.325   8.257  12.411  0.00  0.00    +0.000 A 
ATOM     19  C   UNL     1      49.301   8.081  11.482  0.00  0.00    +0.000 A 
ATOM     20  C   UNL     1      48.192   7.314  11.828  0.00  0.00    +0.000 A 
ATOM     21  C   UNL     1      48.116   6.757  13.107  0.00  0.00    +0.000 A 
ATOM     22  N   UNL     1      49.126   6.887  14.007  0.00  0.00    +0.000 NA
ATOM     23  C   UNL     1      50.203   7.627  13.641  0.00  0.00    +0.000 A 
BRANCH  18  25
ATOM     24  N   UNL     1      51.973   9.096  10.847  0.00  0.00    +0.000 N 
ATOM     25  C   UNL     1      51.516   9.076  12.133  0.00  0.00    +0.000 C 
ATOM     26  O   UNL     1      52.053   9.745  13.013  0.00  0.00    +0.000 OA
ATOM     27  H   UNL     1      52.726   9.743  10.645  0.00  0.00    +0.000 HD
ATOM     28  H   UNL     1      51.408   8.785  10.068  0.00  0.00    +0.000 HD
ENDBRANCH  18  25
ENDBRANCH  17  21
ENDBRANCH  16  17
ENDBRANCH   1  16
TORSDOF 7
ENDMDL
