MODEL 1
REMARK VINA RESULT:    -7.618      0.000      0.000
REMARK INTER + INTRA:         -11.828
REMARK INTER:                 -11.404
REMARK INTRA:                  -0.424
REMARK UNBOUND:                -0.424
REMARK  Name = 
REMARK  9 active torsions:
REMARK  status: ('A' for Active; 'I' for Inactive)
REMARK    1  A    between atoms: C_2  and  O_3
REMARK    2  A    between atoms: C_2  and  C_4
REMARK    3  A    between atoms: C_4  and  C_5
REMARK    4  A    between atoms: C_5  and  C_6
REMARK    5  A    between atoms: C_6  and  C_7
REMARK    6  A    between atoms: C_12  and  N_13
REMARK    7  A    between atoms: N_13  and  C_14
REMARK    8  A    between atoms: C_14  and  C_15
REMARK    9  A    between atoms: C_19  and  C_20
REMARK                            x       y       z     vdW  Elec       q    Type
REMARK                         _______ _______ _______ _____ _____    ______ ____
ROOT
ATOM      1  N   UNL     1      45.261   6.561  11.034  0.00  0.00    +0.000 N 
ATOM      2  H   UNL     1      44.623   7.080  10.437  0.00  0.00    +0.000 HD
ENDROOT
BRANCH   1   8
ATOM      3  C   UNL     1      44.817   4.342   9.934  0.00  0.00    +0.000 A 
ATOM      4  C   UNL     1      44.107   3.132  10.112  0.00  0.00    +0.000 A 
ATOM      5  C   UNL     1      43.521   2.815  11.324  0.00  0.00    +0.000 A 
ATOM      6  C   UNL     1      43.658   3.725  12.342  0.00  0.00    +0.000 A 
ATOM      7  N   UNL     1      44.277   4.914  12.194  0.00  0.00    +0.000 NA
ATOM      8  C   UNL     1      44.825   5.248  10.995  0.00  0.00    +0.000 A 
BRANCH   3   9
ATOM      9  C   UNL     1      45.539   4.494   8.624  0.00  0.00    +0.000 C 
BRANCH   9  10
ATOM     10  C   UNL     1      45.872   3.150   7.952  0.00  0.00    +0.000 C 
BRANCH  10  11
ATOM     11  C   UNL     1      47.039   3.105   6.965  0.00  0.00    +0.000 C 
BRANCH  11  13
ATOM     12  O   UNL     1      47.301   0.722   7.348  0.00  0.00    +0.000 OA
ATOM     13  C   UNL     1      47.616   1.730   6.743  0.00  0.00    +0.000 C 
BRANCH  13  14
ATOM     14  O   UNL     1      48.547   1.723   5.759  0.00  0.00    +0.000 OA
ATOM     15  H   UNL     1      48.262   1.255   4.951  0.00  0.00    +0.000 HD
ENDBRANCH  13  14
ENDBRANCH  11  13
ENDBRANCH  10  11
ENDBRANCH   9  10
ENDBRANCH   3   9
ENDBRANCH   1   8
BRANCH   1  16
ATOM     16  C   UNL     1      46.132   7.340  11.908  0.00  0.00    +0.000 C 
ATOM     17  C   UNL     1      47.609   6.947  11.790  0.00  0.00    +0.000 C 
ATOM     18  C   UNL     1      46.892   6.747  13.077  0.00  0.00    +0.000 C 
BRANCH  16  19
ATOM     19  C   UNL     1      45.842   8.840  11.869  0.00  0.00    +0.000 A 
ATOM     20  C   UNL     1      46.868   9.776  12.083  0.00  0.00    +0.000 A 
ATOM     21  C   UNL     1      46.652  11.144  11.919  0.00  0.00    +0.000 A 
ATOM     22  C   UNL     1      45.405  11.604  11.509  0.00  0.00    +0.000 A 
ATOM     23  C   UNL     1      44.351  10.709  11.290  0.00  0.00    +0.000 A 
ATOM     24  C   UNL     1      44.572   9.344  11.535  0.00  0.00    +0.000 A 
BRANCH  23  25
ATOM     25  C   UNL     1      43.039  11.163  10.671  0.00  0.00    +0.000 C 
ATOM     26  C   UNL     1      42.577  12.484  11.310  0.00  0.00    +0.000 C 
ATOM     27  C   UNL     1      41.198  12.890  10.816  0.00  0.00    +0.000 C 
ATOM     28  O   UNL     1      40.264  11.836  11.026  0.00  0.00    +0.000 OA
ATOM     29  C   UNL     1      40.605  10.664  10.288  0.00  0.00    +0.000 C 
ATOM     30  C   UNL     1      41.940  10.098  10.756  0.00  0.00    +0.000 C 
ENDBRANCH  23  25
ENDBRANCH  16  19
ENDBRANCH   1  16
TORSDOF 9
ENDMDL
MODEL 2
REMARK VINA RESULT:    -7.517      1.506      2.107
REMARK INTER + INTRA:         -11.676
REMARK INTER:                 -10.636
REMARK INTRA:                  -1.040
REMARK UNBOUND:                -0.424
REMARK  Name = 
REMARK  9 active torsions:
REMARK  status: ('A' for Active; 'I' for Inactive)
REMARK    1  A    between atoms: C_2  and  O_3
REMARK    2  A    between atoms: C_2  and  C_4
REMARK    3  A    between atoms: C_4  and  C_5
REMARK    4  A    between atoms: C_5  and  C_6
REMARK    5  A    between atoms: C_6  and  C_7
REMARK    6  A    between atoms: C_12  and  N_13
REMARK    7  A    between atoms: N_13  and  C_14
REMARK    8  A    between atoms: C_14  and  C_15
REMARK    9  A    between atoms: C_19  and  C_20
REMARK                            x       y       z     vdW  Elec       q    Type
REMARK                         _______ _______ _______ _____ _____    ______ ____
ROOT
ATOM      1  N   UNL     1      46.952   6.155  12.029  0.00  0.00    +0.000 N 
ATOM      2  H   UNL     1      47.490   5.823  11.234  0.00  0.00    +0.000 HD
ENDROOT
BRANCH   1   8
ATOM      3  C   UNL     1      45.010   5.371  10.635  0.00  0.00    +0.000 A 
ATOM      4  C   UNL     1      43.617   5.140  10.694  0.00  0.00    +0.000 A 
ATOM      5  C   UNL     1      42.938   5.145  11.900  0.00  0.00    +0.000 A 
ATOM      6  C   UNL     1      43.677   5.384  13.032  0.00  0.00    +0.000 A 
ATOM      7  N   UNL     1      44.996   5.665  13.009  0.00  0.00    +0.000 NA
ATOM      8  C   UNL     1      45.662   5.697  11.824  0.00  0.00    +0.000 A 
BRANCH   3   9
ATOM      9  C   UNL     1      45.651   5.181   9.287  0.00  0.00    +0.000 C 
BRANCH   9  10
ATOM     10  C   UNL     1      44.998   4.065   8.454  0.00  0.00    +0.000 C 
BRANCH  10  11
ATOM     11  C   UNL     1      45.902   2.992   7.848  0.00  0.00    +0.000 C 
BRANCH  11  13
ATOM     12  O   UNL     1      46.374   0.629   8.151  0.00  0.00    +0.000 OA
ATOM     13  C   UNL     1      45.724   1.616   8.441  0.00  0.00    +0.000 C 
BRANCH  13  14
ATOM     14  O   UNL     1      44.739   1.588   9.370  0.00  0.00    +0.000 OA
ATOM     15  H   UNL     1      44.881   0.927  10.074  0.00  0.00    +0.000 HD
ENDBRANCH  13  14
ENDBRANCH  11  13
ENDBRANCH  10  11
ENDBRANCH   9  10
ENDBRANCH   3   9
ENDBRANCH   1   8
BRANCH   1  16
ATOM     16  C   UNL     1      47.570   7.180  12.866  0.00  0.00    +0.000 C 
ATOM     17  C   UNL     1      49.054   6.913  13.145  0.00  0.00    +0.000 C 
ATOM     18  C   UNL     1      48.081   6.919  14.269  0.00  0.00    +0.000 C 
BRANCH  16  19
ATOM     19  C   UNL     1      47.224   8.603  12.433  0.00  0.00    +0.000 A 
ATOM     20  C   UNL     1      48.211   9.455  11.909  0.00  0.00    +0.000 A 
ATOM     21  C   UNL     1      47.890  10.706  11.385  0.00  0.00    +0.000 A 
ATOM     22  C   UNL     1      46.562  11.123  11.350  0.00  0.00    +0.000 A 
ATOM     23  C   UNL     1      45.546  10.311  11.866  0.00  0.00    +0.000 A 
ATOM     24  C   UNL     1      45.904   9.088  12.457  0.00  0.00    +0.000 A 
BRANCH  23  25
ATOM     25  C   UNL     1      44.079  10.659  11.678  0.00  0.00    +0.000 C 
ATOM     26  C   UNL     1      43.384   9.596  10.809  0.00  0.00    +0.000 C 
ATOM     27  C   UNL     1      41.953   9.990  10.484  0.00  0.00    +0.000 C 
ATOM     28  O   UNL     1      41.916  11.281   9.885  0.00  0.00    +0.000 OA
ATOM     29  C   UNL     1      42.401  12.293  10.765  0.00  0.00    +0.000 C 
ATOM     30  C   UNL     1      43.869  12.063  11.100  0.00  0.00    +0.000 C 
ENDBRANCH  23  25
ENDBRANCH  16  19
ENDBRANCH   1  16
TORSDOF 9
ENDMDL
MODEL 3
REMARK VINA RESULT:    -7.492      4.539      7.616
REMARK INTER + INTRA:         -11.640
REMARK INTER:                  -9.981
REMARK INTRA:                  -1.659
REMARK UNBOUND:                -0.424
REMARK  Name = 
REMARK  9 active torsions:
REMARK  status: ('A' for Active; 'I' for Inactive)
REMARK    1  A    between atoms: C_2  and  O_3
REMARK    2  A    between atoms: C_2  and  C_4
REMARK    3  A    between atoms: C_4  and  C_5
REMARK    4  A    between atoms: C_5  and  C_6
REMARK    5  A    between atoms: C_6  and  C_7
REMARK    6  A    between atoms: C_12  and  N_13
REMARK    7  A    between atoms: N_13  and  C_14
REMARK    8  A    between atoms: C_14  and  C_15
REMARK    9  A    between atoms: C_19  and  C_20
REMARK                            x       y       z     vdW  Elec       q    Type
REMARK                         _______ _______ _______ _____ _____    ______ ____
ROOT
ATOM      1  N   UNL     1      49.991   7.262  13.938  0.00  0.00    +0.000 N 
ATOM      2  H   UNL     1      50.528   6.420  13.758  0.00  0.00    +0.000 HD
ENDROOT
BRANCH   1   8
ATOM      3  C   UNL     1      49.057   6.613  16.182  0.00  0.00    +0.000 A 
ATOM      4  C   UNL     1      48.970   7.052  17.523  0.00  0.00    +0.000 A 
ATOM      5  C   UNL     1      49.735   8.109  17.984  0.00  0.00    +0.000 A 
ATOM      6  C   UNL     1      50.578   8.709  17.083  0.00  0.00    +0.000 A 
ATOM      7  N   UNL     1      50.646   8.356  15.783  0.00  0.00    +0.000 NA
ATOM      8  C   UNL     1      49.870   7.342  15.315  0.00  0.00    +0.000 A 
BRANCH   3   9
ATOM      9  C   UNL     1      48.295   5.359  15.851  0.00  0.00    +0.000 C 
BRANCH   9  10
ATOM     10  C   UNL     1      47.696   4.665  17.087  0.00  0.00    +0.000 C 
BRANCH  10  11
ATOM     11  C   UNL     1      47.616   3.139  17.092  0.00  0.00    +0.000 C 
BRANCH  11  13
ATOM     12  O   UNL     1      49.304   1.799  15.972  0.00  0.00    +0.000 OA
ATOM     13  C   UNL     1      48.946   2.443  16.941  0.00  0.00    +0.000 C 
BRANCH  13  14
ATOM     14  O   UNL     1      49.737   2.621  18.026  0.00  0.00    +0.000 OA
ATOM     15  H   UNL     1      49.391   3.275  18.662  0.00  0.00    +0.000 HD
ENDBRANCH  13  14
ENDBRANCH  11  13
ENDBRANCH  10  11
ENDBRANCH   9  10
ENDBRANCH   3   9
ENDBRANCH   1   8
BRANCH   1  16
ATOM     16  C   UNL     1      49.307   7.868  12.800  0.00  0.00    +0.000 C 
ATOM     17  C   UNL     1      50.017   7.610  11.465  0.00  0.00    +0.000 C 
ATOM     18  C   UNL     1      49.890   8.999  11.978  0.00  0.00    +0.000 C 
BRANCH  16  19
ATOM     19  C   UNL     1      47.798   7.627  12.803  0.00  0.00    +0.000 A 
ATOM     20  C   UNL     1      46.898   8.704  12.868  0.00  0.00    +0.000 A 
ATOM     21  C   UNL     1      45.523   8.515  12.737  0.00  0.00    +0.000 A 
ATOM     22  C   UNL     1      45.019   7.238  12.510  0.00  0.00    +0.000 A 
ATOM     23  C   UNL     1      45.877   6.134  12.443  0.00  0.00    +0.000 A 
ATOM     24  C   UNL     1      47.250   6.341  12.654  0.00  0.00    +0.000 A 
BRANCH  23  25
ATOM     25  C   UNL     1      45.376   4.763  12.019  0.00  0.00    +0.000 C 
ATOM     26  C   UNL     1      45.014   4.766  10.523  0.00  0.00    +0.000 C 
ATOM     27  C   UNL     1      44.374   3.454  10.101  0.00  0.00    +0.000 C 
ATOM     28  O   UNL     1      43.251   3.159  10.924  0.00  0.00    +0.000 OA
ATOM     29  C   UNL     1      43.621   2.983  12.291  0.00  0.00    +0.000 C 
ATOM     30  C   UNL     1      44.198   4.270  12.867  0.00  0.00    +0.000 C 
ENDBRANCH  23  25
ENDBRANCH  16  19
ENDBRANCH   1  16
TORSDOF 9
ENDMDL
MODEL 4
REMARK VINA RESULT:    -7.448      3.186      8.095
REMARK INTER + INTRA:         -11.574
REMARK INTER:                  -9.469
REMARK INTRA:                  -2.105
REMARK UNBOUND:                -0.424
REMARK  Name = 
REMARK  9 active torsions:
REMARK  status: ('A' for Active; 'I' for Inactive)
REMARK    1  A    between atoms: C_2  and  O_3
REMARK    2  A    between atoms: C_2  and  C_4
REMARK    3  A    between atoms: C_4  and  C_5
REMARK    4  A    between atoms: C_5  and  C_6
REMARK    5  A    between atoms: C_6  and  C_7
REMARK    6  A    between atoms: C_12  and  N_13
REMARK    7  A    between atoms: N_13  and  C_14
REMARK    8  A    between atoms: C_14  and  C_15
REMARK    9  A    between atoms: C_19  and  C_20
REMARK                            x       y       z     vdW  Elec       q    Type
REMARK                         _______ _______ _______ _____ _____    ______ ____
ROOT
ATOM      1  N   UNL     1      46.179   8.064  13.255  0.00  0.00    +0.000 N 
ATOM      2  H   UNL     1      45.645   8.247  14.099  0.00  0.00    +0.000 HD
ENDROOT
BRANCH   1   8
ATOM      3  C   UNL     1      47.101  10.067  12.045  0.00  0.00    +0.000 A 
ATOM      4  C   UNL     1      46.714  11.302  11.477  0.00  0.00    +0.000 A 
ATOM      5  C   UNL     1      45.380  11.621  11.291  0.00  0.00    +0.000 A 
ATOM      6  C   UNL     1      44.455  10.686  11.682  0.00  0.00    +0.000 A 
ATOM      7  N   UNL     1      44.783   9.522  12.279  0.00  0.00    +0.000 NA
ATOM      8  C   UNL     1      46.091   9.219  12.498  0.00  0.00    +0.000 A 
BRANCH   3   9
ATOM      9  C   UNL     1      48.578   9.779  12.046  0.00  0.00    +0.000 C 
BRANCH   9  10
ATOM     10  C   UNL     1      49.281  10.207  13.345  0.00  0.00    +0.000 C 
BRANCH  10  11
ATOM     11  C   UNL     1      49.434   9.171  14.459  0.00  0.00    +0.000 C 
BRANCH  11  13
ATOM     12  O   UNL     1      49.251  10.097  16.697  0.00  0.00    +0.000 OA
ATOM     13  C   UNL     1      48.738   9.533  15.748  0.00  0.00    +0.000 C 
BRANCH  13  14
ATOM     14  O   UNL     1      47.434   9.166  15.741  0.00  0.00    +0.000 OA
ATOM     15  H   UNL     1      47.294   8.218  15.556  0.00  0.00    +0.000 HD
ENDBRANCH  13  14
ENDBRANCH  11  13
ENDBRANCH  10  11
ENDBRANCH   9  10
ENDBRANCH   3   9
ENDBRANCH   1   8
BRANCH   1  16
ATOM     16  C   UNL     1      46.546   6.675  12.992  0.00  0.00    +0.000 C 
ATOM     17  C   UNL     1      47.306   6.024  14.153  0.00  0.00    +0.000 C 
ATOM     18  C   UNL     1      47.977   6.202  12.839  0.00  0.00    +0.000 C 
BRANCH  16  19
ATOM     19  C   UNL     1      45.403   5.850  12.405  0.00  0.00    +0.000 A 
ATOM     20  C   UNL     1      44.089   6.001  12.879  0.00  0.00    +0.000 A 
ATOM     21  C   UNL     1      43.014   5.358  12.267  0.00  0.00    +0.000 A 
ATOM     22  C   UNL     1      43.230   4.565  11.144  0.00  0.00    +0.000 A 
ATOM     23  C   UNL     1      44.522   4.380  10.639  0.00  0.00    +0.000 A 
ATOM     24  C   UNL     1      45.597   4.977  11.318  0.00  0.00    +0.000 A 
BRANCH  23  25
ATOM     25  C   UNL     1      44.764   3.672   9.316  0.00  0.00    +0.000 C 
ATOM     26  C   UNL     1      45.212   2.220   9.561  0.00  0.00    +0.000 C 
ATOM     27  C   UNL     1      45.600   1.529   8.265  0.00  0.00    +0.000 C 
ATOM     28  O   UNL     1      46.588   2.286   7.574  0.00  0.00    +0.000 OA
ATOM     29  C   UNL     1      46.106   3.574   7.192  0.00  0.00    +0.000 C 
ATOM     30  C   UNL     1      45.764   4.410   8.419  0.00  0.00    +0.000 C 
ENDBRANCH  23  25
ENDBRANCH  16  19
ENDBRANCH   1  16
TORSDOF 9
ENDMDL
MODEL 5
REMARK VINA RESULT:    -7.445      3.132      5.681
REMARK INTER + INTRA:         -11.570
REMARK INTER:                 -10.207
REMARK INTRA:                  -1.363
REMARK UNBOUND:                -0.424
REMARK  Name = 
REMARK  9 active torsions:
REMARK  status: ('A' for Active; 'I' for Inactive)
REMARK    1  A    between atoms: C_2  and  O_3
REMARK    2  A    between atoms: C_2  and  C_4
REMARK    3  A    between atoms: C_4  and  C_5
REMARK    4  A    between atoms: C_5  and  C_6
REMARK    5  A    between atoms: C_6  and  C_7
REMARK    6  A    between atoms: C_12  and  N_13
REMARK    7  A    between atoms: N_13  and  C_14
REMARK    8  A    between atoms: C_14  and  C_15
REMARK    9  A    between atoms: C_19  and  C_20
REMARK                            x       y       z     vdW  Elec       q    Type
REMARK                         _______ _______ _______ _____ _____    ______ ____
ROOT
ATOM      1  N   UNL     1      44.337   7.205  11.331  0.00  0.00    +0.000 N 
ATOM      2  H   UNL     1      43.379   7.510  11.185  0.00  0.00    +0.000 HD
ENDROOT
BRANCH   1   8
ATOM      3  C   UNL     1      44.712   4.845  10.544  0.00  0.00    +0.000 A 
ATOM      4  C   UNL     1      44.327   3.509  10.803  0.00  0.00    +0.000 A 
ATOM      5  C   UNL     1      43.626   3.172  11.948  0.00  0.00    +0.000 A 
ATOM      6  C   UNL     1      43.323   4.190  12.816  0.00  0.00    +0.000 A 
ATOM      7  N   UNL     1      43.622   5.483  12.576  0.00  0.00    +0.000 NA
ATOM      8  C   UNL     1      44.279   5.826  11.436  0.00  0.00    +0.000 A 
BRANCH   3   9
ATOM      9  C   UNL     1      45.603   5.052   9.351  0.00  0.00    +0.000 C 
BRANCH   9  10
ATOM     10  C   UNL     1      45.548   3.894   8.340  0.00  0.00    +0.000 C 
BRANCH  10  11
ATOM     11  C   UNL     1      46.622   3.830   7.253  0.00  0.00    +0.000 C 
BRANCH  11  13
ATOM     12  O   UNL     1      46.956   1.456   7.638  0.00  0.00    +0.000 OA
ATOM     13  C   UNL     1      47.344   2.509   7.165  0.00  0.00    +0.000 C 
BRANCH  13  14
ATOM     14  O   UNL     1      48.504   2.609   6.474  0.00  0.00    +0.000 OA
ATOM     15  H   UNL     1      48.499   2.125   5.626  0.00  0.00    +0.000 HD
ENDBRANCH  13  14
ENDBRANCH  11  13
ENDBRANCH  10  11
ENDBRANCH   9  10
ENDBRANCH   3   9
ENDBRANCH   1   8
BRANCH   1  16
ATOM     16  C   UNL     1      45.314   8.232  11.679  0.00  0.00    +0.000 C 
ATOM     17  C   UNL     1      44.722   9.359  12.534  0.00  0.00    +0.000 C 
ATOM     18  C   UNL     1      45.244   9.660  11.175  0.00  0.00    +0.000 C 
BRANCH  16  19
ATOM     19  C   UNL     1      46.644   7.661  12.168  0.00  0.00    +0.000 A 
ATOM     20  C   UNL     1      47.832   7.892  11.454  0.00  0.00    +0.000 A 
ATOM     21  C   UNL     1      49.071   7.495  11.954  0.00  0.00    +0.000 A 
ATOM     22  C   UNL     1      49.151   6.877  13.198  0.00  0.00    +0.000 A 
ATOM     23  C   UNL     1      47.994   6.621  13.942  0.00  0.00    +0.000 A 
ATOM     24  C   UNL     1      46.751   6.962  13.384  0.00  0.00    +0.000 A 
BRANCH  23  25
ATOM     25  C   UNL     1      48.066   6.116  15.374  0.00  0.00    +0.000 C 
ATOM     26  C   UNL     1      49.488   6.298  15.934  0.00  0.00    +0.000 C 
ATOM     27  C   UNL     1      49.630   5.672  17.311  0.00  0.00    +0.000 C 
ATOM     28  O   UNL     1      49.237   4.304  17.279  0.00  0.00    +0.000 OA
ATOM     29  C   UNL     1      47.863   4.150  16.928  0.00  0.00    +0.000 C 
ATOM     30  C   UNL     1      47.603   4.661  15.517  0.00  0.00    +0.000 C 
ENDBRANCH  23  25
ENDBRANCH  16  19
ENDBRANCH   1  16
TORSDOF 9
ENDMDL
MODEL 6
REMARK VINA RESULT:    -7.089      4.850      7.353
REMARK INTER + INTRA:         -11.035
REMARK INTER:                  -8.809
REMARK INTRA:                  -2.226
REMARK UNBOUND:                -0.424
REMARK  Name = 
REMARK  9 active torsions:
REMARK  status: ('A' for Active; 'I' for Inactive)
REMARK    1  A    between atoms: C_2  and  O_3
REMARK    2  A    between atoms: C_2  and  C_4
REMARK    3  A    between atoms: C_4  and  C_5
REMARK    4  A    between atoms: C_5  and  C_6
REMARK    5  A    between atoms: C_6  and  C_7
REMARK    6  A    between atoms: C_12  and  N_13
REMARK    7  A    between atoms: N_13  and  C_14
REMARK    8  A    between atoms: C_14  and  C_15
REMARK    9  A    between atoms: C_19  and  C_20
REMARK                            x       y       z     vdW  Elec       q    Type
REMARK                         _______ _______ _______ _____ _____    ______ ____
ROOT
ATOM      1  N   UNL     1      44.917   6.828  13.080  0.00  0.00    +0.000 N 
ATOM      2  H   UNL     1      44.679   6.911  14.065  0.00  0.00    +0.000 HD
ENDROOT
BRANCH   1   8
ATOM      3  C   UNL     1      45.454   4.386  12.801  0.00  0.00    +0.000 A 
ATOM      4  C   UNL     1      44.988   3.206  12.178  0.00  0.00    +0.000 A 
ATOM      5  C   UNL     1      43.729   3.145  11.606  0.00  0.00    +0.000 A 
ATOM      6  C   UNL     1      42.958   4.278  11.671  0.00  0.00    +0.000 A 
ATOM      7  N   UNL     1      43.389   5.438  12.206  0.00  0.00    +0.000 NA
ATOM      8  C   UNL     1      44.639   5.516  12.738  0.00  0.00    +0.000 A 
BRANCH   3   9
ATOM      9  C   UNL     1      46.770   4.273  13.521  0.00  0.00    +0.000 C 
BRANCH   9  10
ATOM     10  C   UNL     1      46.619   3.977  15.023  0.00  0.00    +0.000 C 
BRANCH  10  11
ATOM     11  C   UNL     1      47.648   4.574  15.984  0.00  0.00    +0.000 C 
BRANCH  11  13
ATOM     12  O   UNL     1      48.112   4.579  18.368  0.00  0.00    +0.000 OA
ATOM     13  C   UNL     1      47.490   4.137  17.419  0.00  0.00    +0.000 C 
BRANCH  13  14
ATOM     14  O   UNL     1      46.546   3.176  17.556  0.00  0.00    +0.000 OA
ATOM     15  H   UNL     1      45.824   3.239  16.902  0.00  0.00    +0.000 HD
ENDBRANCH  13  14
ENDBRANCH  11  13
ENDBRANCH  10  11
ENDBRANCH   9  10
ENDBRANCH   3   9
ENDBRANCH   1   8
BRANCH   1  16
ATOM     16  C   UNL     1      45.704   7.909  12.495  0.00  0.00    +0.000 C 
ATOM     17  C   UNL     1      45.137   9.300  12.804  0.00  0.00    +0.000 C 
ATOM     18  C   UNL     1      45.190   8.820  11.398  0.00  0.00    +0.000 C 
BRANCH  16  19
ATOM     19  C   UNL     1      47.207   7.746  12.709  0.00  0.00    +0.000 A 
ATOM     20  C   UNL     1      48.087   7.686  11.614  0.00  0.00    +0.000 A 
ATOM     21  C   UNL     1      49.470   7.673  11.790  0.00  0.00    +0.000 A 
ATOM     22  C   UNL     1      50.006   7.746  13.073  0.00  0.00    +0.000 A 
ATOM     23  C   UNL     1      49.168   7.802  14.193  0.00  0.00    +0.000 A 
ATOM     24  C   UNL     1      47.780   7.737  13.993  0.00  0.00    +0.000 A 
BRANCH  23  25
ATOM     25  C   UNL     1      49.721   8.065  15.584  0.00  0.00    +0.000 C 
ATOM     26  C   UNL     1      50.886   7.106  15.886  0.00  0.00    +0.000 C 
ATOM     27  C   UNL     1      51.366   7.245  17.321  0.00  0.00    +0.000 C 
ATOM     28  O   UNL     1      50.282   7.074  18.227  0.00  0.00    +0.000 OA
ATOM     29  C   UNL     1      49.280   8.076  18.060  0.00  0.00    +0.000 C 
ATOM     30  C   UNL     1      48.648   7.985  16.676  0.00  0.00    +0.000 C 
ENDBRANCH  23  25
ENDBRANCH  16  19
ENDBRANCH   1  16
TORSDOF 9
ENDMDL
MODEL 7
REMARK VINA RESULT:    -6.922      2.965      4.423
REMARK INTER + INTRA:         -10.786
REMARK INTER:                 -10.495
REMARK INTRA:                  -0.291
REMARK UNBOUND:                -0.424
REMARK  Name = 
REMARK  9 active torsions:
REMARK  status: ('A' for Active; 'I' for Inactive)
REMARK    1  A    between atoms: C_2  and  O_3
REMARK    2  A    between atoms: C_2  and  C_4
REMARK    3  A    between atoms: C_4  and  C_5
REMARK    4  A    between atoms: C_5  and  C_6
REMARK    5  A    between atoms: C_6  and  C_7
REMARK    6  A    between atoms: C_12  and  N_13
REMARK    7  A    between atoms: N_13  and  C_14
REMARK    8  A    between atoms: C_14  and  C_15
REMARK    9  A    between atoms: C_19  and  C_20
REMARK                            x       y       z     vdW  Elec       q    Type
REMARK                         _______ _______ _______ _____ _____    ______ ____
ROOT
ATOM      1  N   UNL     1      46.156   5.825  11.208  0.00  0.00    +0.000 N 
ATOM      2  H   UNL     1      46.861   5.654  10.496  0.00  0.00    +0.000 HD
ENDROOT
BRANCH   1   8
ATOM      3  C   UNL     1      44.799   4.016  10.106  0.00  0.00    +0.000 A 
ATOM      4  C   UNL     1      43.802   3.050  10.375  0.00  0.00    +0.000 A 
ATOM      5  C   UNL     1      43.431   2.741  11.672  0.00  0.00    +0.000 A 
ATOM      6  C   UNL     1      44.074   3.413  12.681  0.00  0.00    +0.000 A 
ATOM      7  N   UNL     1      44.988   4.380  12.463  0.00  0.00    +0.000 NA
ATOM      8  C   UNL     1      45.330   4.715  11.190  0.00  0.00    +0.000 A 
BRANCH   3   9
ATOM      9  C   UNL     1      45.219   4.143   8.668  0.00  0.00    +0.000 C 
BRANCH   9  10
ATOM     10  C   UNL     1      45.795   2.842   8.084  0.00  0.00    +0.000 C 
BRANCH  10  11
ATOM     11  C   UNL     1      46.953   2.945   7.090  0.00  0.00    +0.000 C 
BRANCH  11  13
ATOM     12  O   UNL     1      47.081   0.523   6.961  0.00  0.00    +0.000 OA
ATOM     13  C   UNL     1      47.495   1.617   6.623  0.00  0.00    +0.000 C 
BRANCH  13  14
ATOM     14  O   UNL     1      48.518   1.767   5.749  0.00  0.00    +0.000 OA
ATOM     15  H   UNL     1      48.353   1.361   4.876  0.00  0.00    +0.000 HD
ENDBRANCH  13  14
ENDBRANCH  11  13
ENDBRANCH  10  11
ENDBRANCH   9  10
ENDBRANCH   3   9
ENDBRANCH   1   8
BRANCH   1  16
ATOM     16  C   UNL     1      46.056   7.185  11.729  0.00  0.00    +0.000 C 
ATOM     17  C   UNL     1      44.924   7.356  12.748  0.00  0.00    +0.000 C 
ATOM     18  C   UNL     1      44.878   8.100  11.462  0.00  0.00    +0.000 C 
BRANCH  16  19
ATOM     19  C   UNL     1      47.405   7.778  12.133  0.00  0.00    +0.000 A 
ATOM     20  C   UNL     1      48.370   6.991  12.784  0.00  0.00    +0.000 A 
ATOM     21  C   UNL     1      49.653   7.474  13.039  0.00  0.00    +0.000 A 
ATOM     22  C   UNL     1      50.007   8.753  12.622  0.00  0.00    +0.000 A 
ATOM     23  C   UNL     1      49.077   9.575  11.975  0.00  0.00    +0.000 A 
ATOM     24  C   UNL     1      47.769   9.094  11.798  0.00  0.00    +0.000 A 
BRANCH  23  25
ATOM     25  C   UNL     1      49.486  10.900  11.352  0.00  0.00    +0.000 C 
ATOM     26  C   UNL     1      48.339  11.464  10.495  0.00  0.00    +0.000 C 
ATOM     27  C   UNL     1      48.767  12.714   9.744  0.00  0.00    +0.000 C 
ATOM     28  O   UNL     1      49.935  12.456   8.973  0.00  0.00    +0.000 OA
ATOM     29  C   UNL     1      51.049  12.101   9.791  0.00  0.00    +0.000 C 
ATOM     30  C   UNL     1      50.781  10.800  10.538  0.00  0.00    +0.000 C 
ENDBRANCH  23  25
ENDBRANCH  16  19
ENDBRANCH   1  16
TORSDOF 9
ENDMDL
MODEL 8
REMARK VINA RESULT:    -6.881      6.090     10.243
REMARK INTER + INTRA:         -10.724
REMARK INTER:                  -9.617
REMARK INTRA:                  -1.108
REMARK UNBOUND:                -0.424
REMARK  Name = 
REMARK  9 active torsions:
REMARK  status: ('A' for Active; 'I' for Inactive)
REMARK    1  A    between atoms: C_2  and  O_3
REMARK    2  A    between atoms: C_2  and  C_4
REMARK    3  A    between atoms: C_4  and  C_5
REMARK    4  A    between atoms: C_5  and  C_6
REMARK    5  A    between atoms: C_6  and  C_7
REMARK    6  A    between atoms: C_12  and  N_13
REMARK    7  A    between atoms: N_13  and  C_14
REMARK    8  A    between atoms: C_14  and  C_15
REMARK    9  A    between atoms: C_19  and  C_20
REMARK                            x       y       z     vdW  Elec       q    Type
REMARK                         _______ _______ _______ _____ _____    ______ ____
ROOT
ATOM      1  N   UNL     1      48.065   7.008  15.491  0.00  0.00    +0.000 N 
ATOM      2  H   UNL     1      47.096   6.702  15.517  0.00  0.00    +0.000 HD
ENDROOT
BRANCH   1   8
ATOM      3  C   UNL     1      47.513   7.161  13.041  0.00  0.00    +0.000 A 
ATOM      4  C   UNL     1      48.112   7.330  11.772  0.00  0.00    +0.000 A 
ATOM      5  C   UNL     1      49.436   7.712  11.647  0.00  0.00    +0.000 A 
ATOM      6  C   UNL     1      50.138   7.919  12.808  0.00  0.00    +0.000 A 
ATOM      7  N   UNL     1      49.618   7.713  14.035  0.00  0.00    +0.000 NA
ATOM      8  C   UNL     1      48.328   7.302  14.164  0.00  0.00    +0.000 A 
BRANCH   3   9
ATOM      9  C   UNL     1      46.032   6.901  13.038  0.00  0.00    +0.000 C 
BRANCH   9  10
ATOM     10  C   UNL     1      45.671   5.432  13.319  0.00  0.00    +0.000 C 
BRANCH  10  11
ATOM     11  C   UNL     1      44.733   4.719  12.344  0.00  0.00    +0.000 C 
BRANCH  11  13
ATOM     12  O   UNL     1      42.783   5.606  11.201  0.00  0.00    +0.000 OA
ATOM     13  C   UNL     1      43.359   5.332  12.238  0.00  0.00    +0.000 C 
BRANCH  13  14
ATOM     14  O   UNL     1      42.803   5.545  13.454  0.00  0.00    +0.000 OA
ATOM     15  H   UNL     1      42.219   6.327  13.487  0.00  0.00    +0.000 HD
ENDBRANCH  13  14
ENDBRANCH  11  13
ENDBRANCH  10  11
ENDBRANCH   9  10
ENDBRANCH   3   9
ENDBRANCH   1   8
BRANCH   1  16
ATOM     16  C   UNL     1      48.875   6.748  16.677  0.00  0.00    +0.000 C 
ATOM     17  C   UNL     1      48.495   7.633  17.870  0.00  0.00    +0.000 C 
ATOM     18  C   UNL     1      49.848   7.750  17.263  0.00  0.00    +0.000 C 
BRANCH  16  19
ATOM     19  C   UNL     1      49.036   5.260  16.983  0.00  0.00    +0.000 A 
ATOM     20  C   UNL     1      47.961   4.370  16.813  0.00  0.00    +0.000 A 
ATOM     21  C   UNL     1      48.125   2.993  16.957  0.00  0.00    +0.000 A 
ATOM     22  C   UNL     1      49.382   2.472  17.251  0.00  0.00    +0.000 A 
ATOM     23  C   UNL     1      50.480   3.320  17.434  0.00  0.00    +0.000 A 
ATOM     24  C   UNL     1      50.273   4.707  17.359  0.00  0.00    +0.000 A 
BRANCH  23  25
ATOM     25  C   UNL     1      51.891   2.773  17.575  0.00  0.00    +0.000 C 
ATOM     26  C   UNL     1      51.873   1.234  17.540  0.00  0.00    +0.000 C 
ATOM     27  C   UNL     1      53.249   0.654  17.823  0.00  0.00    +0.000 C 
ATOM     28  O   UNL     1      53.759   1.158  19.053  0.00  0.00    +0.000 OA
ATOM     29  C   UNL     1      53.940   2.572  19.018  0.00  0.00    +0.000 C 
ATOM     30  C   UNL     1      52.607   3.285  18.830  0.00  0.00    +0.000 C 
ENDBRANCH  23  25
ENDBRANCH  16  19
ENDBRANCH   1  16
TORSDOF 9
ENDMDL
MODEL 9
REMARK VINA RESULT:    -6.725      5.146      7.864
REMARK INTER + INTRA:         -10.490
REMARK INTER:                  -9.084
REMARK INTRA:                  -1.407
REMARK UNBOUND:                -0.424
REMARK  Name = 
REMARK  9 active torsions:
REMARK  status: ('A' for Active; 'I' for Inactive)
REMARK    1  A    between atoms: C_2  and  O_3
REMARK    2  A    between atoms: C_2  and  C_4
REMARK    3  A    between atoms: C_4  and  C_5
REMARK    4  A    between atoms: C_5  and  C_6
REMARK    5  A    between atoms: C_6  and  C_7
REMARK    6  A    between atoms: C_12  and  N_13
REMARK    7  A    between atoms: N_13  and  C_14
REMARK    8  A    between atoms: C_14  and  C_15
REMARK    9  A    between atoms: C_19  and  C_20
REMARK                            x       y       z     vdW  Elec       q    Type
REMARK                         _______ _______ _______ _____ _____    ______ ____
ROOT
ATOM      1  N   UNL     1      49.924   6.333  16.003  0.00  0.00    +0.000 N 
ATOM      2  H   UNL     1      50.074   5.641  15.274  0.00  0.00    +0.000 HD
ENDROOT
BRANCH   1   8
ATOM      3  C   UNL     1      49.333   5.382  18.255  0.00  0.00    +0.000 A 
ATOM      4  C   UNL     1      49.915   4.907  19.453  0.00  0.00    +0.000 A 
ATOM      5  C   UNL     1      51.274   4.661  19.543  0.00  0.00    +0.000 A 
ATOM      6  C   UNL     1      52.027   4.898  18.420  0.00  0.00    +0.000 A 
ATOM      7  N   UNL     1      51.517   5.405  17.279  0.00  0.00    +0.000 NA
ATOM      8  C   UNL     1      50.189   5.683  17.196  0.00  0.00    +0.000 A 
BRANCH   3   9
ATOM      9  C   UNL     1      47.831   5.456  18.240  0.00  0.00    +0.000 C 
BRANCH   9  10
ATOM     10  C   UNL     1      47.180   4.435  17.291  0.00  0.00    +0.000 C 
BRANCH  10  11
ATOM     11  C   UNL     1      47.652   2.983  17.357  0.00  0.00    +0.000 C 
BRANCH  11  13
ATOM     12  O   UNL     1      49.361   1.805  16.097  0.00  0.00    +0.000 OA
ATOM     13  C   UNL     1      48.361   2.499  16.117  0.00  0.00    +0.000 C 
BRANCH  13  14
ATOM     14  O   UNL     1      47.747   2.918  14.985  0.00  0.00    +0.000 OA
ATOM     15  H   UNL     1      46.985   2.367  14.724  0.00  0.00    +0.000 HD
ENDBRANCH  13  14
ENDBRANCH  11  13
ENDBRANCH  10  11
ENDBRANCH   9  10
ENDBRANCH   3   9
ENDBRANCH   1   8
BRANCH   1  16
ATOM     16  C   UNL     1      49.230   7.559  15.620  0.00  0.00    +0.000 C 
ATOM     17  C   UNL     1      49.977   8.830  16.043  0.00  0.00    +0.000 C 
ATOM     18  C   UNL     1      48.639   8.533  16.618  0.00  0.00    +0.000 C 
BRANCH  16  19
ATOM     19  C   UNL     1      48.721   7.540  14.180  0.00  0.00    +0.000 A 
ATOM     20  C   UNL     1      49.580   7.839  13.109  0.00  0.00    +0.000 A 
ATOM     21  C   UNL     1      49.170   7.696  11.784  0.00  0.00    +0.000 A 
ATOM     22  C   UNL     1      47.893   7.223  11.501  0.00  0.00    +0.000 A 
ATOM     23  C   UNL     1      47.000   6.917  12.535  0.00  0.00    +0.000 A 
ATOM     24  C   UNL     1      47.410   7.142  13.860  0.00  0.00    +0.000 A 
BRANCH  23  25
ATOM     25  C   UNL     1      45.672   6.232  12.261  0.00  0.00    +0.000 C 
ATOM     26  C   UNL     1      45.448   5.081  13.258  0.00  0.00    +0.000 C 
ATOM     27  C   UNL     1      44.199   4.285  12.920  0.00  0.00    +0.000 C 
ATOM     28  O   UNL     1      44.249   3.826  11.573  0.00  0.00    +0.000 OA
ATOM     29  C   UNL     1      44.279   4.906  10.641  0.00  0.00    +0.000 C 
ATOM     30  C   UNL     1      45.543   5.738  10.815  0.00  0.00    +0.000 C 
ENDBRANCH  23  25
ENDBRANCH  16  19
ENDBRANCH   1  16
TORSDOF 9
ENDMDL
