MODEL 1
REMARK VINA RESULT:    -7.237      0.000      0.000
REMARK INTER + INTRA:         -12.799
REMARK INTER:                 -11.467
REMARK INTRA:                  -1.332
REMARK UNBOUND:                -1.332
REMARK  Name = 
REMARK  13 active torsions:
REMARK  status: ('A' for Active; 'I' for Inactive)
REMARK    1  A    between atoms: C_1  and  O_2
REMARK    2  A    between atoms: O_2  and  C_3
REMARK    3  A    between atoms: C_5  and  O_6
REMARK    4  A    between atoms: O_6  and  C_7
REMARK    5  A    between atoms: C_9  and  C_10
REMARK    6  A    between atoms: N_12  and  C_13
REMARK    7  A    between atoms: C_13  and  C_14
REMARK    8  A    between atoms: C_17  and  O_18
REMARK    9  A    between atoms: O_18  and  C_19
REMARK   10  A    between atoms: C_19  and  C_20
REMARK   11  A    between atoms: C_20  and  C_21
REMARK   12  A    between atoms: C_26  and  O_27
REMARK   13  A    between atoms: O_27  and  C_28
REMARK                            x       y       z     vdW  Elec       q    Type
REMARK                         _______ _______ _______ _____ _____    ______ ____
ROOT
ATOM      1  C   UNL     1      48.832   5.985  16.657  0.00  0.00    +0.000 C 
ATOM      2  O   UNL     1      49.782   5.294  16.295  0.00  0.00    +0.000 OA
ATOM      3  N   UNL     1      48.081   6.698  15.758  0.00  0.00    +0.000 N 
ATOM      4  H   UNL     1      47.339   7.306  16.078  0.00  0.00    +0.000 HD
ENDROOT
BRANCH   1   9
ATOM      5  C   UNL     1      47.170   8.616  21.000  0.00  0.00    +0.000 A 
ATOM      6  N   UNL     1      47.436   9.272  19.855  0.00  0.00    +0.000 NA
ATOM      7  C   UNL     1      47.886   8.556  18.800  0.00  0.00    +0.000 A 
ATOM      8  C   UNL     1      48.042   7.170  18.902  0.00  0.00    +0.000 A 
ATOM      9  C   UNL     1      48.442   6.068  18.066  0.00  0.00    +0.000 A 
ATOM     10  C   UNL     1      48.388   4.937  18.875  0.00  0.00    +0.000 A 
ATOM     11  N   UNL     1      47.960   5.297  20.122  0.00  0.00    +0.000 N 
ATOM     12  C   UNL     1      47.740   6.642  20.149  0.00  0.00    +0.000 A 
ATOM     13  N   UNL     1      47.310   7.305  21.231  0.00  0.00    +0.000 NA
ATOM     14  H   UNL     1      47.820   4.684  20.913  0.00  0.00    +0.000 HD
BRANCH   5  16
ATOM     15  C   UNL     1      45.776  10.302  21.793  0.00  0.00    +0.000 C 
ATOM     16  O   UNL     1      46.770   9.338  22.105  0.00  0.00    +0.000 OA
ENDBRANCH   5  16
BRANCH   7  17
ATOM     17  O   UNL     1      48.220   9.205  17.627  0.00  0.00    +0.000 OA
ATOM     18  C   UNL     1      48.028  10.615  17.672  0.00  0.00    +0.000 C 
ENDBRANCH   7  17
ENDBRANCH   1   9
BRANCH   3  19
ATOM     19  C   UNL     1      48.383   6.645  14.351  0.00  0.00    +0.000 C 
BRANCH  19  20
ATOM     20  C   UNL     1      47.346   5.882  13.575  0.00  0.00    +0.000 A 
ATOM     21  C   UNL     1      46.749   6.474  12.459  0.00  0.00    +0.000 A 
ATOM     22  C   UNL     1      45.796   5.779  11.711  0.00  0.00    +0.000 A 
ATOM     23  C   UNL     1      45.411   4.488  12.077  0.00  0.00    +0.000 A 
ATOM     24  C   UNL     1      45.996   3.896  13.198  0.00  0.00    +0.000 A 
ATOM     25  C   UNL     1      46.958   4.589  13.944  0.00  0.00    +0.000 A 
BRANCH  23  26
ATOM     26  O   UNL     1      44.483   3.718  11.419  0.00  0.00    +0.000 OA
BRANCH  26  27
ATOM     27  C   UNL     1      44.591   3.743   9.998  0.00  0.00    +0.000 C 
BRANCH  27  28
ATOM     28  C   UNL     1      45.058   2.387   9.476  0.00  0.00    +0.000 C 
BRANCH  28  29
ATOM     29  C   UNL     1      45.864   2.413   8.190  0.00  0.00    +0.000 A 
ATOM     30  C   UNL     1      46.010   3.629   7.477  0.00  0.00    +0.000 A 
ATOM     31  C   UNL     1      46.838   3.744   6.360  0.00  0.00    +0.000 A 
ATOM     32  C   UNL     1      47.541   2.638   5.916  0.00  0.00    +0.000 A 
ATOM     33  C   UNL     1      47.390   1.422   6.577  0.00  0.00    +0.000 A 
ATOM     34  C   UNL     1      46.549   1.287   7.697  0.00  0.00    +0.000 A 
BRANCH  34  35
ATOM     35  O   UNL     1      46.597   0.023   8.223  0.00  0.00    +0.000 OA
ATOM     36  C   UNL     1      46.590  -1.091   7.346  0.00  0.00    +0.000 C 
ENDBRANCH  34  35
ENDBRANCH  28  29
ENDBRANCH  27  28
ENDBRANCH  26  27
ENDBRANCH  23  26
ENDBRANCH  19  20
ENDBRANCH   3  19
TORSDOF 10
ENDMDL
MODEL 2
REMARK VINA RESULT:    -7.144      2.834      4.141
REMARK INTER + INTRA:         -12.652
REMARK INTER:                 -11.263
REMARK INTRA:                  -1.389
REMARK UNBOUND:                -1.332
REMARK  Name = 
REMARK  13 active torsions:
REMARK  status: ('A' for Active; 'I' for Inactive)
REMARK    1  A    between atoms: C_1  and  O_2
REMARK    2  A    between atoms: O_2  and  C_3
REMARK    3  A    between atoms: C_5  and  O_6
REMARK    4  A    between atoms: O_6  and  C_7
REMARK    5  A    between atoms: C_9  and  C_10
REMARK    6  A    between atoms: N_12  and  C_13
REMARK    7  A    between atoms: C_13  and  C_14
REMARK    8  A    between atoms: C_17  and  O_18
REMARK    9  A    between atoms: O_18  and  C_19
REMARK   10  A    between atoms: C_19  and  C_20
REMARK   11  A    between atoms: C_20  and  C_21
REMARK   12  A    between atoms: C_26  and  O_27
REMARK   13  A    between atoms: O_27  and  C_28
REMARK                            x       y       z     vdW  Elec       q    Type
REMARK                         _______ _______ _______ _____ _____    ______ ____
ROOT
ATOM      1  C   UNL     1      47.769   8.787  13.864  0.00  0.00    +0.000 C 
ATOM      2  O   UNL     1      48.280   9.299  12.871  0.00  0.00    +0.000 OA
ATOM      3  N   UNL     1      46.483   8.310  13.844  0.00  0.00    +0.000 N 
ATOM      4  H   UNL     1      46.059   7.944  14.685  0.00  0.00    +0.000 HD
ENDROOT
BRANCH   1   9
ATOM      5  C   UNL     1      50.052   5.919  17.752  0.00  0.00    +0.000 A 
ATOM      6  N   UNL     1      49.359   5.318  16.767  0.00  0.00    +0.000 NA
ATOM      7  C   UNL     1      48.776   6.099  15.830  0.00  0.00    +0.000 A 
ATOM      8  C   UNL     1      48.917   7.490  15.881  0.00  0.00    +0.000 A 
ATOM      9  C   UNL     1      48.514   8.641  15.117  0.00  0.00    +0.000 A 
ATOM     10  C   UNL     1      49.002   9.746  15.807  0.00  0.00    +0.000 A 
ATOM     11  N   UNL     1      49.685   9.320  16.911  0.00  0.00    +0.000 N 
ATOM     12  C   UNL     1      49.648   7.959  16.964  0.00  0.00    +0.000 A 
ATOM     13  N   UNL     1      50.229   7.234  17.928  0.00  0.00    +0.000 NA
ATOM     14  H   UNL     1      50.152   9.901  17.594  0.00  0.00    +0.000 HD
BRANCH   5  16
ATOM     15  C   UNL     1      51.915   4.706  18.439  0.00  0.00    +0.000 C 
ATOM     16  O   UNL     1      50.600   5.143  18.751  0.00  0.00    +0.000 OA
ENDBRANCH   5  16
BRANCH   7  17
ATOM     17  O   UNL     1      48.013   5.519  14.835  0.00  0.00    +0.000 OA
ATOM     18  C   UNL     1      47.218   4.425  15.281  0.00  0.00    +0.000 C 
ENDBRANCH   7  17
ENDBRANCH   1   9
BRANCH   3  19
ATOM     19  C   UNL     1      45.695   8.390  12.641  0.00  0.00    +0.000 C 
BRANCH  19  20
ATOM     20  C   UNL     1      45.105   7.062  12.260  0.00  0.00    +0.000 A 
ATOM     21  C   UNL     1      43.906   7.022  11.543  0.00  0.00    +0.000 A 
ATOM     22  C   UNL     1      43.347   5.800  11.161  0.00  0.00    +0.000 A 
ATOM     23  C   UNL     1      43.968   4.598  11.504  0.00  0.00    +0.000 A 
ATOM     24  C   UNL     1      45.160   4.631  12.229  0.00  0.00    +0.000 A 
ATOM     25  C   UNL     1      45.726   5.856  12.606  0.00  0.00    +0.000 A 
BRANCH  23  26
ATOM     26  O   UNL     1      43.505   3.344  11.186  0.00  0.00    +0.000 OA
BRANCH  26  27
ATOM     27  C   UNL     1      44.503   2.450  10.698  0.00  0.00    +0.000 C 
BRANCH  27  28
ATOM     28  C   UNL     1      44.316   2.212   9.201  0.00  0.00    +0.000 C 
BRANCH  28  29
ATOM     29  C   UNL     1      45.585   2.198   8.368  0.00  0.00    +0.000 A 
ATOM     30  C   UNL     1      46.215   0.965   8.070  0.00  0.00    +0.000 A 
ATOM     31  C   UNL     1      47.310   0.876   7.210  0.00  0.00    +0.000 A 
ATOM     32  C   UNL     1      47.813   2.026   6.626  0.00  0.00    +0.000 A 
ATOM     33  C   UNL     1      47.233   3.255   6.928  0.00  0.00    +0.000 A 
ATOM     34  C   UNL     1      46.138   3.362   7.804  0.00  0.00    +0.000 A 
BRANCH  34  35
ATOM     35  O   UNL     1      45.693   4.653   7.910  0.00  0.00    +0.000 OA
ATOM     36  C   UNL     1      46.204   5.477   8.946  0.00  0.00    +0.000 C 
ENDBRANCH  34  35
ENDBRANCH  28  29
ENDBRANCH  27  28
ENDBRANCH  26  27
ENDBRANCH  23  26
ENDBRANCH  19  20
ENDBRANCH   3  19
TORSDOF 10
ENDMDL
MODEL 3
REMARK VINA RESULT:    -7.005      2.725      3.557
REMARK INTER + INTRA:         -12.433
REMARK INTER:                 -10.880
REMARK INTRA:                  -1.552
REMARK UNBOUND:                -1.332
REMARK  Name = 
REMARK  13 active torsions:
REMARK  status: ('A' for Active; 'I' for Inactive)
REMARK    1  A    between atoms: C_1  and  O_2
REMARK    2  A    between atoms: O_2  and  C_3
REMARK    3  A    between atoms: C_5  and  O_6
REMARK    4  A    between atoms: O_6  and  C_7
REMARK    5  A    between atoms: C_9  and  C_10
REMARK    6  A    between atoms: N_12  and  C_13
REMARK    7  A    between atoms: C_13  and  C_14
REMARK    8  A    between atoms: C_17  and  O_18
REMARK    9  A    between atoms: O_18  and  C_19
REMARK   10  A    between atoms: C_19  and  C_20
REMARK   11  A    between atoms: C_20  and  C_21
REMARK   12  A    between atoms: C_26  and  O_27
REMARK   13  A    between atoms: O_27  and  C_28
REMARK                            x       y       z     vdW  Elec       q    Type
REMARK                         _______ _______ _______ _____ _____    ______ ____
ROOT
ATOM      1  C   UNL     1      49.101   7.793  13.725  0.00  0.00    +0.000 C 
ATOM      2  O   UNL     1      49.694   7.770  12.649  0.00  0.00    +0.000 OA
ATOM      3  N   UNL     1      47.737   7.927  13.788  0.00  0.00    +0.000 N 
ATOM      4  H   UNL     1      47.270   8.001  14.682  0.00  0.00    +0.000 HD
ENDROOT
BRANCH   1   9
ATOM      5  C   UNL     1      50.169   5.373  18.366  0.00  0.00    +0.000 A 
ATOM      6  N   UNL     1      49.176   4.932  17.571  0.00  0.00    +0.000 NA
ATOM      7  C   UNL     1      48.932   5.606  16.424  0.00  0.00    +0.000 A 
ATOM      8  C   UNL     1      49.712   6.714  16.076  0.00  0.00    +0.000 A 
ATOM      9  C   UNL     1      49.817   7.658  14.995  0.00  0.00    +0.000 A 
ATOM     10  C   UNL     1      50.835   8.536  15.354  0.00  0.00    +0.000 A 
ATOM     11  N   UNL     1      51.350   8.157  16.561  0.00  0.00    +0.000 N 
ATOM     12  C   UNL     1      50.687   7.052  17.005  0.00  0.00    +0.000 A 
ATOM     13  N   UNL     1      50.958   6.433  18.160  0.00  0.00    +0.000 NA
ATOM     14  H   UNL     1      52.103   8.605  17.064  0.00  0.00    +0.000 HD
BRANCH   5  16
ATOM     15  C   UNL     1      49.273   4.814  20.440  0.00  0.00    +0.000 C 
ATOM     16  O   UNL     1      50.392   4.736  19.569  0.00  0.00    +0.000 OA
ENDBRANCH   5  16
BRANCH   7  17
ATOM     17  O   UNL     1      47.887   5.214  15.611  0.00  0.00    +0.000 OA
ATOM     18  C   UNL     1      47.395   3.907  15.893  0.00  0.00    +0.000 C 
ENDBRANCH   7  17
ENDBRANCH   1   9
BRANCH   3  19
ATOM     19  C   UNL     1      46.957   8.036  12.582  0.00  0.00    +0.000 C 
BRANCH  19  20
ATOM     20  C   UNL     1      46.280   6.743  12.226  0.00  0.00    +0.000 A 
ATOM     21  C   UNL     1      45.839   5.894  13.245  0.00  0.00    +0.000 A 
ATOM     22  C   UNL     1      45.189   4.696  12.940  0.00  0.00    +0.000 A 
ATOM     23  C   UNL     1      44.987   4.317  11.611  0.00  0.00    +0.000 A 
ATOM     24  C   UNL     1      45.436   5.155  10.589  0.00  0.00    +0.000 A 
ATOM     25  C   UNL     1      46.079   6.362  10.894  0.00  0.00    +0.000 A 
BRANCH  23  26
ATOM     26  O   UNL     1      44.368   3.162  11.199  0.00  0.00    +0.000 OA
BRANCH  26  27
ATOM     27  C   UNL     1      44.104   3.098   9.799  0.00  0.00    +0.000 C 
BRANCH  27  28
ATOM     28  C   UNL     1      44.770   1.867   9.188  0.00  0.00    +0.000 C 
BRANCH  28  29
ATOM     29  C   UNL     1      45.750   2.135   8.060  0.00  0.00    +0.000 A 
ATOM     30  C   UNL     1      45.775   3.407   7.439  0.00  0.00    +0.000 A 
ATOM     31  C   UNL     1      46.734   3.753   6.486  0.00  0.00    +0.000 A 
ATOM     32  C   UNL     1      47.695   2.827   6.118  0.00  0.00    +0.000 A 
ATOM     33  C   UNL     1      47.672   1.557   6.689  0.00  0.00    +0.000 A 
ATOM     34  C   UNL     1      46.705   1.190   7.641  0.00  0.00    +0.000 A 
BRANCH  34  35
ATOM     35  O   UNL     1      46.907  -0.081   8.110  0.00  0.00    +0.000 OA
ATOM     36  C   UNL     1      46.519  -1.184   7.307  0.00  0.00    +0.000 C 
ENDBRANCH  34  35
ENDBRANCH  28  29
ENDBRANCH  27  28
ENDBRANCH  26  27
ENDBRANCH  23  26
ENDBRANCH  19  20
ENDBRANCH   3  19
TORSDOF 10
ENDMDL
MODEL 4
REMARK VINA RESULT:    -6.963      3.674      5.225
REMARK INTER + INTRA:         -12.366
REMARK INTER:                 -10.807
REMARK INTRA:                  -1.559
REMARK UNBOUND:                -1.332
REMARK  Name = 
REMARK  13 active torsions:
REMARK  status: ('A' for Active; 'I' for Inactive)
REMARK    1  A    between atoms: C_1  and  O_2
REMARK    2  A    between atoms: O_2  and  C_3
REMARK    3  A    between atoms: C_5  and  O_6
REMARK    4  A    between atoms: O_6  and  C_7
REMARK    5  A    between atoms: C_9  and  C_10
REMARK    6  A    between atoms: N_12  and  C_13
REMARK    7  A    between atoms: C_13  and  C_14
REMARK    8  A    between atoms: C_17  and  O_18
REMARK    9  A    between atoms: O_18  and  C_19
REMARK   10  A    between atoms: C_19  and  C_20
REMARK   11  A    between atoms: C_20  and  C_21
REMARK   12  A    between atoms: C_26  and  O_27
REMARK   13  A    between atoms: O_27  and  C_28
REMARK                            x       y       z     vdW  Elec       q    Type
REMARK                         _______ _______ _______ _____ _____    ______ ____
ROOT
ATOM      1  C   UNL     1      49.763   2.385  16.921  0.00  0.00    +0.000 C 
ATOM      2  O   UNL     1      49.411   1.643  16.007  0.00  0.00    +0.000 OA
ATOM      3  N   UNL     1      48.908   3.313  17.461  0.00  0.00    +0.000 N 
ATOM      4  H   UNL     1      49.231   3.954  18.172  0.00  0.00    +0.000 HD
ENDROOT
BRANCH   1   9
ATOM      5  C   UNL     1      54.108   4.496  19.204  0.00  0.00    +0.000 A 
ATOM      6  N   UNL     1      53.088   5.279  18.807  0.00  0.00    +0.000 NA
ATOM      7  C   UNL     1      52.030   4.690  18.205  0.00  0.00    +0.000 A 
ATOM      8  C   UNL     1      51.999   3.303  18.028  0.00  0.00    +0.000 A 
ATOM      9  C   UNL     1      51.109   2.306  17.494  0.00  0.00    +0.000 A 
ATOM     10  C   UNL     1      51.775   1.091  17.624  0.00  0.00    +0.000 A 
ATOM     11  N   UNL     1      52.986   1.305  18.220  0.00  0.00    +0.000 N 
ATOM     12  C   UNL     1      53.130   2.636  18.477  0.00  0.00    +0.000 A 
ATOM     13  N   UNL     1      54.211   3.169  19.060  0.00  0.00    +0.000 NA
ATOM     14  H   UNL     1      53.679   0.606  18.446  0.00  0.00    +0.000 HD
BRANCH   5  16
ATOM     15  C   UNL     1      54.899   6.222  20.548  0.00  0.00    +0.000 C 
ATOM     16  O   UNL     1      55.223   5.085  19.762  0.00  0.00    +0.000 OA
ENDBRANCH   5  16
BRANCH   7  17
ATOM     17  O   UNL     1      50.989   5.470  17.738  0.00  0.00    +0.000 OA
ATOM     18  C   UNL     1      51.348   6.324  16.657  0.00  0.00    +0.000 C 
ENDBRANCH   7  17
ENDBRANCH   1   9
BRANCH   3  19
ATOM     19  C   UNL     1      47.559   3.433  16.971  0.00  0.00    +0.000 C 
BRANCH  19  20
ATOM     20  C   UNL     1      47.487   4.222  15.694  0.00  0.00    +0.000 A 
ATOM     21  C   UNL     1      47.958   5.537  15.671  0.00  0.00    +0.000 A 
ATOM     22  C   UNL     1      47.920   6.285  14.492  0.00  0.00    +0.000 A 
ATOM     23  C   UNL     1      47.392   5.737  13.322  0.00  0.00    +0.000 A 
ATOM     24  C   UNL     1      46.909   4.428  13.341  0.00  0.00    +0.000 A 
ATOM     25  C   UNL     1      46.955   3.673  14.521  0.00  0.00    +0.000 A 
BRANCH  23  26
ATOM     26  O   UNL     1      47.299   6.382  12.112  0.00  0.00    +0.000 OA
BRANCH  26  27
ATOM     27  C   UNL     1      45.965   6.626  11.671  0.00  0.00    +0.000 C 
BRANCH  27  28
ATOM     28  C   UNL     1      45.807   6.222  10.207  0.00  0.00    +0.000 C 
BRANCH  28  29
ATOM     29  C   UNL     1      45.336   4.801   9.959  0.00  0.00    +0.000 A 
ATOM     30  C   UNL     1      44.549   4.142  10.934  0.00  0.00    +0.000 A 
ATOM     31  C   UNL     1      43.983   2.886  10.712  0.00  0.00    +0.000 A 
ATOM     32  C   UNL     1      44.197   2.246   9.504  0.00  0.00    +0.000 A 
ATOM     33  C   UNL     1      44.996   2.856   8.540  0.00  0.00    +0.000 A 
ATOM     34  C   UNL     1      45.583   4.116   8.754  0.00  0.00    +0.000 A 
BRANCH  34  35
ATOM     35  O   UNL     1      46.276   4.551   7.655  0.00  0.00    +0.000 OA
ATOM     36  C   UNL     1      46.972   3.606   6.859  0.00  0.00    +0.000 C 
ENDBRANCH  34  35
ENDBRANCH  28  29
ENDBRANCH  27  28
ENDBRANCH  26  27
ENDBRANCH  23  26
ENDBRANCH  19  20
ENDBRANCH   3  19
TORSDOF 10
ENDMDL
MODEL 5
REMARK VINA RESULT:    -6.953      4.070      9.129
REMARK INTER + INTRA:         -12.349
REMARK INTER:                 -10.380
REMARK INTRA:                  -1.970
REMARK UNBOUND:                -1.332
REMARK  Name = 
REMARK  13 active torsions:
REMARK  status: ('A' for Active; 'I' for Inactive)
REMARK    1  A    between atoms: C_1  and  O_2
REMARK    2  A    between atoms: O_2  and  C_3
REMARK    3  A    between atoms: C_5  and  O_6
REMARK    4  A    between atoms: O_6  and  C_7
REMARK    5  A    between atoms: C_9  and  C_10
REMARK    6  A    between atoms: N_12  and  C_13
REMARK    7  A    between atoms: C_13  and  C_14
REMARK    8  A    between atoms: C_17  and  O_18
REMARK    9  A    between atoms: O_18  and  C_19
REMARK   10  A    between atoms: C_19  and  C_20
REMARK   11  A    between atoms: C_20  and  C_21
REMARK   12  A    between atoms: C_26  and  O_27
REMARK   13  A    between atoms: O_27  and  C_28
REMARK                            x       y       z     vdW  Elec       q    Type
REMARK                         _______ _______ _______ _____ _____    ______ ____
ROOT
ATOM      1  C   UNL     1      46.553   9.163  12.522  0.00  0.00    +0.000 C 
ATOM      2  O   UNL     1      47.121  10.050  11.887  0.00  0.00    +0.000 OA
ATOM      3  N   UNL     1      46.971   8.802  13.778  0.00  0.00    +0.000 N 
ATOM      4  H   UNL     1      46.529   8.032  14.263  0.00  0.00    +0.000 HD
ENDROOT
BRANCH   1   9
ATOM      5  C   UNL     1      43.692   4.774  11.479  0.00  0.00    +0.000 A 
ATOM      6  N   UNL     1      44.910   4.685  12.044  0.00  0.00    +0.000 NA
ATOM      7  C   UNL     1      45.601   5.829  12.253  0.00  0.00    +0.000 A 
ATOM      8  C   UNL     1      45.042   7.064  11.909  0.00  0.00    +0.000 A 
ATOM      9  C   UNL     1      45.390   8.459  11.978  0.00  0.00    +0.000 A 
ATOM     10  C   UNL     1      44.329   9.146  11.395  0.00  0.00    +0.000 A 
ATOM     11  N   UNL     1      43.372   8.250  11.011  0.00  0.00    +0.000 N 
ATOM     12  C   UNL     1      43.786   6.990  11.323  0.00  0.00    +0.000 A 
ATOM     13  N   UNL     1      43.068   5.887  11.076  0.00  0.00    +0.000 NA
ATOM     14  H   UNL     1      42.490   8.463  10.567  0.00  0.00    +0.000 HD
BRANCH   5  16
ATOM     15  C   UNL     1      43.445   2.515  11.982  0.00  0.00    +0.000 C 
ATOM     16  O   UNL     1      43.000   3.614  11.200  0.00  0.00    +0.000 OA
ENDBRANCH   5  16
BRANCH   7  17
ATOM     17  O   UNL     1      46.875   5.771  12.783  0.00  0.00    +0.000 OA
ATOM     18  C   UNL     1      46.945   5.121  14.048  0.00  0.00    +0.000 C 
ENDBRANCH   7  17
ENDBRANCH   1   9
BRANCH   3  19
ATOM     19  C   UNL     1      48.089   9.467  14.395  0.00  0.00    +0.000 C 
BRANCH  19  20
ATOM     20  C   UNL     1      48.477   8.833  15.701  0.00  0.00    +0.000 A 
ATOM     21  C   UNL     1      48.020   9.390  16.898  0.00  0.00    +0.000 A 
ATOM     22  C   UNL     1      48.350   8.808  18.124  0.00  0.00    +0.000 A 
ATOM     23  C   UNL     1      49.159   7.671  18.174  0.00  0.00    +0.000 A 
ATOM     24  C   UNL     1      49.629   7.117  16.983  0.00  0.00    +0.000 A 
ATOM     25  C   UNL     1      49.290   7.694  15.752  0.00  0.00    +0.000 A 
BRANCH  23  26
ATOM     26  O   UNL     1      49.550   7.023  19.321  0.00  0.00    +0.000 OA
BRANCH  26  27
ATOM     27  C   UNL     1      50.596   6.071  19.137  0.00  0.00    +0.000 C 
BRANCH  27  28
ATOM     28  C   UNL     1      50.143   4.688  19.598  0.00  0.00    +0.000 C 
BRANCH  28  29
ATOM     29  C   UNL     1      49.442   3.838  18.553  0.00  0.00    +0.000 A 
ATOM     30  C   UNL     1      48.050   3.994  18.340  0.00  0.00    +0.000 A 
ATOM     31  C   UNL     1      47.375   3.334  17.313  0.00  0.00    +0.000 A 
ATOM     32  C   UNL     1      48.075   2.487  16.471  0.00  0.00    +0.000 A 
ATOM     33  C   UNL     1      49.437   2.290  16.679  0.00  0.00    +0.000 A 
ATOM     34  C   UNL     1      50.129   2.938  17.718  0.00  0.00    +0.000 A 
BRANCH  34  35
ATOM     35  O   UNL     1      51.467   2.645  17.702  0.00  0.00    +0.000 OA
ATOM     36  C   UNL     1      51.878   1.301  17.512  0.00  0.00    +0.000 C 
ENDBRANCH  34  35
ENDBRANCH  28  29
ENDBRANCH  27  28
ENDBRANCH  26  27
ENDBRANCH  23  26
ENDBRANCH  19  20
ENDBRANCH   3  19
TORSDOF 10
ENDMDL
MODEL 6
REMARK VINA RESULT:    -6.709      2.994      9.856
REMARK INTER + INTRA:         -11.964
REMARK INTER:                  -9.514
REMARK INTRA:                  -2.450
REMARK UNBOUND:                -1.332
REMARK  Name = 
REMARK  13 active torsions:
REMARK  status: ('A' for Active; 'I' for Inactive)
REMARK    1  A    between atoms: C_1  and  O_2
REMARK    2  A    between atoms: O_2  and  C_3
REMARK    3  A    between atoms: C_5  and  O_6
REMARK    4  A    between atoms: O_6  and  C_7
REMARK    5  A    between atoms: C_9  and  C_10
REMARK    6  A    between atoms: N_12  and  C_13
REMARK    7  A    between atoms: C_13  and  C_14
REMARK    8  A    between atoms: C_17  and  O_18
REMARK    9  A    between atoms: O_18  and  C_19
REMARK   10  A    between atoms: C_19  and  C_20
REMARK   11  A    between atoms: C_20  and  C_21
REMARK   12  A    between atoms: C_26  and  O_27
REMARK   13  A    between atoms: O_27  and  C_28
REMARK                            x       y       z     vdW  Elec       q    Type
REMARK                         _______ _______ _______ _____ _____    ______ ____
ROOT
ATOM      1  C   UNL     1      48.340   6.752  14.638  0.00  0.00    +0.000 C 
ATOM      2  O   UNL     1      49.534   6.503  14.791  0.00  0.00    +0.000 OA
ATOM      3  N   UNL     1      47.818   7.981  14.953  0.00  0.00    +0.000 N 
ATOM      4  H   UNL     1      46.824   8.150  14.876  0.00  0.00    +0.000 HD
ENDROOT
BRANCH   1   9
ATOM      5  C   UNL     1      44.769   4.998  11.073  0.00  0.00    +0.000 A 
ATOM      6  N   UNL     1      45.256   6.251  11.003  0.00  0.00    +0.000 NA
ATOM      7  C   UNL     1      46.131   6.648  11.953  0.00  0.00    +0.000 A 
ATOM      8  C   UNL     1      46.530   5.763  12.961  0.00  0.00    +0.000 A 
ATOM      9  C   UNL     1      47.415   5.754  14.096  0.00  0.00    +0.000 A 
ATOM     10  C   UNL     1      47.271   4.500  14.681  0.00  0.00    +0.000 A 
ATOM     11  N   UNL     1      46.379   3.765  13.952  0.00  0.00    +0.000 N 
ATOM     12  C   UNL     1      45.930   4.513  12.906  0.00  0.00    +0.000 A 
ATOM     13  N   UNL     1      45.045   4.075  12.001  0.00  0.00    +0.000 NA
ATOM     14  H   UNL     1      46.085   2.816  14.138  0.00  0.00    +0.000 HD
BRANCH   5  16
ATOM     15  C   UNL     1      44.386   3.792   9.119  0.00  0.00    +0.000 C 
ATOM     16  O   UNL     1      43.827   4.595  10.149  0.00  0.00    +0.000 OA
ENDBRANCH   5  16
BRANCH   7  17
ATOM     17  O   UNL     1      46.610   7.944  11.942  0.00  0.00    +0.000 OA
ATOM     18  C   UNL     1      45.615   8.929  12.202  0.00  0.00    +0.000 C 
ENDBRANCH   7  17
ENDBRANCH   1   9
BRANCH   3  19
ATOM     19  C   UNL     1      48.667   9.025  15.465  0.00  0.00    +0.000 C 
BRANCH  19  20
ATOM     20  C   UNL     1      48.669   9.070  16.967  0.00  0.00    +0.000 A 
ATOM     21  C   UNL     1      49.734   8.502  17.671  0.00  0.00    +0.000 A 
ATOM     22  C   UNL     1      49.768   8.548  19.067  0.00  0.00    +0.000 A 
ATOM     23  C   UNL     1      48.729   9.145  19.782  0.00  0.00    +0.000 A 
ATOM     24  C   UNL     1      47.656   9.704  19.085  0.00  0.00    +0.000 A 
ATOM     25  C   UNL     1      47.626   9.667  17.685  0.00  0.00    +0.000 A 
BRANCH  23  26
ATOM     26  O   UNL     1      48.657   9.240  21.151  0.00  0.00    +0.000 OA
BRANCH  26  27
ATOM     27  C   UNL     1      48.894   8.017  21.844  0.00  0.00    +0.000 C 
BRANCH  27  28
ATOM     28  C   UNL     1      47.709   7.069  21.670  0.00  0.00    +0.000 C 
BRANCH  28  29
ATOM     29  C   UNL     1      47.845   6.033  20.569  0.00  0.00    +0.000 A 
ATOM     30  C   UNL     1      47.023   6.119  19.419  0.00  0.00    +0.000 A 
ATOM     31  C   UNL     1      47.185   5.273  18.321  0.00  0.00    +0.000 A 
ATOM     32  C   UNL     1      48.176   4.307  18.346  0.00  0.00    +0.000 A 
ATOM     33  C   UNL     1      48.976   4.179  19.478  0.00  0.00    +0.000 A 
ATOM     34  C   UNL     1      48.816   5.015  20.597  0.00  0.00    +0.000 A 
BRANCH  34  35
ATOM     35  O   UNL     1      49.745   4.753  21.569  0.00  0.00    +0.000 OA
ATOM     36  C   UNL     1      51.122   4.920  21.272  0.00  0.00    +0.000 C 
ENDBRANCH  34  35
ENDBRANCH  28  29
ENDBRANCH  27  28
ENDBRANCH  26  27
ENDBRANCH  23  26
ENDBRANCH  19  20
ENDBRANCH   3  19
TORSDOF 10
ENDMDL
MODEL 7
REMARK VINA RESULT:    -6.534      3.526      5.805
REMARK INTER + INTRA:         -11.685
REMARK INTER:                 -10.287
REMARK INTRA:                  -1.398
REMARK UNBOUND:                -1.332
REMARK  Name = 
REMARK  13 active torsions:
REMARK  status: ('A' for Active; 'I' for Inactive)
REMARK    1  A    between atoms: C_1  and  O_2
REMARK    2  A    between atoms: O_2  and  C_3
REMARK    3  A    between atoms: C_5  and  O_6
REMARK    4  A    between atoms: O_6  and  C_7
REMARK    5  A    between atoms: C_9  and  C_10
REMARK    6  A    between atoms: N_12  and  C_13
REMARK    7  A    between atoms: C_13  and  C_14
REMARK    8  A    between atoms: C_17  and  O_18
REMARK    9  A    between atoms: O_18  and  C_19
REMARK   10  A    between atoms: C_19  and  C_20
REMARK   11  A    between atoms: C_20  and  C_21
REMARK   12  A    between atoms: C_26  and  O_27
REMARK   13  A    between atoms: O_27  and  C_28
REMARK                            x       y       z     vdW  Elec       q    Type
REMARK                         _______ _______ _______ _____ _____    ______ ____
ROOT
ATOM      1  C   UNL     1      50.923   6.143  18.417  0.00  0.00    +0.000 C 
ATOM      2  O   UNL     1      50.356   6.835  19.261  0.00  0.00    +0.000 OA
ATOM      3  N   UNL     1      50.705   6.327  17.076  0.00  0.00    +0.000 N 
ATOM      4  H   UNL     1      51.135   5.712  16.398  0.00  0.00    +0.000 HD
ENDROOT
BRANCH   1   9
ATOM      5  C   UNL     1      52.988   1.225  18.113  0.00  0.00    +0.000 A 
ATOM      6  N   UNL     1      51.888   1.556  17.411  0.00  0.00    +0.000 NA
ATOM      7  C   UNL     1      51.393   2.806  17.555  0.00  0.00    +0.000 A 
ATOM      8  C   UNL     1      52.030   3.726  18.394  0.00  0.00    +0.000 A 
ATOM      9  C   UNL     1      51.875   5.098  18.801  0.00  0.00    +0.000 A 
ATOM     10  C   UNL     1      52.893   5.341  19.719  0.00  0.00    +0.000 A 
ATOM     11  N   UNL     1      53.648   4.211  19.860  0.00  0.00    +0.000 N 
ATOM     12  C   UNL     1      53.143   3.231  19.059  0.00  0.00    +0.000 A 
ATOM     13  N   UNL     1      53.664   2.001  18.968  0.00  0.00    +0.000 NA
ATOM     14  H   UNL     1      54.458   4.097  20.454  0.00  0.00    +0.000 HD
BRANCH   5  16
ATOM     15  C   UNL     1      54.537  -0.183  17.097  0.00  0.00    +0.000 C 
ATOM     16  O   UNL     1      53.471  -0.064  18.027  0.00  0.00    +0.000 OA
ENDBRANCH   5  16
BRANCH   7  17
ATOM     17  O   UNL     1      50.235   3.163  16.892  0.00  0.00    +0.000 OA
ATOM     18  C   UNL     1      49.041   2.784  17.569  0.00  0.00    +0.000 C 
ENDBRANCH   7  17
ENDBRANCH   1   9
BRANCH   3  19
ATOM     19  C   UNL     1      49.805   7.353  16.616  0.00  0.00    +0.000 C 
BRANCH  19  20
ATOM     20  C   UNL     1      48.882   6.858  15.539  0.00  0.00    +0.000 A 
ATOM     21  C   UNL     1      48.693   7.629  14.389  0.00  0.00    +0.000 A 
ATOM     22  C   UNL     1      47.855   7.182  13.364  0.00  0.00    +0.000 A 
ATOM     23  C   UNL     1      47.178   5.967  13.481  0.00  0.00    +0.000 A 
ATOM     24  C   UNL     1      47.354   5.198  14.633  0.00  0.00    +0.000 A 
ATOM     25  C   UNL     1      48.202   5.641  15.657  0.00  0.00    +0.000 A 
BRANCH  23  26
ATOM     26  O   UNL     1      46.327   5.436  12.542  0.00  0.00    +0.000 OA
BRANCH  26  27
ATOM     27  C   UNL     1      46.138   6.249  11.386  0.00  0.00    +0.000 C 
BRANCH  27  28
ATOM     28  C   UNL     1      44.853   5.855  10.663  0.00  0.00    +0.000 C 
BRANCH  28  29
ATOM     29  C   UNL     1      44.943   4.628   9.773  0.00  0.00    +0.000 A 
ATOM     30  C   UNL     1      45.859   4.609   8.694  0.00  0.00    +0.000 A 
ATOM     31  C   UNL     1      46.077   3.469   7.920  0.00  0.00    +0.000 A 
ATOM     32  C   UNL     1      45.372   2.311   8.200  0.00  0.00    +0.000 A 
ATOM     33  C   UNL     1      44.440   2.312   9.233  0.00  0.00    +0.000 A 
ATOM     34  C   UNL     1      44.200   3.457  10.014  0.00  0.00    +0.000 A 
BRANCH  34  35
ATOM     35  O   UNL     1      43.290   3.217  11.009  0.00  0.00    +0.000 OA
ATOM     36  C   UNL     1      43.751   2.779  12.277  0.00  0.00    +0.000 C 
ENDBRANCH  34  35
ENDBRANCH  28  29
ENDBRANCH  27  28
ENDBRANCH  26  27
ENDBRANCH  23  26
ENDBRANCH  19  20
ENDBRANCH   3  19
TORSDOF 10
ENDMDL
MODEL 8
REMARK VINA RESULT:    -6.418      3.870      9.395
REMARK INTER + INTRA:         -11.502
REMARK INTER:                  -9.577
REMARK INTRA:                  -1.925
REMARK UNBOUND:                -1.332
REMARK  Name = 
REMARK  13 active torsions:
REMARK  status: ('A' for Active; 'I' for Inactive)
REMARK    1  A    between atoms: C_1  and  O_2
REMARK    2  A    between atoms: O_2  and  C_3
REMARK    3  A    between atoms: C_5  and  O_6
REMARK    4  A    between atoms: O_6  and  C_7
REMARK    5  A    between atoms: C_9  and  C_10
REMARK    6  A    between atoms: N_12  and  C_13
REMARK    7  A    between atoms: C_13  and  C_14
REMARK    8  A    between atoms: C_17  and  O_18
REMARK    9  A    between atoms: O_18  and  C_19
REMARK   10  A    between atoms: C_19  and  C_20
REMARK   11  A    between atoms: C_20  and  C_21
REMARK   12  A    between atoms: C_26  and  O_27
REMARK   13  A    between atoms: O_27  and  C_28
REMARK                            x       y       z     vdW  Elec       q    Type
REMARK                         _______ _______ _______ _____ _____    ______ ____
ROOT
ATOM      1  C   UNL     1      47.540   8.317  13.475  0.00  0.00    +0.000 C 
ATOM      2  O   UNL     1      48.619   7.835  13.139  0.00  0.00    +0.000 OA
ATOM      3  N   UNL     1      47.449   9.221  14.502  0.00  0.00    +0.000 N 
ATOM      4  H   UNL     1      46.547   9.565  14.804  0.00  0.00    +0.000 HD
ENDROOT
BRANCH   1   9
ATOM      5  C   UNL     1      43.897   4.844  11.684  0.00  0.00    +0.000 A 
ATOM      6  N   UNL     1      45.024   4.415  12.284  0.00  0.00    +0.000 NA
ATOM      7  C   UNL     1      45.924   5.340  12.686  0.00  0.00    +0.000 A 
ATOM      8  C   UNL     1      45.667   6.703  12.499  0.00  0.00    +0.000 A 
ATOM      9  C   UNL     1      46.298   7.965  12.784  0.00  0.00    +0.000 A 
ATOM     10  C   UNL     1      45.453   8.939  12.261  0.00  0.00    +0.000 A 
ATOM     11  N   UNL     1      44.359   8.335  11.710  0.00  0.00    +0.000 N 
ATOM     12  C   UNL     1      44.471   6.985  11.854  0.00  0.00    +0.000 A 
ATOM     13  N   UNL     1      43.555   6.110  11.420  0.00  0.00    +0.000 NA
ATOM     14  H   UNL     1      43.577   8.794  11.264  0.00  0.00    +0.000 HD
BRANCH   5  16
ATOM     15  C   UNL     1      43.317   2.591  11.623  0.00  0.00    +0.000 C 
ATOM     16  O   UNL     1      42.997   3.912  11.211  0.00  0.00    +0.000 OA
ENDBRANCH   5  16
BRANCH   7  17
ATOM     17  O   UNL     1      47.114   4.933  13.257  0.00  0.00    +0.000 OA
ATOM     18  C   UNL     1      47.010   4.611  14.640  0.00  0.00    +0.000 C 
ENDBRANCH   7  17
ENDBRANCH   1   9
BRANCH   3  19
ATOM     19  C   UNL     1      48.629   9.641  15.213  0.00  0.00    +0.000 C 
BRANCH  19  20
ATOM     20  C   UNL     1      48.687   9.072  16.602  0.00  0.00    +0.000 A 
ATOM     21  C   UNL     1      47.630   9.306  17.485  0.00  0.00    +0.000 A 
ATOM     22  C   UNL     1      47.651   8.773  18.776  0.00  0.00    +0.000 A 
ATOM     23  C   UNL     1      48.739   8.013  19.212  0.00  0.00    +0.000 A 
ATOM     24  C   UNL     1      49.803   7.786  18.339  0.00  0.00    +0.000 A 
ATOM     25  C   UNL     1      49.779   8.313  17.040  0.00  0.00    +0.000 A 
BRANCH  23  26
ATOM     26  O   UNL     1      48.867   7.448  20.458  0.00  0.00    +0.000 OA
BRANCH  26  27
ATOM     27  C   UNL     1      47.944   6.395  20.729  0.00  0.00    +0.000 C 
BRANCH  27  28
ATOM     28  C   UNL     1      48.682   5.066  20.873  0.00  0.00    +0.000 C 
BRANCH  28  29
ATOM     29  C   UNL     1      49.575   4.674  19.710  0.00  0.00    +0.000 A 
ATOM     30  C   UNL     1      50.982   4.698  19.867  0.00  0.00    +0.000 A 
ATOM     31  C   UNL     1      51.851   4.231  18.879  0.00  0.00    +0.000 A 
ATOM     32  C   UNL     1      51.333   3.734  17.696  0.00  0.00    +0.000 A 
ATOM     33  C   UNL     1      49.954   3.731  17.502  0.00  0.00    +0.000 A 
ATOM     34  C   UNL     1      49.067   4.209  18.483  0.00  0.00    +0.000 A 
BRANCH  34  35
ATOM     35  O   UNL     1      47.759   4.057  18.107  0.00  0.00    +0.000 OA
ATOM     36  C   UNL     1      47.294   2.773  17.725  0.00  0.00    +0.000 C 
ENDBRANCH  34  35
ENDBRANCH  28  29
ENDBRANCH  27  28
ENDBRANCH  26  27
ENDBRANCH  23  26
ENDBRANCH  19  20
ENDBRANCH   3  19
TORSDOF 10
ENDMDL
MODEL 9
REMARK VINA RESULT:    -6.406      4.207      9.389
REMARK INTER + INTRA:         -11.482
REMARK INTER:                  -9.333
REMARK INTRA:                  -2.149
REMARK UNBOUND:                -1.332
REMARK  Name = 
REMARK  13 active torsions:
REMARK  status: ('A' for Active; 'I' for Inactive)
REMARK    1  A    between atoms: C_1  and  O_2
REMARK    2  A    between atoms: O_2  and  C_3
REMARK    3  A    between atoms: C_5  and  O_6
REMARK    4  A    between atoms: O_6  and  C_7
REMARK    5  A    between atoms: C_9  and  C_10
REMARK    6  A    between atoms: N_12  and  C_13
REMARK    7  A    between atoms: C_13  and  C_14
REMARK    8  A    between atoms: C_17  and  O_18
REMARK    9  A    between atoms: O_18  and  C_19
REMARK   10  A    between atoms: C_19  and  C_20
REMARK   11  A    between atoms: C_20  and  C_21
REMARK   12  A    between atoms: C_26  and  O_27
REMARK   13  A    between atoms: O_27  and  C_28
REMARK                            x       y       z     vdW  Elec       q    Type
REMARK                         _______ _______ _______ _____ _____    ______ ____
ROOT
ATOM      1  C   UNL     1      45.783   4.259  13.115  0.00  0.00    +0.000 C 
ATOM      2  O   UNL     1      45.567   3.143  12.648  0.00  0.00    +0.000 OA
ATOM      3  N   UNL     1      46.608   4.436  14.196  0.00  0.00    +0.000 N 
ATOM      4  H   UNL     1      46.730   5.354  14.604  0.00  0.00    +0.000 HD
ENDROOT
BRANCH   1   9
ATOM      5  C   UNL     1      45.712   9.475  11.959  0.00  0.00    +0.000 A 
ATOM      6  N   UNL     1      46.697   8.948  12.710  0.00  0.00    +0.000 NA
ATOM      7  C   UNL     1      46.643   7.628  12.997  0.00  0.00    +0.000 A 
ATOM      8  C   UNL     1      45.599   6.839  12.500  0.00  0.00    +0.000 A 
ATOM      9  C   UNL     1      45.185   5.461  12.530  0.00  0.00    +0.000 A 
ATOM     10  C   UNL     1      43.988   5.409  11.821  0.00  0.00    +0.000 A 
ATOM     11  N   UNL     1      43.685   6.658  11.359  0.00  0.00    +0.000 N 
ATOM     12  C   UNL     1      44.654   7.530  11.755  0.00  0.00    +0.000 A 
ATOM     13  N   UNL     1      44.649   8.836  11.457  0.00  0.00    +0.000 NA
ATOM     14  H   UNL     1      42.879   6.918  10.808  0.00  0.00    +0.000 HD
BRANCH   5  16
ATOM     15  C   UNL     1      44.426  11.329  11.392  0.00  0.00    +0.000 C 
ATOM     16  O   UNL     1      45.717  10.831  11.709  0.00  0.00    +0.000 OA
ENDBRANCH   5  16
BRANCH   7  17
ATOM     17  O   UNL     1      47.608   7.065  13.809  0.00  0.00    +0.000 OA
ATOM     18  C   UNL     1      48.877   6.918  13.180  0.00  0.00    +0.000 C 
ENDBRANCH   7  17
ENDBRANCH   1   9
BRANCH   3  19
ATOM     19  C   UNL     1      47.258   3.307  14.811  0.00  0.00    +0.000 C 
BRANCH  19  20
ATOM     20  C   UNL     1      47.679   3.595  16.224  0.00  0.00    +0.000 A 
ATOM     21  C   UNL     1      48.701   2.838  16.804  0.00  0.00    +0.000 A 
ATOM     22  C   UNL     1      49.124   3.098  18.110  0.00  0.00    +0.000 A 
ATOM     23  C   UNL     1      48.520   4.107  18.863  0.00  0.00    +0.000 A 
ATOM     24  C   UNL     1      47.491   4.859  18.293  0.00  0.00    +0.000 A 
ATOM     25  C   UNL     1      47.073   4.604  16.981  0.00  0.00    +0.000 A 
BRANCH  23  26
ATOM     26  O   UNL     1      48.851   4.443  20.154  0.00  0.00    +0.000 OA
BRANCH  26  27
ATOM     27  C   UNL     1      50.152   5.008  20.304  0.00  0.00    +0.000 C 
BRANCH  27  28
ATOM     28  C   UNL     1      50.050   6.476  20.712  0.00  0.00    +0.000 C 
BRANCH  28  29
ATOM     29  C   UNL     1      49.239   7.366  19.788  0.00  0.00    +0.000 A 
ATOM     30  C   UNL     1      48.044   7.964  20.259  0.00  0.00    +0.000 A 
ATOM     31  C   UNL     1      47.323   8.887  19.502  0.00  0.00    +0.000 A 
ATOM     32  C   UNL     1      47.775   9.234  18.240  0.00  0.00    +0.000 A 
ATOM     33  C   UNL     1      48.928   8.636  17.739  0.00  0.00    +0.000 A 
ATOM     34  C   UNL     1      49.658   7.694  18.485  0.00  0.00    +0.000 A 
BRANCH  34  35
ATOM     35  O   UNL     1      50.785   7.281  17.826  0.00  0.00    +0.000 OA
ATOM     36  C   UNL     1      50.664   6.332  16.779  0.00  0.00    +0.000 C 
ENDBRANCH  34  35
ENDBRANCH  28  29
ENDBRANCH  27  28
ENDBRANCH  26  27
ENDBRANCH  23  26
ENDBRANCH  19  20
ENDBRANCH   3  19
TORSDOF 10
ENDMDL
