MODEL 1
REMARK VINA RESULT:    -8.462      0.000      0.000
REMARK INTER + INTRA:         -12.924
REMARK INTER:                 -11.925
REMARK INTRA:                  -0.998
REMARK UNBOUND:                -0.998
REMARK  Name = 
REMARK  9 active torsions:
REMARK  status: ('A' for Active; 'I' for Inactive)
REMARK    1  A    between atoms: C_1  and  C_2
REMARK    2  A    between atoms: C_8  and  C_9
REMARK    3  A    between atoms: N_11  and  C_12
REMARK    4  A    between atoms: C_12  and  C_13
REMARK    5  A    between atoms: C_16  and  N_17
REMARK    6  A    between atoms: N_17  and  C_18
REMARK    7  A    between atoms: C_18  and  C_19
REMARK    8  A    between atoms: C_19  and  C_20
REMARK    9  A    between atoms: C_29  and  C_30
REMARK                            x       y       z     vdW  Elec       q    Type
REMARK                         _______ _______ _______ _____ _____    ______ ____
ROOT
ATOM      1  C   UNL     1      47.871   6.641  13.786  0.00  0.00    +0.000 C 
ENDROOT
BRANCH   1   2
ATOM      2  C   UNL     1      46.942   5.871  12.906  0.00  0.00    +0.000 A 
ATOM      3  C   UNL     1      46.433   4.642  13.318  0.00  0.00    +0.000 A 
ATOM      4  C   UNL     1      45.481   3.974  12.547  0.00  0.00    +0.000 A 
ATOM      5  C   UNL     1      44.999   4.522  11.350  0.00  0.00    +0.000 A 
ATOM      6  C   UNL     1      45.578   5.710  10.897  0.00  0.00    +0.000 A 
ATOM      7  C   UNL     1      46.525   6.393  11.672  0.00  0.00    +0.000 A 
BRANCH   5   8
ATOM      8  N   UNL     1      43.979   3.939  10.581  0.00  0.00    +0.000 N 
ATOM      9  H   UNL     1      43.100   4.445  10.679  0.00  0.00    +0.000 HD
BRANCH   8  10
ATOM     10  C   UNL     1      44.338   3.549   9.217  0.00  0.00    +0.000 C 
BRANCH  10  11
ATOM     11  C   UNL     1      45.255   2.326   9.199  0.00  0.00    +0.000 C 
BRANCH  11  12
ATOM     12  C   UNL     1      46.135   2.323   7.974  0.00  0.00    +0.000 A 
ATOM     13  C   UNL     1      46.142   3.386   7.068  0.00  0.00    +0.000 A 
ATOM     14  C   UNL     1      46.963   3.329   5.942  0.00  0.00    +0.000 A 
ATOM     15  C   UNL     1      47.744   2.198   5.755  0.00  0.00    +0.000 A 
ATOM     16  N   UNL     1      47.747   1.145   6.594  0.00  0.00    +0.000 NA
ATOM     17  C   UNL     1      46.947   1.228   7.682  0.00  0.00    +0.000 A 
ENDBRANCH  11  12
ENDBRANCH  10  11
ENDBRANCH   8  10
ENDBRANCH   5   8
ENDBRANCH   1   2
BRANCH   1  20
ATOM     18  C   UNL     1      48.945   6.260  15.927  0.00  0.00    +0.000 C 
ATOM     19  O   UNL     1      50.034   6.581  15.452  0.00  0.00    +0.000 OA
ATOM     20  N   UNL     1      47.786   6.283  15.176  0.00  0.00    +0.000 N 
ATOM     21  H   UNL     1      46.894   6.173  15.642  0.00  0.00    +0.000 HD
BRANCH  18  29
ATOM     22  C   UNL     1      47.110   9.786  20.307  0.00  0.00    +0.000 C 
ATOM     23  C   UNL     1      47.573   8.459  19.790  0.00  0.00    +0.000 A 
ATOM     24  S   UNL     1      47.684   7.133  20.845  0.00  0.00    +0.000 S 
ATOM     25  C   UNL     1      48.231   6.112  19.604  0.00  0.00    +0.000 A 
ATOM     26  N   UNL     1      48.508   4.831  19.901  0.00  0.00    +0.000 NA
ATOM     27  C   UNL     1      48.952   4.134  18.860  0.00  0.00    +0.000 A 
ATOM     28  N   UNL     1      49.139   4.582  17.619  0.00  0.00    +0.000 NA
ATOM     29  C   UNL     1      48.800   5.877  17.349  0.00  0.00    +0.000 A 
ATOM     30  C   UNL     1      48.337   6.738  18.365  0.00  0.00    +0.000 A 
ATOM     31  C   UNL     1      47.948   8.147  18.488  0.00  0.00    +0.000 A 
ATOM     32  C   UNL     1      47.921   9.220  17.439  0.00  0.00    +0.000 C 
ENDBRANCH  18  29
ENDBRANCH   1  20
TORSDOF 7
ENDMDL
MODEL 2
REMARK VINA RESULT:    -8.045      1.874      2.779
REMARK INTER + INTRA:         -12.336
REMARK INTER:                 -11.005
REMARK INTRA:                  -1.331
REMARK UNBOUND:                -0.998
REMARK  Name = 
REMARK  9 active torsions:
REMARK  status: ('A' for Active; 'I' for Inactive)
REMARK    1  A    between atoms: C_1  and  C_2
REMARK    2  A    between atoms: C_8  and  C_9
REMARK    3  A    between atoms: N_11  and  C_12
REMARK    4  A    between atoms: C_12  and  C_13
REMARK    5  A    between atoms: C_16  and  N_17
REMARK    6  A    between atoms: N_17  and  C_18
REMARK    7  A    between atoms: C_18  and  C_19
REMARK    8  A    between atoms: C_19  and  C_20
REMARK    9  A    between atoms: C_29  and  C_30
REMARK                            x       y       z     vdW  Elec       q    Type
REMARK                         _______ _______ _______ _____ _____    ______ ____
ROOT
ATOM      1  C   UNL     1      47.253   8.544  13.091  0.00  0.00    +0.000 C 
ENDROOT
BRANCH   1   2
ATOM      2  C   UNL     1      46.397   7.514  12.431  0.00  0.00    +0.000 A 
ATOM      3  C   UNL     1      46.866   6.805  11.328  0.00  0.00    +0.000 A 
ATOM      4  C   UNL     1      46.111   5.768  10.778  0.00  0.00    +0.000 A 
ATOM      5  C   UNL     1      44.874   5.399  11.324  0.00  0.00    +0.000 A 
ATOM      6  C   UNL     1      44.368   6.171  12.373  0.00  0.00    +0.000 A 
ATOM      7  C   UNL     1      45.126   7.206  12.939  0.00  0.00    +0.000 A 
BRANCH   5   8
ATOM      8  N   UNL     1      44.115   4.309  10.869  0.00  0.00    +0.000 N 
ATOM      9  H   UNL     1      43.165   4.335  11.236  0.00  0.00    +0.000 HD
BRANCH   8  10
ATOM     10  C   UNL     1      44.238   3.982   9.448  0.00  0.00    +0.000 C 
BRANCH  10  11
ATOM     11  C   UNL     1      44.640   2.522   9.234  0.00  0.00    +0.000 C 
BRANCH  11  12
ATOM     12  C   UNL     1      45.677   2.397   8.147  0.00  0.00    +0.000 A 
ATOM     13  C   UNL     1      45.885   3.407   7.205  0.00  0.00    +0.000 A 
ATOM     14  C   UNL     1      46.847   3.237   6.209  0.00  0.00    +0.000 A 
ATOM     15  C   UNL     1      47.562   2.049   6.183  0.00  0.00    +0.000 A 
ATOM     16  N   UNL     1      47.375   1.044   7.060  0.00  0.00    +0.000 NA
ATOM     17  C   UNL     1      46.440   1.237   8.019  0.00  0.00    +0.000 A 
ENDBRANCH  11  12
ENDBRANCH  10  11
ENDBRANCH   8  10
ENDBRANCH   5   8
ENDBRANCH   1   2
BRANCH   1  20
ATOM     18  C   UNL     1      48.868   7.670  14.677  0.00  0.00    +0.000 C 
ATOM     19  O   UNL     1      49.685   7.503  13.771  0.00  0.00    +0.000 OA
ATOM     20  N   UNL     1      47.620   8.215  14.442  0.00  0.00    +0.000 N 
ATOM     21  H   UNL     1      47.045   8.487  15.230  0.00  0.00    +0.000 HD
BRANCH  18  29
ATOM     22  C   UNL     1      47.227   2.781  17.573  0.00  0.00    +0.000 C 
ATOM     23  C   UNL     1      47.944   4.094  17.504  0.00  0.00    +0.000 A 
ATOM     24  S   UNL     1      48.821   4.648  18.848  0.00  0.00    +0.000 S 
ATOM     25  C   UNL     1      49.285   6.066  18.039  0.00  0.00    +0.000 A 
ATOM     26  N   UNL     1      50.055   6.955  18.690  0.00  0.00    +0.000 NA
ATOM     27  C   UNL     1      50.334   8.036  17.970  0.00  0.00    +0.000 A 
ATOM     28  N   UNL     1      49.929   8.295  16.726  0.00  0.00    +0.000 NA
ATOM     29  C   UNL     1      49.189   7.343  16.084  0.00  0.00    +0.000 A 
ATOM     30  C   UNL     1      48.800   6.156  16.737  0.00  0.00    +0.000 A 
ATOM     31  C   UNL     1      47.990   4.973  16.429  0.00  0.00    +0.000 A 
ATOM     32  C   UNL     1      47.247   4.633  15.170  0.00  0.00    +0.000 C 
ENDBRANCH  18  29
ENDBRANCH   1  20
TORSDOF 7
ENDMDL
MODEL 3
REMARK VINA RESULT:    -7.512      1.626      2.316
REMARK INTER + INTRA:         -11.585
REMARK INTER:                 -10.467
REMARK INTRA:                  -1.118
REMARK UNBOUND:                -0.998
REMARK  Name = 
REMARK  9 active torsions:
REMARK  status: ('A' for Active; 'I' for Inactive)
REMARK    1  A    between atoms: C_1  and  C_2
REMARK    2  A    between atoms: C_8  and  C_9
REMARK    3  A    between atoms: N_11  and  C_12
REMARK    4  A    between atoms: C_12  and  C_13
REMARK    5  A    between atoms: C_16  and  N_17
REMARK    6  A    between atoms: N_17  and  C_18
REMARK    7  A    between atoms: C_18  and  C_19
REMARK    8  A    between atoms: C_19  and  C_20
REMARK    9  A    between atoms: C_29  and  C_30
REMARK                            x       y       z     vdW  Elec       q    Type
REMARK                         _______ _______ _______ _____ _____    ______ ____
ROOT
ATOM      1  C   UNL     1      47.360   3.918  15.516  0.00  0.00    +0.000 C 
ENDROOT
BRANCH   1   2
ATOM      2  C   UNL     1      46.791   4.243  14.175  0.00  0.00    +0.000 A 
ATOM      3  C   UNL     1      46.299   3.235  13.350  0.00  0.00    +0.000 A 
ATOM      4  C   UNL     1      45.669   3.547  12.145  0.00  0.00    +0.000 A 
ATOM      5  C   UNL     1      45.499   4.877  11.736  0.00  0.00    +0.000 A 
ATOM      6  C   UNL     1      46.073   5.879  12.522  0.00  0.00    +0.000 A 
ATOM      7  C   UNL     1      46.696   5.574  13.740  0.00  0.00    +0.000 A 
BRANCH   5   8
ATOM      8  N   UNL     1      44.795   5.253  10.580  0.00  0.00    +0.000 N 
ATOM      9  H   UNL     1      45.325   5.918  10.019  0.00  0.00    +0.000 HD
BRANCH   8  10
ATOM     10  C   UNL     1      44.144   4.174   9.837  0.00  0.00    +0.000 C 
BRANCH  10  11
ATOM     11  C   UNL     1      44.454   4.246   8.342  0.00  0.00    +0.000 C 
BRANCH  11  12
ATOM     12  C   UNL     1      45.457   3.192   7.943  0.00  0.00    +0.000 A 
ATOM     13  C   UNL     1      46.389   3.407   6.925  0.00  0.00    +0.000 A 
ATOM     14  C   UNL     1      47.285   2.395   6.583  0.00  0.00    +0.000 A 
ATOM     15  C   UNL     1      47.208   1.191   7.265  0.00  0.00    +0.000 A 
ATOM     16  N   UNL     1      46.310   0.938   8.236  0.00  0.00    +0.000 NA
ATOM     17  C   UNL     1      45.456   1.938   8.554  0.00  0.00    +0.000 A 
ENDBRANCH  11  12
ENDBRANCH  10  11
ENDBRANCH   8  10
ENDBRANCH   5   8
ENDBRANCH   1   2
BRANCH   1  20
ATOM     18  C   UNL     1      48.259   5.116  17.424  0.00  0.00    +0.000 C 
ATOM     19  O   UNL     1      49.224   4.354  17.463  0.00  0.00    +0.000 OA
ATOM     20  N   UNL     1      47.274   4.998  16.461  0.00  0.00    +0.000 N 
ATOM     21  H   UNL     1      46.590   5.737  16.362  0.00  0.00    +0.000 HD
BRANCH  18  29
ATOM     22  C   UNL     1      48.967  10.851  16.161  0.00  0.00    +0.000 C 
ATOM     23  C   UNL     1      48.642   9.742  17.113  0.00  0.00    +0.000 A 
ATOM     24  S   UNL     1      48.207  10.103  18.714  0.00  0.00    +0.000 S 
ATOM     25  C   UNL     1      48.018   8.461  19.099  0.00  0.00    +0.000 A 
ATOM     26  N   UNL     1      47.654   8.132  20.350  0.00  0.00    +0.000 NA
ATOM     27  C   UNL     1      47.563   6.821  20.544  0.00  0.00    +0.000 A 
ATOM     28  N   UNL     1      47.796   5.862  19.647  0.00  0.00    +0.000 NA
ATOM     29  C   UNL     1      48.116   6.241  18.376  0.00  0.00    +0.000 A 
ATOM     30  C   UNL     1      48.270   7.600  18.034  0.00  0.00    +0.000 A 
ATOM     31  C   UNL     1      48.651   8.377  16.850  0.00  0.00    +0.000 A 
ATOM     32  C   UNL     1      49.035   7.895  15.481  0.00  0.00    +0.000 C 
ENDBRANCH  18  29
ENDBRANCH   1  20
TORSDOF 7
ENDMDL
MODEL 4
REMARK VINA RESULT:    -7.494      1.835      2.376
REMARK INTER + INTRA:         -11.559
REMARK INTER:                 -10.692
REMARK INTRA:                  -0.867
REMARK UNBOUND:                -0.998
REMARK  Name = 
REMARK  9 active torsions:
REMARK  status: ('A' for Active; 'I' for Inactive)
REMARK    1  A    between atoms: C_1  and  C_2
REMARK    2  A    between atoms: C_8  and  C_9
REMARK    3  A    between atoms: N_11  and  C_12
REMARK    4  A    between atoms: C_12  and  C_13
REMARK    5  A    between atoms: C_16  and  N_17
REMARK    6  A    between atoms: N_17  and  C_18
REMARK    7  A    between atoms: C_18  and  C_19
REMARK    8  A    between atoms: C_19  and  C_20
REMARK    9  A    between atoms: C_29  and  C_30
REMARK                            x       y       z     vdW  Elec       q    Type
REMARK                         _______ _______ _______ _____ _____    ______ ____
ROOT
ATOM      1  C   UNL     1      47.604   4.548  15.605  0.00  0.00    +0.000 C 
ENDROOT
BRANCH   1   2
ATOM      2  C   UNL     1      46.956   4.692  14.267  0.00  0.00    +0.000 A 
ATOM      3  C   UNL     1      46.344   3.601  13.655  0.00  0.00    +0.000 A 
ATOM      4  C   UNL     1      45.645   3.759  12.458  0.00  0.00    +0.000 A 
ATOM      5  C   UNL     1      45.523   5.014  11.846  0.00  0.00    +0.000 A 
ATOM      6  C   UNL     1      46.213   6.087  12.416  0.00  0.00    +0.000 A 
ATOM      7  C   UNL     1      46.907   5.939  13.625  0.00  0.00    +0.000 A 
BRANCH   5   8
ATOM      8  N   UNL     1      44.758   5.248  10.692  0.00  0.00    +0.000 N 
ATOM      9  H   UNL     1      45.181   5.960  10.100  0.00  0.00    +0.000 HD
BRANCH   8  10
ATOM     10  C   UNL     1      44.255   4.062   9.997  0.00  0.00    +0.000 C 
BRANCH  10  11
ATOM     11  C   UNL     1      44.494   4.145   8.489  0.00  0.00    +0.000 C 
BRANCH  11  12
ATOM     12  C   UNL     1      45.534   3.145   8.047  0.00  0.00    +0.000 A 
ATOM     13  C   UNL     1      46.516   3.467   7.108  0.00  0.00    +0.000 A 
ATOM     14  C   UNL     1      47.446   2.502   6.720  0.00  0.00    +0.000 A 
ATOM     15  C   UNL     1      47.352   1.238   7.281  0.00  0.00    +0.000 A 
ATOM     16  N   UNL     1      46.407   0.884   8.172  0.00  0.00    +0.000 NA
ATOM     17  C   UNL     1      45.521   1.839   8.536  0.00  0.00    +0.000 A 
ENDBRANCH  11  12
ENDBRANCH  10  11
ENDBRANCH   8  10
ENDBRANCH   5   8
ENDBRANCH   1   2
BRANCH   1  20
ATOM     18  C   UNL     1      49.261   5.853  16.804  0.00  0.00    +0.000 C 
ATOM     19  O   UNL     1      50.019   4.884  16.834  0.00  0.00    +0.000 OA
ATOM     20  N   UNL     1      48.027   5.794  16.183  0.00  0.00    +0.000 N 
ATOM     21  H   UNL     1      47.508   6.652  16.037  0.00  0.00    +0.000 HD
BRANCH  18  29
ATOM     22  C   UNL     1      47.261   8.095  21.899  0.00  0.00    +0.000 C 
ATOM     23  C   UNL     1      48.123   8.166  20.676  0.00  0.00    +0.000 A 
ATOM     24  S   UNL     1      49.155   9.494  20.446  0.00  0.00    +0.000 S 
ATOM     25  C   UNL     1      49.726   8.875  18.972  0.00  0.00    +0.000 A 
ATOM     26  N   UNL     1      50.641   9.583  18.288  0.00  0.00    +0.000 NA
ATOM     27  C   UNL     1      50.994   9.016  17.140  0.00  0.00    +0.000 A 
ATOM     28  N   UNL     1      50.534   7.869  16.639  0.00  0.00    +0.000 NA
ATOM     29  C   UNL     1      49.641   7.158  17.389  0.00  0.00    +0.000 A 
ATOM     30  C   UNL     1      49.161   7.652  18.619  0.00  0.00    +0.000 A 
ATOM     31  C   UNL     1      48.196   7.239  19.643  0.00  0.00    +0.000 A 
ATOM     32  C   UNL     1      47.328   6.015  19.691  0.00  0.00    +0.000 C 
ENDBRANCH  18  29
ENDBRANCH   1  20
TORSDOF 7
ENDMDL
MODEL 5
REMARK VINA RESULT:    -7.303      1.506      2.708
REMARK INTER + INTRA:         -11.291
REMARK INTER:                 -10.403
REMARK INTRA:                  -0.888
REMARK UNBOUND:                -0.998
REMARK  Name = 
REMARK  9 active torsions:
REMARK  status: ('A' for Active; 'I' for Inactive)
REMARK    1  A    between atoms: C_1  and  C_2
REMARK    2  A    between atoms: C_8  and  C_9
REMARK    3  A    between atoms: N_11  and  C_12
REMARK    4  A    between atoms: C_12  and  C_13
REMARK    5  A    between atoms: C_16  and  N_17
REMARK    6  A    between atoms: N_17  and  C_18
REMARK    7  A    between atoms: C_18  and  C_19
REMARK    8  A    between atoms: C_19  and  C_20
REMARK    9  A    between atoms: C_29  and  C_30
REMARK                            x       y       z     vdW  Elec       q    Type
REMARK                         _______ _______ _______ _____ _____    ______ ____
ROOT
ATOM      1  C   UNL     1      48.198   6.614  13.572  0.00  0.00    +0.000 C 
ENDROOT
BRANCH   1   2
ATOM      2  C   UNL     1      46.967   6.119  12.888  0.00  0.00    +0.000 A 
ATOM      3  C   UNL     1      46.416   6.825  11.821  0.00  0.00    +0.000 A 
ATOM      4  C   UNL     1      45.332   6.308  11.112  0.00  0.00    +0.000 A 
ATOM      5  C   UNL     1      44.776   5.063  11.437  0.00  0.00    +0.000 A 
ATOM      6  C   UNL     1      45.273   4.401  12.562  0.00  0.00    +0.000 A 
ATOM      7  C   UNL     1      46.371   4.908  13.272  0.00  0.00    +0.000 A 
BRANCH   5   8
ATOM      8  N   UNL     1      43.745   4.454  10.704  0.00  0.00    +0.000 N 
ATOM      9  H   UNL     1      43.098   5.144  10.324  0.00  0.00    +0.000 HD
BRANCH   8  10
ATOM     10  C   UNL     1      44.144   3.386   9.787  0.00  0.00    +0.000 C 
BRANCH  10  11
ATOM     11  C   UNL     1      44.721   3.942   8.485  0.00  0.00    +0.000 C 
BRANCH  11  12
ATOM     12  C   UNL     1      45.787   3.030   7.929  0.00  0.00    +0.000 A 
ATOM     13  C   UNL     1      45.853   1.678   8.271  0.00  0.00    +0.000 A 
ATOM     14  C   UNL     1      46.867   0.879   7.741  0.00  0.00    +0.000 A 
ATOM     15  C   UNL     1      47.791   1.469   6.893  0.00  0.00    +0.000 A 
ATOM     16  N   UNL     1      47.772   2.773   6.557  0.00  0.00    +0.000 NA
ATOM     17  C   UNL     1      46.776   3.524   7.079  0.00  0.00    +0.000 A 
ENDBRANCH  11  12
ENDBRANCH  10  11
ENDBRANCH   8  10
ENDBRANCH   5   8
ENDBRANCH   1   2
BRANCH   1  20
ATOM     18  C   UNL     1      49.006   7.745  15.560  0.00  0.00    +0.000 C 
ATOM     19  O   UNL     1      50.117   7.877  15.049  0.00  0.00    +0.000 OA
ATOM     20  N   UNL     1      47.959   7.145  14.886  0.00  0.00    +0.000 N 
ATOM     21  H   UNL     1      47.025   7.202  15.274  0.00  0.00    +0.000 HD
BRANCH  18  29
ATOM     22  C   UNL     1      48.844   4.572  20.550  0.00  0.00    +0.000 C 
ATOM     23  C   UNL     1      48.735   5.869  19.808  0.00  0.00    +0.000 A 
ATOM     24  S   UNL     1      48.424   7.305  20.660  0.00  0.00    +0.000 S 
ATOM     25  C   UNL     1      48.447   8.228  19.235  0.00  0.00    +0.000 A 
ATOM     26  N   UNL     1      48.233   9.552  19.324  0.00  0.00    +0.000 NA
ATOM     27  C   UNL     1      48.248  10.167  18.146  0.00  0.00    +0.000 A 
ATOM     28  N   UNL     1      48.442   9.604  16.952  0.00  0.00    +0.000 NA
ATOM     29  C   UNL     1      48.704   8.265  16.913  0.00  0.00    +0.000 A 
ATOM     30  C   UNL     1      48.697   7.483  18.086  0.00  0.00    +0.000 A 
ATOM     31  C   UNL     1      48.860   6.069  18.439  0.00  0.00    +0.000 A 
ATOM     32  C   UNL     1      49.118   4.891  17.545  0.00  0.00    +0.000 C 
ENDBRANCH  18  29
ENDBRANCH   1  20
TORSDOF 7
ENDMDL
MODEL 6
REMARK VINA RESULT:    -7.182      2.886      3.717
REMARK INTER + INTRA:         -11.120
REMARK INTER:                  -9.650
REMARK INTRA:                  -1.470
REMARK UNBOUND:                -0.998
REMARK  Name = 
REMARK  9 active torsions:
REMARK  status: ('A' for Active; 'I' for Inactive)
REMARK    1  A    between atoms: C_1  and  C_2
REMARK    2  A    between atoms: C_8  and  C_9
REMARK    3  A    between atoms: N_11  and  C_12
REMARK    4  A    between atoms: C_12  and  C_13
REMARK    5  A    between atoms: C_16  and  N_17
REMARK    6  A    between atoms: N_17  and  C_18
REMARK    7  A    between atoms: C_18  and  C_19
REMARK    8  A    between atoms: C_19  and  C_20
REMARK    9  A    between atoms: C_29  and  C_30
REMARK                            x       y       z     vdW  Elec       q    Type
REMARK                         _______ _______ _______ _____ _____    ______ ____
ROOT
ATOM      1  C   UNL     1      49.256   8.036  12.816  0.00  0.00    +0.000 C 
ENDROOT
BRANCH   1   2
ATOM      2  C   UNL     1      47.860   7.527  12.672  0.00  0.00    +0.000 A 
ATOM      3  C   UNL     1      47.610   6.159  12.589  0.00  0.00    +0.000 A 
ATOM      4  C   UNL     1      46.301   5.677  12.564  0.00  0.00    +0.000 A 
ATOM      5  C   UNL     1      45.204   6.546  12.639  0.00  0.00    +0.000 A 
ATOM      6  C   UNL     1      45.459   7.920  12.631  0.00  0.00    +0.000 A 
ATOM      7  C   UNL     1      46.771   8.411  12.668  0.00  0.00    +0.000 A 
BRANCH   5   8
ATOM      8  N   UNL     1      43.870   6.114  12.708  0.00  0.00    +0.000 N 
ATOM      9  H   UNL     1      43.304   6.735  13.284  0.00  0.00    +0.000 HD
BRANCH   8  10
ATOM     10  C   UNL     1      43.260   5.686  11.449  0.00  0.00    +0.000 C 
BRANCH  10  11
ATOM     11  C   UNL     1      43.267   4.164  11.303  0.00  0.00    +0.000 C 
BRANCH  11  12
ATOM     12  C   UNL     1      44.130   3.731  10.144  0.00  0.00    +0.000 A 
ATOM     13  C   UNL     1      44.429   2.388   9.908  0.00  0.00    +0.000 A 
ATOM     14  C   UNL     1      45.244   2.040   8.831  0.00  0.00    +0.000 A 
ATOM     15  C   UNL     1      45.745   3.056   8.031  0.00  0.00    +0.000 A 
ATOM     16  N   UNL     1      45.497   4.363   8.241  0.00  0.00    +0.000 NA
ATOM     17  C   UNL     1      44.699   4.673   9.288  0.00  0.00    +0.000 A 
ENDBRANCH  11  12
ENDBRANCH  10  11
ENDBRANCH   8  10
ENDBRANCH   5   8
ENDBRANCH   1   2
BRANCH   1  20
ATOM     18  C   UNL     1      50.244   7.801  15.019  0.00  0.00    +0.000 C 
ATOM     19  O   UNL     1      49.713   8.850  15.382  0.00  0.00    +0.000 OA
ATOM     20  N   UNL     1      50.054   7.289  13.750  0.00  0.00    +0.000 N 
ATOM     21  H   UNL     1      50.371   6.349  13.545  0.00  0.00    +0.000 HD
BRANCH  18  29
ATOM     22  C   UNL     1      48.443   3.123  18.159  0.00  0.00    +0.000 C 
ATOM     23  C   UNL     1      49.504   4.083  17.713  0.00  0.00    +0.000 A 
ATOM     24  S   UNL     1      51.097   3.899  18.272  0.00  0.00    +0.000 S 
ATOM     25  C   UNL     1      51.627   5.251  17.393  0.00  0.00    +0.000 A 
ATOM     26  N   UNL     1      52.921   5.605  17.475  0.00  0.00    +0.000 NA
ATOM     27  C   UNL     1      53.215   6.690  16.768  0.00  0.00    +0.000 A 
ATOM     28  N   UNL     1      52.375   7.417  16.031  0.00  0.00    +0.000 NA
ATOM     29  C   UNL     1      51.080   6.994  15.936  0.00  0.00    +0.000 A 
ATOM     30  C   UNL     1      50.623   5.870  16.652  0.00  0.00    +0.000 A 
ATOM     31  C   UNL     1      49.352   5.167  16.857  0.00  0.00    +0.000 A 
ATOM     32  C   UNL     1      47.996   5.474  16.293  0.00  0.00    +0.000 C 
ENDBRANCH  18  29
ENDBRANCH   1  20
TORSDOF 7
ENDMDL
MODEL 7
REMARK VINA RESULT:    -6.693      3.414      4.560
REMARK INTER + INTRA:         -10.430
REMARK INTER:                  -9.525
REMARK INTRA:                  -0.905
REMARK UNBOUND:                -0.998
REMARK  Name = 
REMARK  9 active torsions:
REMARK  status: ('A' for Active; 'I' for Inactive)
REMARK    1  A    between atoms: C_1  and  C_2
REMARK    2  A    between atoms: C_8  and  C_9
REMARK    3  A    between atoms: N_11  and  C_12
REMARK    4  A    between atoms: C_12  and  C_13
REMARK    5  A    between atoms: C_16  and  N_17
REMARK    6  A    between atoms: N_17  and  C_18
REMARK    7  A    between atoms: C_18  and  C_19
REMARK    8  A    between atoms: C_19  and  C_20
REMARK    9  A    between atoms: C_29  and  C_30
REMARK                            x       y       z     vdW  Elec       q    Type
REMARK                         _______ _______ _______ _____ _____    ______ ____
ROOT
ATOM      1  C   UNL     1      45.878   8.658  12.965  0.00  0.00    +0.000 C 
ENDROOT
BRANCH   1   2
ATOM      2  C   UNL     1      45.453   7.383  12.317  0.00  0.00    +0.000 A 
ATOM      3  C   UNL     1      44.198   6.838  12.579  0.00  0.00    +0.000 A 
ATOM      4  C   UNL     1      43.757   5.707  11.892  0.00  0.00    +0.000 A 
ATOM      5  C   UNL     1      44.550   5.096  10.911  0.00  0.00    +0.000 A 
ATOM      6  C   UNL     1      45.842   5.591  10.716  0.00  0.00    +0.000 A 
ATOM      7  C   UNL     1      46.287   6.735  11.393  0.00  0.00    +0.000 A 
BRANCH   5   8
ATOM      8  N   UNL     1      44.123   4.012  10.127  0.00  0.00    +0.000 N 
ATOM      9  H   UNL     1      43.886   4.305   9.181  0.00  0.00    +0.000 HD
BRANCH   8  10
ATOM     10  C   UNL     1      44.913   2.785  10.232  0.00  0.00    +0.000 C 
BRANCH  10  11
ATOM     11  C   UNL     1      44.736   1.890   9.006  0.00  0.00    +0.000 C 
BRANCH  11  12
ATOM     12  C   UNL     1      45.844   2.110   8.006  0.00  0.00    +0.000 A 
ATOM     13  C   UNL     1      45.963   3.302   7.287  0.00  0.00    +0.000 A 
ATOM     14  C   UNL     1      46.997   3.451   6.362  0.00  0.00    +0.000 A 
ATOM     15  C   UNL     1      47.872   2.392   6.179  0.00  0.00    +0.000 A 
ATOM     16  N   UNL     1      47.777   1.221   6.838  0.00  0.00    +0.000 NA
ATOM     17  C   UNL     1      46.770   1.104   7.733  0.00  0.00    +0.000 A 
ENDBRANCH  11  12
ENDBRANCH  10  11
ENDBRANCH   8  10
ENDBRANCH   5   8
ENDBRANCH   1   2
BRANCH   1  20
ATOM     18  C   UNL     1      48.061   9.476  13.637  0.00  0.00    +0.000 C 
ATOM     19  O   UNL     1      47.946  10.439  12.879  0.00  0.00    +0.000 OA
ATOM     20  N   UNL     1      47.060   8.533  13.774  0.00  0.00    +0.000 N 
ATOM     21  H   UNL     1      47.122   7.853  14.522  0.00  0.00    +0.000 HD
BRANCH  18  29
ATOM     22  C   UNL     1      53.493   8.096  11.747  0.00  0.00    +0.000 C 
ATOM     23  C   UNL     1      52.523   8.436  12.837  0.00  0.00    +0.000 A 
ATOM     24  S   UNL     1      53.065   8.554  14.442  0.00  0.00    +0.000 S 
ATOM     25  C   UNL     1      51.508   8.932  15.004  0.00  0.00    +0.000 A 
ATOM     26  N   UNL     1      51.334   9.143  16.320  0.00  0.00    +0.000 NA
ATOM     27  C   UNL     1      50.073   9.404  16.649  0.00  0.00    +0.000 A 
ATOM     28  N   UNL     1      49.028   9.465  15.823  0.00  0.00    +0.000 NA
ATOM     29  C   UNL     1      49.258   9.294  14.488  0.00  0.00    +0.000 A 
ATOM     30  C   UNL     1      50.544   8.986  14.001  0.00  0.00    +0.000 A 
ATOM     31  C   UNL     1      51.161   8.679  12.706  0.00  0.00    +0.000 A 
ATOM     32  C   UNL     1      50.526   8.594  11.349  0.00  0.00    +0.000 C 
ENDBRANCH  18  29
ENDBRANCH   1  20
TORSDOF 7
ENDMDL
MODEL 8
REMARK VINA RESULT:    -6.675      4.322      9.277
REMARK INTER + INTRA:         -10.405
REMARK INTER:                  -8.711
REMARK INTRA:                  -1.694
REMARK UNBOUND:                -0.998
REMARK  Name = 
REMARK  9 active torsions:
REMARK  status: ('A' for Active; 'I' for Inactive)
REMARK    1  A    between atoms: C_1  and  C_2
REMARK    2  A    between atoms: C_8  and  C_9
REMARK    3  A    between atoms: N_11  and  C_12
REMARK    4  A    between atoms: C_12  and  C_13
REMARK    5  A    between atoms: C_16  and  N_17
REMARK    6  A    between atoms: N_17  and  C_18
REMARK    7  A    between atoms: C_18  and  C_19
REMARK    8  A    between atoms: C_19  and  C_20
REMARK    9  A    between atoms: C_29  and  C_30
REMARK                            x       y       z     vdW  Elec       q    Type
REMARK                         _______ _______ _______ _____ _____    ______ ____
ROOT
ATOM      1  C   UNL     1      47.607   3.547  16.533  0.00  0.00    +0.000 C 
ENDROOT
BRANCH   1   2
ATOM      2  C   UNL     1      48.307   4.367  17.566  0.00  0.00    +0.000 A 
ATOM      3  C   UNL     1      48.543   3.852  18.839  0.00  0.00    +0.000 A 
ATOM      4  C   UNL     1      49.292   4.574  19.769  0.00  0.00    +0.000 A 
ATOM      5  C   UNL     1      49.841   5.823  19.449  0.00  0.00    +0.000 A 
ATOM      6  C   UNL     1      49.526   6.375  18.204  0.00  0.00    +0.000 A 
ATOM      7  C   UNL     1      48.785   5.650  17.260  0.00  0.00    +0.000 A 
BRANCH   5   8
ATOM      8  N   UNL     1      50.675   6.552  20.312  0.00  0.00    +0.000 N 
ATOM      9  H   UNL     1      50.152   6.955  21.087  0.00  0.00    +0.000 HD
BRANCH   8  10
ATOM     10  C   UNL     1      51.949   5.924  20.665  0.00  0.00    +0.000 C 
BRANCH  10  11
ATOM     11  C   UNL     1      52.863   5.773  19.449  0.00  0.00    +0.000 C 
BRANCH  11  12
ATOM     12  C   UNL     1      53.046   4.321  19.083  0.00  0.00    +0.000 A 
ATOM     13  C   UNL     1      52.399   3.750  17.984  0.00  0.00    +0.000 A 
ATOM     14  C   UNL     1      52.589   2.398  17.696  0.00  0.00    +0.000 A 
ATOM     15  C   UNL     1      53.413   1.658  18.529  0.00  0.00    +0.000 A 
ATOM     16  N   UNL     1      54.036   2.168  19.609  0.00  0.00    +0.000 NA
ATOM     17  C   UNL     1      53.840   3.482  19.864  0.00  0.00    +0.000 A 
ENDBRANCH  11  12
ENDBRANCH  10  11
ENDBRANCH   8  10
ENDBRANCH   5   8
ENDBRANCH   1   2
BRANCH   1  20
ATOM     18  C   UNL     1      46.657   4.076  14.365  0.00  0.00    +0.000 C 
ATOM     19  O   UNL     1      47.374   3.230  13.831  0.00  0.00    +0.000 OA
ATOM     20  N   UNL     1      46.679   4.295  15.729  0.00  0.00    +0.000 N 
ATOM     21  H   UNL     1      45.963   4.877  16.146  0.00  0.00    +0.000 HD
BRANCH  18  29
ATOM     22  C   UNL     1      47.535   9.555  12.318  0.00  0.00    +0.000 C 
ATOM     23  C   UNL     1      46.695   8.324  12.472  0.00  0.00    +0.000 A 
ATOM     24  S   UNL     1      45.165   8.250  11.740  0.00  0.00    +0.000 S 
ATOM     25  C   UNL     1      44.888   6.684  12.336  0.00  0.00    +0.000 A 
ATOM     26  N   UNL     1      43.723   6.081  12.042  0.00  0.00    +0.000 NA
ATOM     27  C   UNL     1      43.606   4.873  12.582  0.00  0.00    +0.000 A 
ATOM     28  N   UNL     1      44.499   4.251  13.352  0.00  0.00    +0.000 NA
ATOM     29  C   UNL     1      45.688   4.879  13.585  0.00  0.00    +0.000 A 
ATOM     30  C   UNL     1      45.940   6.175  13.093  0.00  0.00    +0.000 A 
ATOM     31  C   UNL     1      47.015   7.169  13.176  0.00  0.00    +0.000 A 
ATOM     32  C   UNL     1      48.330   7.088  13.896  0.00  0.00    +0.000 C 
ENDBRANCH  18  29
ENDBRANCH   1  20
TORSDOF 7
ENDMDL
MODEL 9
REMARK VINA RESULT:    -6.636      4.054      9.152
REMARK INTER + INTRA:         -10.350
REMARK INTER:                  -8.649
REMARK INTRA:                  -1.701
REMARK UNBOUND:                -0.998
REMARK  Name = 
REMARK  9 active torsions:
REMARK  status: ('A' for Active; 'I' for Inactive)
REMARK    1  A    between atoms: C_1  and  C_2
REMARK    2  A    between atoms: C_8  and  C_9
REMARK    3  A    between atoms: N_11  and  C_12
REMARK    4  A    between atoms: C_12  and  C_13
REMARK    5  A    between atoms: C_16  and  N_17
REMARK    6  A    between atoms: N_17  and  C_18
REMARK    7  A    between atoms: C_18  and  C_19
REMARK    8  A    between atoms: C_19  and  C_20
REMARK    9  A    between atoms: C_29  and  C_30
REMARK                            x       y       z     vdW  Elec       q    Type
REMARK                         _______ _______ _______ _____ _____    ______ ____
ROOT
ATOM      1  C   UNL     1      47.681   3.563  16.448  0.00  0.00    +0.000 C 
ENDROOT
BRANCH   1   2
ATOM      2  C   UNL     1      47.902   4.261  17.749  0.00  0.00    +0.000 A 
ATOM      3  C   UNL     1      49.045   4.006  18.504  0.00  0.00    +0.000 A 
ATOM      4  C   UNL     1      49.307   4.736  19.664  0.00  0.00    +0.000 A 
ATOM      5  C   UNL     1      48.443   5.752  20.095  0.00  0.00    +0.000 A 
ATOM      6  C   UNL     1      47.254   5.942  19.386  0.00  0.00    +0.000 A 
ATOM      7  C   UNL     1      46.990   5.221  18.212  0.00  0.00    +0.000 A 
BRANCH   5   8
ATOM      8  N   UNL     1      48.700   6.576  21.202  0.00  0.00    +0.000 N 
ATOM      9  H   UNL     1      49.400   6.167  21.819  0.00  0.00    +0.000 HD
BRANCH   8  10
ATOM     10  C   UNL     1      48.856   8.005  20.924  0.00  0.00    +0.000 C 
BRANCH  10  11
ATOM     11  C   UNL     1      50.071   8.281  20.039  0.00  0.00    +0.000 C 
BRANCH  11  12
ATOM     12  C   UNL     1      49.658   8.880  18.718  0.00  0.00    +0.000 A 
ATOM     13  C   UNL     1      48.315   9.062  18.378  0.00  0.00    +0.000 A 
ATOM     14  C   UNL     1      47.984   9.606  17.137  0.00  0.00    +0.000 A 
ATOM     15  C   UNL     1      49.013   9.939  16.270  0.00  0.00    +0.000 A 
ATOM     16  N   UNL     1      50.317   9.758  16.553  0.00  0.00    +0.000 NA
ATOM     17  C   UNL     1      50.612   9.234  17.765  0.00  0.00    +0.000 A 
ENDBRANCH  11  12
ENDBRANCH  10  11
ENDBRANCH   8  10
ENDBRANCH   5   8
ENDBRANCH   1   2
BRANCH   1  20
ATOM     18  C   UNL     1      46.797   4.090  14.251  0.00  0.00    +0.000 C 
ATOM     19  O   UNL     1      47.716   3.468  13.719  0.00  0.00    +0.000 OA
ATOM     20  N   UNL     1      46.673   4.175  15.625  0.00  0.00    +0.000 N 
ATOM     21  H   UNL     1      45.820   4.552  16.020  0.00  0.00    +0.000 HD
BRANCH  18  29
ATOM     22  C   UNL     1      46.928   9.625  12.170  0.00  0.00    +0.000 C 
ATOM     23  C   UNL     1      46.266   8.290  12.325  0.00  0.00    +0.000 A 
ATOM     24  S   UNL     1      44.772   7.997  11.574  0.00  0.00    +0.000 S 
ATOM     25  C   UNL     1      44.708   6.412  12.179  0.00  0.00    +0.000 A 
ATOM     26  N   UNL     1      43.643   5.651  11.876  0.00  0.00    +0.000 NA
ATOM     27  C   UNL     1      43.689   4.441  12.424  0.00  0.00    +0.000 A 
ATOM     28  N   UNL     1      44.650   3.955  13.210  0.00  0.00    +0.000 NA
ATOM     29  C   UNL     1      45.736   4.744  13.453  0.00  0.00    +0.000 A 
ATOM     30  C   UNL     1      45.811   6.060  12.954  0.00  0.00    +0.000 A 
ATOM     31  C   UNL     1      46.735   7.196  13.041  0.00  0.00    +0.000 A 
ATOM     32  C   UNL     1      48.039   7.304  13.778  0.00  0.00    +0.000 C 
ENDBRANCH  18  29
ENDBRANCH   1  20
TORSDOF 7
ENDMDL
