MODEL 1
REMARK VINA RESULT:    -7.420      0.000      0.000
REMARK INTER + INTRA:          -9.493
REMARK INTER:                  -9.155
REMARK INTRA:                  -0.338
REMARK UNBOUND:                -0.338
REMARK  Name = 
REMARK  4 active torsions:
REMARK  status: ('A' for Active; 'I' for Inactive)
REMARK    1  A    between atoms: C_5  and  C_6
REMARK    2  A    between atoms: C_6  and  O_7
REMARK    3  A    between atoms: O_7  and  C_8
REMARK    4  A    between atoms: C_13  and  C_14
REMARK                            x       y       z     vdW  Elec       q    Type
REMARK                         _______ _______ _______ _____ _____    ______ ____
ROOT
ATOM      1  C   UNL     1      46.665   4.442  13.984  0.00  0.00    +0.000 A 
ATOM      2  C   UNL     1      47.220   5.498  13.270  0.00  0.00    +0.000 A 
ATOM      3  C   UNL     1      48.112   6.356  13.903  0.00  0.00    +0.000 A 
ATOM      4  F   UNL     1      48.625   7.388  13.221  0.00  0.00    +0.000 F 
ATOM      5  C   UNL     1      48.469   6.174  15.240  0.00  0.00    +0.000 A 
ATOM      6  C   UNL     1      47.926   5.111  15.977  0.00  0.00    +0.000 A 
ATOM      7  C   UNL     1      47.001   4.274  15.326  0.00  0.00    +0.000 A 
ENDROOT
BRANCH   6   8
ATOM      8  C   UNL     1      48.276   4.936  17.455  0.00  0.00    +0.000 C 
ATOM      9  C   UNL     1      49.645   5.527  17.838  0.00  0.00    +0.000 C 
ATOM     10  C   UNL     1      50.812   4.621  17.446  0.00  0.00    +0.000 C 
ATOM     11  N   UNL     1      50.679   3.260  17.959  0.00  0.00    +0.000 NA
ATOM     12  C   UNL     1      49.414   2.640  17.581  0.00  0.00    +0.000 C 
ATOM     13  C   UNL     1      48.203   3.487  17.983  0.00  0.00    +0.000 C 
ATOM     14  H   UNL     1      50.743   3.279  18.980  0.00  0.00    +0.000 HD
ENDBRANCH   6   8
BRANCH   1  15
ATOM     15  O   UNL     1      45.773   3.645  13.310  0.00  0.00    +0.000 OA
BRANCH  15  16
ATOM     16  C   UNL     1      44.763   4.274  12.468  0.00  0.00    +0.000 C 
ATOM     17  C   UNL     1      43.376   4.167  13.095  0.00  0.00    +0.000 C 
ATOM     18  C   UNL     1      44.022   5.504  12.982  0.00  0.00    +0.000 C 
BRANCH  16  23
ATOM     19  F   UNL     1      45.448   3.231   6.967  0.00  0.00    +0.000 F 
ATOM     20  C   UNL     1      45.248   3.535   8.253  0.00  0.00    +0.000 A 
ATOM     21  C   UNL     1      45.552   4.794   8.737  0.00  0.00    +0.000 A 
ATOM     22  C   UNL     1      45.362   5.064  10.097  0.00  0.00    +0.000 A 
ATOM     23  C   UNL     1      44.870   4.064  10.951  0.00  0.00    +0.000 A 
ATOM     24  N   UNL     1      44.546   2.834  10.451  0.00  0.00    +0.000 NA
ATOM     25  C   UNL     1      44.752   2.593   9.132  0.00  0.00    +0.000 A 
ENDBRANCH  16  23
ENDBRANCH  15  16
ENDBRANCH   1  15
TORSDOF 4
ENDMDL
MODEL 2
REMARK VINA RESULT:    -7.346      2.426      3.799
REMARK INTER + INTRA:          -9.402
REMARK INTER:                  -8.708
REMARK INTRA:                  -0.694
REMARK UNBOUND:                -0.338
REMARK  Name = 
REMARK  4 active torsions:
REMARK  status: ('A' for Active; 'I' for Inactive)
REMARK    1  A    between atoms: C_5  and  C_6
REMARK    2  A    between atoms: C_6  and  O_7
REMARK    3  A    between atoms: O_7  and  C_8
REMARK    4  A    between atoms: C_13  and  C_14
REMARK                            x       y       z     vdW  Elec       q    Type
REMARK                         _______ _______ _______ _____ _____    ______ ____
ROOT
ATOM      1  C   UNL     1      46.609   4.539  13.865  0.00  0.00    +0.000 A 
ATOM      2  C   UNL     1      46.898   4.313  15.205  0.00  0.00    +0.000 A 
ATOM      3  C   UNL     1      47.831   5.118  15.847  0.00  0.00    +0.000 A 
ATOM      4  F   UNL     1      48.128   4.882  17.132  0.00  0.00    +0.000 F 
ATOM      5  C   UNL     1      48.479   6.156  15.175  0.00  0.00    +0.000 A 
ATOM      6  C   UNL     1      48.197   6.406  13.823  0.00  0.00    +0.000 A 
ATOM      7  C   UNL     1      47.272   5.558  13.185  0.00  0.00    +0.000 A 
ENDROOT
BRANCH   6   8
ATOM      8  C   UNL     1      48.939   7.509  13.069  0.00  0.00    +0.000 C 
ATOM      9  C   UNL     1      49.530   8.593  13.988  0.00  0.00    +0.000 C 
ATOM     10  C   UNL     1      48.485   9.605  14.458  0.00  0.00    +0.000 C 
ATOM     11  N   UNL     1      47.742  10.214  13.358  0.00  0.00    +0.000 NA
ATOM     12  C   UNL     1      47.123   9.224  12.484  0.00  0.00    +0.000 C 
ATOM     13  C   UNL     1      48.131   8.202  11.950  0.00  0.00    +0.000 C 
ATOM     14  H   UNL     1      48.379  10.791  12.803  0.00  0.00    +0.000 HD
ENDBRANCH   6   8
BRANCH   1  15
ATOM     15  O   UNL     1      45.696   3.695  13.281  0.00  0.00    +0.000 OA
BRANCH  15  16
ATOM     16  C   UNL     1      44.685   4.257  12.394  0.00  0.00    +0.000 C 
ATOM     17  C   UNL     1      43.283   4.078  12.970  0.00  0.00    +0.000 C 
ATOM     18  C   UNL     1      43.858   5.449  12.863  0.00  0.00    +0.000 C 
BRANCH  16  23
ATOM     19  F   UNL     1      45.620   3.176   6.937  0.00  0.00    +0.000 F 
ATOM     20  C   UNL     1      45.361   3.489   8.211  0.00  0.00    +0.000 A 
ATOM     21  C   UNL     1      45.639   4.752   8.697  0.00  0.00    +0.000 A 
ATOM     22  C   UNL     1      45.387   5.031  10.046  0.00  0.00    +0.000 A 
ATOM     23  C   UNL     1      44.860   4.036  10.884  0.00  0.00    +0.000 A 
ATOM     24  N   UNL     1      44.563   2.801  10.379  0.00  0.00    +0.000 NA
ATOM     25  C   UNL     1      44.828   2.551   9.073  0.00  0.00    +0.000 A 
ENDBRANCH  16  23
ENDBRANCH  15  16
ENDBRANCH   1  15
TORSDOF 4
ENDMDL
MODEL 3
REMARK VINA RESULT:    -6.759      2.428      7.420
REMARK INTER + INTRA:          -8.678
REMARK INTER:                  -8.164
REMARK INTRA:                  -0.514
REMARK UNBOUND:                -0.338
REMARK  Name = 
REMARK  4 active torsions:
REMARK  status: ('A' for Active; 'I' for Inactive)
REMARK    1  A    between atoms: C_5  and  C_6
REMARK    2  A    between atoms: C_6  and  O_7
REMARK    3  A    between atoms: O_7  and  C_8
REMARK    4  A    between atoms: C_13  and  C_14
REMARK                            x       y       z     vdW  Elec       q    Type
REMARK                         _______ _______ _______ _____ _____    ______ ____
ROOT
ATOM      1  C   UNL     1      47.829   6.554  13.750  0.00  0.00    +0.000 A 
ATOM      2  C   UNL     1      47.428   7.747  13.160  0.00  0.00    +0.000 A 
ATOM      3  C   UNL     1      46.157   7.840  12.605  0.00  0.00    +0.000 A 
ATOM      4  F   UNL     1      45.782   8.982  12.015  0.00  0.00    +0.000 F 
ATOM      5  C   UNL     1      45.271   6.762  12.635  0.00  0.00    +0.000 A 
ATOM      6  C   UNL     1      45.653   5.550  13.230  0.00  0.00    +0.000 A 
ATOM      7  C   UNL     1      46.956   5.468  13.758  0.00  0.00    +0.000 A 
ENDROOT
BRANCH   6   8
ATOM      8  C   UNL     1      44.706   4.351  13.221  0.00  0.00    +0.000 C 
ATOM      9  C   UNL     1      45.099   3.262  12.206  0.00  0.00    +0.000 C 
ATOM     10  C   UNL     1      44.688   3.610  10.776  0.00  0.00    +0.000 C 
ATOM     11  N   UNL     1      43.270   3.940  10.651  0.00  0.00    +0.000 NA
ATOM     12  C   UNL     1      42.859   5.002  11.562  0.00  0.00    +0.000 C 
ATOM     13  C   UNL     1      43.213   4.692  13.020  0.00  0.00    +0.000 C 
ATOM     14  H   UNL     1      42.713   3.104  10.848  0.00  0.00    +0.000 HD
ENDBRANCH   6   8
BRANCH   1  15
ATOM     15  O   UNL     1      49.104   6.516  14.259  0.00  0.00    +0.000 OA
BRANCH  15  16
ATOM     16  C   UNL     1      49.320   6.914  15.645  0.00  0.00    +0.000 C 
ATOM     17  C   UNL     1      50.566   7.782  15.783  0.00  0.00    +0.000 C 
ATOM     18  C   UNL     1      49.226   8.388  16.024  0.00  0.00    +0.000 C 
BRANCH  16  23
ATOM     19  F   UNL     1      48.254   2.801  19.357  0.00  0.00    +0.000 F 
ATOM     20  C   UNL     1      48.515   3.820  18.531  0.00  0.00    +0.000 A 
ATOM     21  C   UNL     1      47.815   5.007  18.632  0.00  0.00    +0.000 A 
ATOM     22  C   UNL     1      48.092   6.039  17.727  0.00  0.00    +0.000 A 
ATOM     23  C   UNL     1      49.069   5.861  16.735  0.00  0.00    +0.000 A 
ATOM     24  N   UNL     1      49.773   4.691  16.668  0.00  0.00    +0.000 NA
ATOM     25  C   UNL     1      49.477   3.702  17.548  0.00  0.00    +0.000 A 
ENDBRANCH  16  23
ENDBRANCH  15  16
ENDBRANCH   1  15
TORSDOF 4
ENDMDL
MODEL 4
REMARK VINA RESULT:    -6.640      1.299      2.023
REMARK INTER + INTRA:          -8.531
REMARK INTER:                  -8.577
REMARK INTRA:                   0.046
REMARK UNBOUND:                -0.338
REMARK  Name = 
REMARK  4 active torsions:
REMARK  status: ('A' for Active; 'I' for Inactive)
REMARK    1  A    between atoms: C_5  and  C_6
REMARK    2  A    between atoms: C_6  and  O_7
REMARK    3  A    between atoms: O_7  and  C_8
REMARK    4  A    between atoms: C_13  and  C_14
REMARK                            x       y       z     vdW  Elec       q    Type
REMARK                         _______ _______ _______ _____ _____    ______ ____
ROOT
ATOM      1  C   UNL     1      46.537   4.594  14.098  0.00  0.00    +0.000 A 
ATOM      2  C   UNL     1      46.950   5.710  13.380  0.00  0.00    +0.000 A 
ATOM      3  C   UNL     1      47.938   6.533  13.907  0.00  0.00    +0.000 A 
ATOM      4  F   UNL     1      48.316   7.622  13.225  0.00  0.00    +0.000 F 
ATOM      5  C   UNL     1      48.530   6.259  15.140  0.00  0.00    +0.000 A 
ATOM      6  C   UNL     1      48.132   5.134  15.879  0.00  0.00    +0.000 A 
ATOM      7  C   UNL     1      47.108   4.332  15.341  0.00  0.00    +0.000 A 
ENDROOT
BRANCH   6   8
ATOM      8  C   UNL     1      48.741   4.856  17.253  0.00  0.00    +0.000 C 
ATOM      9  C   UNL     1      47.695   4.582  18.348  0.00  0.00    +0.000 C 
ATOM     10  C   UNL     1      47.049   5.859  18.883  0.00  0.00    +0.000 C 
ATOM     11  N   UNL     1      48.025   6.846  19.341  0.00  0.00    +0.000 NA
ATOM     12  C   UNL     1      49.012   7.174  18.319  0.00  0.00    +0.000 C 
ATOM     13  C   UNL     1      49.721   5.932  17.770  0.00  0.00    +0.000 C 
ATOM     14  H   UNL     1      48.511   6.479  20.163  0.00  0.00    +0.000 HD
ENDBRANCH   6   8
BRANCH   1  15
ATOM     15  O   UNL     1      45.541   3.834  13.535  0.00  0.00    +0.000 OA
BRANCH  15  16
ATOM     16  C   UNL     1      44.669   4.442  12.538  0.00  0.00    +0.000 C 
ATOM     17  C   UNL     1      43.223   4.488  13.022  0.00  0.00    +0.000 C 
ATOM     18  C   UNL     1      43.977   5.763  12.856  0.00  0.00    +0.000 C 
BRANCH  16  23
ATOM     19  F   UNL     1      45.253   3.361   7.032  0.00  0.00    +0.000 F 
ATOM     20  C   UNL     1      45.155   3.561   8.350  0.00  0.00    +0.000 A 
ATOM     21  C   UNL     1      44.729   2.547   9.187  0.00  0.00    +0.000 A 
ATOM     22  C   UNL     1      44.605   2.804  10.558  0.00  0.00    +0.000 A 
ATOM     23  C   UNL     1      44.909   4.077  11.065  0.00  0.00    +0.000 A 
ATOM     24  N   UNL     1      45.357   5.060  10.228  0.00  0.00    +0.000 NA
ATOM     25  C   UNL     1      45.457   4.789   8.902  0.00  0.00    +0.000 A 
ENDBRANCH  16  23
ENDBRANCH  15  16
ENDBRANCH   1  15
TORSDOF 4
ENDMDL
MODEL 5
REMARK VINA RESULT:    -6.299      3.422      7.736
REMARK INTER + INTRA:          -8.111
REMARK INTER:                  -7.662
REMARK INTRA:                  -0.449
REMARK UNBOUND:                -0.338
REMARK  Name = 
REMARK  4 active torsions:
REMARK  status: ('A' for Active; 'I' for Inactive)
REMARK    1  A    between atoms: C_5  and  C_6
REMARK    2  A    between atoms: C_6  and  O_7
REMARK    3  A    between atoms: O_7  and  C_8
REMARK    4  A    between atoms: C_13  and  C_14
REMARK                            x       y       z     vdW  Elec       q    Type
REMARK                         _______ _______ _______ _____ _____    ______ ____
ROOT
ATOM      1  C   UNL     1      47.505   6.566  12.280  0.00  0.00    +0.000 A 
ATOM      2  C   UNL     1      47.587   5.907  13.501  0.00  0.00    +0.000 A 
ATOM      3  C   UNL     1      46.625   4.960  13.831  0.00  0.00    +0.000 A 
ATOM      4  F   UNL     1      46.691   4.344  15.019  0.00  0.00    +0.000 F 
ATOM      5  C   UNL     1      45.581   4.651  12.958  0.00  0.00    +0.000 A 
ATOM      6  C   UNL     1      45.482   5.301  11.717  0.00  0.00    +0.000 A 
ATOM      7  C   UNL     1      46.450   6.278  11.418  0.00  0.00    +0.000 A 
ENDROOT
BRANCH   6   8
ATOM      8  C   UNL     1      44.314   5.002  10.779  0.00  0.00    +0.000 C 
ATOM      9  C   UNL     1      43.158   4.243  11.456  0.00  0.00    +0.000 C 
ATOM     10  C   UNL     1      43.436   2.747  11.600  0.00  0.00    +0.000 C 
ATOM     11  N   UNL     1      43.800   2.108  10.338  0.00  0.00    +0.000 NA
ATOM     12  C   UNL     1      44.924   2.765   9.681  0.00  0.00    +0.000 C 
ATOM     13  C   UNL     1      44.687   4.264   9.475  0.00  0.00    +0.000 C 
ATOM     14  H   UNL     1      42.993   2.126   9.708  0.00  0.00    +0.000 HD
ENDBRANCH   6   8
BRANCH   1  15
ATOM     15  O   UNL     1      48.472   7.507  12.022  0.00  0.00    +0.000 OA
BRANCH  15  16
ATOM     16  C   UNL     1      48.355   8.824  12.637  0.00  0.00    +0.000 C 
ATOM     17  C   UNL     1      48.692   9.930  11.642  0.00  0.00    +0.000 C 
ATOM     18  C   UNL     1      47.291   9.793  12.131  0.00  0.00    +0.000 C 
BRANCH  16  23
ATOM     19  F   UNL     1      50.340   9.027  17.913  0.00  0.00    +0.000 F 
ATOM     20  C   UNL     1      49.840   9.042  16.673  0.00  0.00    +0.000 A 
ATOM     21  C   UNL     1      48.494   9.268  16.458  0.00  0.00    +0.000 A 
ATOM     22  C   UNL     1      48.001   9.241  15.148  0.00  0.00    +0.000 A 
ATOM     23  C   UNL     1      48.869   8.986  14.075  0.00  0.00    +0.000 A 
ATOM     24  N   UNL     1      50.203   8.795  14.302  0.00  0.00    +0.000 NA
ATOM     25  C   UNL     1      50.654   8.813  15.581  0.00  0.00    +0.000 A 
ENDBRANCH  16  23
ENDBRANCH  15  16
ENDBRANCH   1  15
TORSDOF 4
ENDMDL
MODEL 6
REMARK VINA RESULT:    -6.061      2.343      7.441
REMARK INTER + INTRA:          -7.817
REMARK INTER:                  -8.364
REMARK INTRA:                   0.547
REMARK UNBOUND:                -0.338
REMARK  Name = 
REMARK  4 active torsions:
REMARK  status: ('A' for Active; 'I' for Inactive)
REMARK    1  A    between atoms: C_5  and  C_6
REMARK    2  A    between atoms: C_6  and  O_7
REMARK    3  A    between atoms: O_7  and  C_8
REMARK    4  A    between atoms: C_13  and  C_14
REMARK                            x       y       z     vdW  Elec       q    Type
REMARK                         _______ _______ _______ _____ _____    ______ ____
ROOT
ATOM      1  C   UNL     1      47.850   5.793  14.598  0.00  0.00    +0.000 A 
ATOM      2  C   UNL     1      48.229   6.786  13.702  0.00  0.00    +0.000 A 
ATOM      3  C   UNL     1      47.615   6.851  12.457  0.00  0.00    +0.000 A 
ATOM      4  F   UNL     1      47.999   7.793  11.585  0.00  0.00    +0.000 F 
ATOM      5  C   UNL     1      46.619   5.945  12.090  0.00  0.00    +0.000 A 
ATOM      6  C   UNL     1      46.217   4.938  12.982  0.00  0.00    +0.000 A 
ATOM      7  C   UNL     1      46.874   4.871  14.224  0.00  0.00    +0.000 A 
ENDROOT
BRANCH   6   8
ATOM      8  C   UNL     1      45.162   3.913  12.566  0.00  0.00    +0.000 C 
ATOM      9  C   UNL     1      44.894   3.885  11.051  0.00  0.00    +0.000 C 
ATOM     10  C   UNL     1      43.984   5.022  10.589  0.00  0.00    +0.000 C 
ATOM     11  N   UNL     1      42.727   5.088  11.331  0.00  0.00    +0.000 NA
ATOM     12  C   UNL     1      42.931   5.164  12.773  0.00  0.00    +0.000 C 
ATOM     13  C   UNL     1      43.809   4.025  13.301  0.00  0.00    +0.000 C 
ATOM     14  H   UNL     1      42.170   4.255  11.121  0.00  0.00    +0.000 HD
ENDBRANCH   6   8
BRANCH   1  15
ATOM     15  O   UNL     1      48.510   5.766  15.802  0.00  0.00    +0.000 OA
BRANCH  15  16
ATOM     16  C   UNL     1      48.290   4.639  16.700  0.00  0.00    +0.000 C 
ATOM     17  C   UNL     1      47.326   5.008  17.825  0.00  0.00    +0.000 C 
ATOM     18  C   UNL     1      46.900   4.019  16.795  0.00  0.00    +0.000 C 
BRANCH  16  23
ATOM     19  F   UNL     1      52.939   1.611  17.721  0.00  0.00    +0.000 F 
ATOM     20  C   UNL     1      51.803   2.289  17.526  0.00  0.00    +0.000 A 
ATOM     21  C   UNL     1      50.629   1.626  17.218  0.00  0.00    +0.000 A 
ATOM     22  C   UNL     1      49.468   2.373  16.987  0.00  0.00    +0.000 A 
ATOM     23  C   UNL     1      49.504   3.774  17.067  0.00  0.00    +0.000 A 
ATOM     24  N   UNL     1      50.666   4.411  17.402  0.00  0.00    +0.000 NA
ATOM     25  C   UNL     1      51.781   3.667  17.609  0.00  0.00    +0.000 A 
ENDBRANCH  16  23
ENDBRANCH  15  16
ENDBRANCH   1  15
TORSDOF 4
ENDMDL
MODEL 7
REMARK VINA RESULT:    -5.794      3.064      7.537
REMARK INTER + INTRA:          -7.487
REMARK INTER:                  -7.627
REMARK INTRA:                   0.140
REMARK UNBOUND:                -0.338
REMARK  Name = 
REMARK  4 active torsions:
REMARK  status: ('A' for Active; 'I' for Inactive)
REMARK    1  A    between atoms: C_5  and  C_6
REMARK    2  A    between atoms: C_6  and  O_7
REMARK    3  A    between atoms: O_7  and  C_8
REMARK    4  A    between atoms: C_13  and  C_14
REMARK                            x       y       z     vdW  Elec       q    Type
REMARK                         _______ _______ _______ _____ _____    ______ ____
ROOT
ATOM      1  C   UNL     1      46.831   6.817  12.008  0.00  0.00    +0.000 A 
ATOM      2  C   UNL     1      46.458   8.142  12.199  0.00  0.00    +0.000 A 
ATOM      3  C   UNL     1      45.151   8.528  11.927  0.00  0.00    +0.000 A 
ATOM      4  F   UNL     1      44.799   9.811  12.086  0.00  0.00    +0.000 F 
ATOM      5  C   UNL     1      44.202   7.611  11.473  0.00  0.00    +0.000 A 
ATOM      6  C   UNL     1      44.557   6.266  11.279  0.00  0.00    +0.000 A 
ATOM      7  C   UNL     1      45.893   5.904  11.531  0.00  0.00    +0.000 A 
ENDROOT
BRANCH   6   8
ATOM      8  C   UNL     1      43.536   5.268  10.735  0.00  0.00    +0.000 C 
ATOM      9  C   UNL     1      42.743   4.536  11.834  0.00  0.00    +0.000 C 
ATOM     10  C   UNL     1      43.533   3.394  12.473  0.00  0.00    +0.000 C 
ATOM     11  N   UNL     1      44.055   2.442  11.496  0.00  0.00    +0.000 NA
ATOM     12  C   UNL     1      44.854   3.084  10.458  0.00  0.00    +0.000 C 
ATOM     13  C   UNL     1      44.099   4.216   9.755  0.00  0.00    +0.000 C 
ATOM     14  H   UNL     1      43.272   1.953  11.053  0.00  0.00    +0.000 HD
ENDBRANCH   6   8
BRANCH   1  15
ATOM     15  O   UNL     1      48.142   6.503  12.272  0.00  0.00    +0.000 OA
BRANCH  15  16
ATOM     16  C   UNL     1      49.005   7.519  12.862  0.00  0.00    +0.000 C 
ATOM     17  C   UNL     1      50.322   7.636  12.100  0.00  0.00    +0.000 C 
ATOM     18  C   UNL     1      49.352   8.766  12.054  0.00  0.00    +0.000 C 
BRANCH  16  23
ATOM     19  F   UNL     1      48.933   7.535  18.502  0.00  0.00    +0.000 F 
ATOM     20  C   UNL     1      48.989   7.591  17.167  0.00  0.00    +0.000 A 
ATOM     21  C   UNL     1      48.618   8.738  16.492  0.00  0.00    +0.000 A 
ATOM     22  C   UNL     1      48.656   8.746  15.093  0.00  0.00    +0.000 A 
ATOM     23  C   UNL     1      49.065   7.600  14.394  0.00  0.00    +0.000 A 
ATOM     24  N   UNL     1      49.458   6.483  15.078  0.00  0.00    +0.000 NA
ATOM     25  C   UNL     1      49.400   6.496  16.433  0.00  0.00    +0.000 A 
ENDBRANCH  16  23
ENDBRANCH  15  16
ENDBRANCH   1  15
TORSDOF 4
ENDMDL
MODEL 8
REMARK VINA RESULT:    -5.793      3.326      4.631
REMARK INTER + INTRA:          -7.486
REMARK INTER:                  -6.648
REMARK INTRA:                  -0.839
REMARK UNBOUND:                -0.338
REMARK  Name = 
REMARK  4 active torsions:
REMARK  status: ('A' for Active; 'I' for Inactive)
REMARK    1  A    between atoms: C_5  and  C_6
REMARK    2  A    between atoms: C_6  and  O_7
REMARK    3  A    between atoms: O_7  and  C_8
REMARK    4  A    between atoms: C_13  and  C_14
REMARK                            x       y       z     vdW  Elec       q    Type
REMARK                         _______ _______ _______ _____ _____    ______ ____
ROOT
ATOM      1  C   UNL     1      48.362   8.731  15.104  0.00  0.00    +0.000 A 
ATOM      2  C   UNL     1      48.086   9.846  15.886  0.00  0.00    +0.000 A 
ATOM      3  C   UNL     1      48.158   9.742  17.271  0.00  0.00    +0.000 A 
ATOM      4  F   UNL     1      47.866  10.811  18.024  0.00  0.00    +0.000 F 
ATOM      5  C   UNL     1      48.509   8.543  17.891  0.00  0.00    +0.000 A 
ATOM      6  C   UNL     1      48.797   7.406  17.120  0.00  0.00    +0.000 A 
ATOM      7  C   UNL     1      48.688   7.526  15.722  0.00  0.00    +0.000 A 
ENDROOT
BRANCH   6   8
ATOM      8  C   UNL     1      49.133   6.077  17.795  0.00  0.00    +0.000 C 
ATOM      9  C   UNL     1      48.857   4.848  16.911  0.00  0.00    +0.000 C 
ATOM     10  C   UNL     1      47.378   4.465  16.874  0.00  0.00    +0.000 C 
ATOM     11  N   UNL     1      46.800   4.281  18.203  0.00  0.00    +0.000 NA
ATOM     12  C   UNL     1      46.997   5.441  19.066  0.00  0.00    +0.000 C 
ATOM     13  C   UNL     1      48.469   5.850  19.171  0.00  0.00    +0.000 C 
ATOM     14  H   UNL     1      47.232   3.465  18.646  0.00  0.00    +0.000 HD
ENDBRANCH   6   8
BRANCH   1  15
ATOM     15  O   UNL     1      48.251   8.891  13.744  0.00  0.00    +0.000 OA
BRANCH  15  16
ATOM     16  C   UNL     1      48.314   7.712  12.889  0.00  0.00    +0.000 C 
ATOM     17  C   UNL     1      48.923   8.045  11.531  0.00  0.00    +0.000 C 
ATOM     18  C   UNL     1      49.674   7.164  12.469  0.00  0.00    +0.000 C 
BRANCH  16  23
ATOM     19  F   UNL     1      43.761   4.404  13.277  0.00  0.00    +0.000 F 
ATOM     20  C   UNL     1      44.869   5.140  13.142  0.00  0.00    +0.000 A 
ATOM     21  C   UNL     1      46.115   4.590  13.378  0.00  0.00    +0.000 A 
ATOM     22  C   UNL     1      47.249   5.402  13.261  0.00  0.00    +0.000 A 
ATOM     23  C   UNL     1      47.113   6.754  12.908  0.00  0.00    +0.000 A 
ATOM     24  N   UNL     1      45.877   7.274  12.649  0.00  0.00    +0.000 NA
ATOM     25  C   UNL     1      44.792   6.471  12.782  0.00  0.00    +0.000 A 
ENDBRANCH  16  23
ENDBRANCH  15  16
ENDBRANCH   1  15
TORSDOF 4
ENDMDL
MODEL 9
REMARK VINA RESULT:    -5.745      1.617      2.181
REMARK INTER + INTRA:          -7.426
REMARK INTER:                  -7.244
REMARK INTRA:                  -0.183
REMARK UNBOUND:                -0.338
REMARK  Name = 
REMARK  4 active torsions:
REMARK  status: ('A' for Active; 'I' for Inactive)
REMARK    1  A    between atoms: C_5  and  C_6
REMARK    2  A    between atoms: C_6  and  O_7
REMARK    3  A    between atoms: O_7  and  C_8
REMARK    4  A    between atoms: C_13  and  C_14
REMARK                            x       y       z     vdW  Elec       q    Type
REMARK                         _______ _______ _______ _____ _____    ______ ____
ROOT
ATOM      1  C   UNL     1      46.901   5.884  13.105  0.00  0.00    +0.000 A 
ATOM      2  C   UNL     1      47.521   6.467  12.006  0.00  0.00    +0.000 A 
ATOM      3  C   UNL     1      48.582   7.343  12.206  0.00  0.00    +0.000 A 
ATOM      4  F   UNL     1      49.161   7.924  11.148  0.00  0.00    +0.000 F 
ATOM      5  C   UNL     1      49.042   7.645  13.489  0.00  0.00    +0.000 A 
ATOM      6  C   UNL     1      48.433   7.062  14.612  0.00  0.00    +0.000 A 
ATOM      7  C   UNL     1      47.342   6.203  14.387  0.00  0.00    +0.000 A 
ENDROOT
BRANCH   6   8
ATOM      8  C   UNL     1      48.901   7.427  16.021  0.00  0.00    +0.000 C 
ATOM      9  C   UNL     1      50.359   7.918  16.078  0.00  0.00    +0.000 C 
ATOM     10  C   UNL     1      51.372   6.776  16.028  0.00  0.00    +0.000 C 
ATOM     11  N   UNL     1      51.135   5.754  17.045  0.00  0.00    +0.000 NA
ATOM     12  C   UNL     1      49.777   5.222  16.999  0.00  0.00    +0.000 C 
ATOM     13  C   UNL     1      48.715   6.322  17.084  0.00  0.00    +0.000 C 
ATOM     14  H   UNL     1      51.299   6.158  17.971  0.00  0.00    +0.000 HD
ENDBRANCH   6   8
BRANCH   1  15
ATOM     15  O   UNL     1      45.845   5.046  12.843  0.00  0.00    +0.000 OA
BRANCH  15  16
ATOM     16  C   UNL     1      44.981   5.337  11.705  0.00  0.00    +0.000 C 
ATOM     17  C   UNL     1      43.531   5.515  12.144  0.00  0.00    +0.000 C 
ATOM     18  C   UNL     1      44.284   6.690  11.623  0.00  0.00    +0.000 C 
BRANCH  16  23
ATOM     19  F   UNL     1      45.640   2.737   6.742  0.00  0.00    +0.000 F 
ATOM     20  C   UNL     1      45.519   3.300   7.949  0.00  0.00    +0.000 A 
ATOM     21  C   UNL     1      44.992   2.588   9.010  0.00  0.00    +0.000 A 
ATOM     22  C   UNL     1      44.848   3.223  10.249  0.00  0.00    +0.000 A 
ATOM     23  C   UNL     1      45.235   4.563  10.403  0.00  0.00    +0.000 A 
ATOM     24  N   UNL     1      45.782   5.244   9.351  0.00  0.00    +0.000 NA
ATOM     25  C   UNL     1      45.899   4.611   8.157  0.00  0.00    +0.000 A 
ENDBRANCH  16  23
ENDBRANCH  15  16
ENDBRANCH   1  15
TORSDOF 4
ENDMDL
