MODEL 1
REMARK VINA RESULT:    -7.491      0.000      0.000
REMARK INTER + INTRA:         -12.829
REMARK INTER:                 -11.870
REMARK INTRA:                  -0.959
REMARK UNBOUND:                -0.959
REMARK  Name = 
REMARK  11 active torsions:
REMARK  status: ('A' for Active; 'I' for Inactive)
REMARK    1  A    between atoms: C_1  and  O_2
REMARK    2  A    between atoms: O_2  and  C_3
REMARK    3  A    between atoms: C_3  and  C_4
REMARK    4  A    between atoms: C_4  and  N_5
REMARK    5  A    between atoms: N_5  and  C_6
REMARK    6  A    between atoms: C_6  and  C_7
REMARK    7  A    between atoms: C_11  and  O_12
REMARK    8  A    between atoms: O_12  and  C_13
REMARK    9  A    between atoms: C_16  and  C_17
REMARK   10  A    between atoms: C_17  and  N_18
REMARK   11  A    between atoms: C_19  and  C_21
REMARK                            x       y       z     vdW  Elec       q    Type
REMARK                         _______ _______ _______ _____ _____    ______ ____
ROOT
ATOM      1  C   UNL     1      46.769   3.997  14.182  0.00  0.00    +0.000 A 
ATOM      2  C   UNL     1      47.300   5.190  13.713  0.00  0.00    +0.000 A 
ATOM      3  C   UNL     1      48.086   5.954  14.579  0.00  0.00    +0.000 A 
ATOM      4  C   UNL     1      48.331   5.499  15.877  0.00  0.00    +0.000 A 
ATOM      5  C   UNL     1      47.730   4.305  16.256  0.00  0.00    +0.000 A 
ATOM      6  N   UNL     1      46.982   3.538  15.435  0.00  0.00    +0.000 NA
ENDROOT
BRANCH   1   7
ATOM      7  O   UNL     1      46.012   3.241  13.290  0.00  0.00    +0.000 OA
BRANCH   7  12
ATOM      8  C   UNL     1      44.191   4.416  10.324  0.00  0.00    +0.000 A 
ATOM      9  C   UNL     1      43.189   5.197  10.927  0.00  0.00    +0.000 A 
ATOM     10  C   UNL     1      43.157   5.375  12.308  0.00  0.00    +0.000 A 
ATOM     11  C   UNL     1      44.108   4.748  13.108  0.00  0.00    +0.000 A 
ATOM     12  C   UNL     1      45.062   3.900  12.538  0.00  0.00    +0.000 A 
ATOM     13  C   UNL     1      45.123   3.759  11.147  0.00  0.00    +0.000 A 
BRANCH   8  14
ATOM     14  C   UNL     1      44.256   4.299   8.817  0.00  0.00    +0.000 C 
BRANCH  14  15
ATOM     15  N   UNL     1      44.511   2.912   8.425  0.00  0.00    +0.000 NA
ATOM     16  H   UNL     1      44.519   2.329   9.259  0.00  0.00    +0.000 HD
BRANCH  15  17
ATOM     17  C   UNL     1      45.788   2.767   7.726  0.00  0.00    +0.000 C 
BRANCH  17  18
ATOM     18  C   UNL     1      46.394   1.386   8.010  0.00  0.00    +0.000 C 
BRANCH  18  20
ATOM     19  C   UNL     1      48.076   2.119   6.540  0.00  0.00    +0.000 C 
ATOM     20  O   UNL     1      47.266   1.021   6.939  0.00  0.00    +0.000 OA
ENDBRANCH  18  20
ENDBRANCH  17  18
ENDBRANCH  15  17
ENDBRANCH  14  15
ENDBRANCH   8  14
ENDBRANCH   7  12
ENDBRANCH   1   7
BRANCH   4  21
ATOM     21  C   UNL     1      49.207   6.233  16.848  0.00  0.00    +0.000 C 
BRANCH  21  22
ATOM     22  N   UNL     1      50.411   5.506  17.157  0.00  0.00    +0.000 N 
ATOM     23  C   UNL     1      50.505   4.775  18.316  0.00  0.00    +0.000 C 
ATOM     24  O   UNL     1      49.564   4.670  19.096  0.00  0.00    +0.000 OA
ATOM     25  H   UNL     1      51.265   5.791  16.687  0.00  0.00    +0.000 HD
BRANCH  23  26
ATOM     26  C   UNL     1      51.771   4.068  18.540  0.00  0.00    +0.000 A 
ATOM     27  C   UNL     1      52.809   4.707  19.205  0.00  0.00    +0.000 A 
ATOM     28  S   UNL     1      54.183   3.722  19.432  0.00  0.00    +0.000 S 
ATOM     29  C   UNL     1      53.460   2.428  18.597  0.00  0.00    +0.000 A 
ATOM     30  N   UNL     1      54.128   1.258  18.404  0.00  0.00    +0.000 NA
ATOM     31  C   UNL     1      53.473   0.376  17.725  0.00  0.00    +0.000 A 
ATOM     32  N   UNL     1      52.208   0.554  17.227  0.00  0.00    +0.000 N 
ATOM     33  C   UNL     1      51.485   1.703  17.430  0.00  0.00    +0.000 A 
ATOM     34  O   UNL     1      50.329   1.815  17.019  0.00  0.00    +0.000 OA
ATOM     35  C   UNL     1      52.182   2.735  18.171  0.00  0.00    +0.000 A 
ATOM     36  H   UNL     1      51.748  -0.181  16.713  0.00  0.00    +0.000 HD
ENDBRANCH  23  26
ENDBRANCH  21  22
ENDBRANCH   4  21
TORSDOF 10
ENDMDL
MODEL 2
REMARK VINA RESULT:    -7.428      3.000      3.852
REMARK INTER + INTRA:         -12.730
REMARK INTER:                 -11.243
REMARK INTRA:                  -1.487
REMARK UNBOUND:                -0.959
REMARK  Name = 
REMARK  11 active torsions:
REMARK  status: ('A' for Active; 'I' for Inactive)
REMARK    1  A    between atoms: C_1  and  O_2
REMARK    2  A    between atoms: O_2  and  C_3
REMARK    3  A    between atoms: C_3  and  C_4
REMARK    4  A    between atoms: C_4  and  N_5
REMARK    5  A    between atoms: N_5  and  C_6
REMARK    6  A    between atoms: C_6  and  C_7
REMARK    7  A    between atoms: C_11  and  O_12
REMARK    8  A    between atoms: O_12  and  C_13
REMARK    9  A    between atoms: C_16  and  C_17
REMARK   10  A    between atoms: C_17  and  N_18
REMARK   11  A    between atoms: C_19  and  C_21
REMARK                            x       y       z     vdW  Elec       q    Type
REMARK                         _______ _______ _______ _____ _____    ______ ____
ROOT
ATOM      1  C   UNL     1      45.803   7.294  11.740  0.00  0.00    +0.000 A 
ATOM      2  C   UNL     1      46.965   6.536  11.746  0.00  0.00    +0.000 A 
ATOM      3  C   UNL     1      48.058   7.000  12.482  0.00  0.00    +0.000 A 
ATOM      4  C   UNL     1      47.954   8.195  13.200  0.00  0.00    +0.000 A 
ATOM      5  C   UNL     1      46.756   8.891  13.104  0.00  0.00    +0.000 A 
ATOM      6  N   UNL     1      45.679   8.457  12.416  0.00  0.00    +0.000 NA
ENDROOT
BRANCH   1   7
ATOM      7  O   UNL     1      44.719   6.796  11.020  0.00  0.00    +0.000 OA
BRANCH   7  12
ATOM      8  C   UNL     1      44.110   3.227  10.399  0.00  0.00    +0.000 A 
ATOM      9  C   UNL     1      43.587   2.832  11.643  0.00  0.00    +0.000 A 
ATOM     10  C   UNL     1      43.388   3.761  12.661  0.00  0.00    +0.000 A 
ATOM     11  C   UNL     1      43.738   5.093  12.459  0.00  0.00    +0.000 A 
ATOM     12  C   UNL     1      44.336   5.493  11.260  0.00  0.00    +0.000 A 
ATOM     13  C   UNL     1      44.493   4.568  10.221  0.00  0.00    +0.000 A 
BRANCH   8  14
ATOM     14  C   UNL     1      44.245   2.218   9.280  0.00  0.00    +0.000 C 
BRANCH  14  15
ATOM     15  N   UNL     1      45.622   1.729   9.199  0.00  0.00    +0.000 NA
ATOM     16  H   UNL     1      46.161   2.134   9.961  0.00  0.00    +0.000 HD
BRANCH  15  17
ATOM     17  C   UNL     1      46.253   2.079   7.926  0.00  0.00    +0.000 C 
BRANCH  17  18
ATOM     18  C   UNL     1      47.046   0.883   7.381  0.00  0.00    +0.000 C 
BRANCH  18  20
ATOM     19  C   UNL     1      47.789   2.440   5.782  0.00  0.00    +0.000 C 
ATOM     20  O   UNL     1      48.162   1.358   6.626  0.00  0.00    +0.000 OA
ENDBRANCH  18  20
ENDBRANCH  17  18
ENDBRANCH  15  17
ENDBRANCH  14  15
ENDBRANCH   8  14
ENDBRANCH   7  12
ENDBRANCH   1   7
BRANCH   4  21
ATOM     21  C   UNL     1      49.062   8.731  14.056  0.00  0.00    +0.000 C 
BRANCH  21  22
ATOM     22  N   UNL     1      49.271   7.939  15.241  0.00  0.00    +0.000 N 
ATOM     23  C   UNL     1      48.665   8.284  16.425  0.00  0.00    +0.000 C 
ATOM     24  O   UNL     1      47.892   9.234  16.507  0.00  0.00    +0.000 OA
ATOM     25  H   UNL     1      50.090   7.340  15.266  0.00  0.00    +0.000 HD
BRANCH  23  26
ATOM     26  C   UNL     1      48.938   7.415  17.573  0.00  0.00    +0.000 A 
ATOM     27  C   UNL     1      49.428   7.962  18.752  0.00  0.00    +0.000 A 
ATOM     28  S   UNL     1      49.633   6.820  20.003  0.00  0.00    +0.000 S 
ATOM     29  C   UNL     1      49.130   5.545  18.994  0.00  0.00    +0.000 A 
ATOM     30  N   UNL     1      49.098   4.264  19.449  0.00  0.00    +0.000 NA
ATOM     31  C   UNL     1      48.729   3.394  18.567  0.00  0.00    +0.000 A 
ATOM     32  N   UNL     1      48.383   3.691  17.274  0.00  0.00    +0.000 N 
ATOM     33  C   UNL     1      48.366   4.974  16.786  0.00  0.00    +0.000 A 
ATOM     34  O   UNL     1      47.997   5.217  15.636  0.00  0.00    +0.000 OA
ATOM     35  C   UNL     1      48.791   5.988  17.729  0.00  0.00    +0.000 A 
ATOM     36  H   UNL     1      48.094   2.964  16.638  0.00  0.00    +0.000 HD
ENDBRANCH  23  26
ENDBRANCH  21  22
ENDBRANCH   4  21
TORSDOF 10
ENDMDL
MODEL 3
REMARK VINA RESULT:    -7.043      3.802      9.291
REMARK INTER + INTRA:         -12.119
REMARK INTER:                 -10.561
REMARK INTRA:                  -1.559
REMARK UNBOUND:                -0.959
REMARK  Name = 
REMARK  11 active torsions:
REMARK  status: ('A' for Active; 'I' for Inactive)
REMARK    1  A    between atoms: C_1  and  O_2
REMARK    2  A    between atoms: O_2  and  C_3
REMARK    3  A    between atoms: C_3  and  C_4
REMARK    4  A    between atoms: C_4  and  N_5
REMARK    5  A    between atoms: N_5  and  C_6
REMARK    6  A    between atoms: C_6  and  C_7
REMARK    7  A    between atoms: C_11  and  O_12
REMARK    8  A    between atoms: O_12  and  C_13
REMARK    9  A    between atoms: C_16  and  C_17
REMARK   10  A    between atoms: C_17  and  N_18
REMARK   11  A    between atoms: C_19  and  C_21
REMARK                            x       y       z     vdW  Elec       q    Type
REMARK                         _______ _______ _______ _____ _____    ______ ____
ROOT
ATOM      1  C   UNL     1      49.410   8.061  15.646  0.00  0.00    +0.000 A 
ATOM      2  C   UNL     1      48.648   9.144  15.232  0.00  0.00    +0.000 A 
ATOM      3  C   UNL     1      48.084   9.110  13.954  0.00  0.00    +0.000 A 
ATOM      4  C   UNL     1      48.284   7.994  13.136  0.00  0.00    +0.000 A 
ATOM      5  C   UNL     1      49.087   6.977  13.636  0.00  0.00    +0.000 A 
ATOM      6  N   UNL     1      49.628   6.975  14.873  0.00  0.00    +0.000 NA
ENDROOT
BRANCH   1   7
ATOM      7  O   UNL     1      49.938   8.107  16.934  0.00  0.00    +0.000 OA
BRANCH   7  12
ATOM      8  C   UNL     1      48.593   5.808  19.464  0.00  0.00    +0.000 A 
ATOM      9  C   UNL     1      47.600   6.616  20.047  0.00  0.00    +0.000 A 
ATOM     10  C   UNL     1      47.346   7.896  19.562  0.00  0.00    +0.000 A 
ATOM     11  C   UNL     1      48.102   8.398  18.507  0.00  0.00    +0.000 A 
ATOM     12  C   UNL     1      49.148   7.646  17.966  0.00  0.00    +0.000 A 
ATOM     13  C   UNL     1      49.373   6.341  18.422  0.00  0.00    +0.000 A 
BRANCH   8  14
ATOM     14  C   UNL     1      48.801   4.392  19.953  0.00  0.00    +0.000 C 
BRANCH  14  15
ATOM     15  N   UNL     1      49.241   3.533  18.852  0.00  0.00    +0.000 NA
ATOM     16  H   UNL     1      49.800   4.086  18.206  0.00  0.00    +0.000 HD
BRANCH  15  17
ATOM     17  C   UNL     1      48.111   2.947  18.131  0.00  0.00    +0.000 C 
BRANCH  17  18
ATOM     18  C   UNL     1      48.185   3.314  16.642  0.00  0.00    +0.000 C 
BRANCH  18  20
ATOM     19  C   UNL     1      46.968   4.348  14.916  0.00  0.00    +0.000 C 
ATOM     20  O   UNL     1      46.892   3.718  16.189  0.00  0.00    +0.000 OA
ENDBRANCH  18  20
ENDBRANCH  17  18
ENDBRANCH  15  17
ENDBRANCH  14  15
ENDBRANCH   8  14
ENDBRANCH   7  12
ENDBRANCH   1   7
BRANCH   4  21
ATOM     21  C   UNL     1      47.669   7.859  11.775  0.00  0.00    +0.000 C 
BRANCH  21  22
ATOM     22  N   UNL     1      46.971   6.610  11.612  0.00  0.00    +0.000 N 
ATOM     23  C   UNL     1      45.598   6.568  11.661  0.00  0.00    +0.000 C 
ATOM     24  O   UNL     1      44.921   7.584  11.791  0.00  0.00    +0.000 OA
ATOM     25  H   UNL     1      47.493   5.755  11.777  0.00  0.00    +0.000 HD
BRANCH  23  26
ATOM     26  C   UNL     1      44.980   5.251  11.483  0.00  0.00    +0.000 A 
ATOM     27  C   UNL     1      44.269   4.675  12.527  0.00  0.00    +0.000 A 
ATOM     28  S   UNL     1      43.567   3.172  12.130  0.00  0.00    +0.000 S 
ATOM     29  C   UNL     1      44.239   3.211  10.567  0.00  0.00    +0.000 A 
ATOM     30  N   UNL     1      44.042   2.186   9.694  0.00  0.00    +0.000 NA
ATOM     31  C   UNL     1      44.637   2.332   8.557  0.00  0.00    +0.000 A 
ATOM     32  N   UNL     1      45.406   3.413   8.210  0.00  0.00    +0.000 N 
ATOM     33  C   UNL     1      45.600   4.485   9.046  0.00  0.00    +0.000 A 
ATOM     34  O   UNL     1      46.250   5.468   8.688  0.00  0.00    +0.000 OA
ATOM     35  C   UNL     1      44.969   4.363  10.345  0.00  0.00    +0.000 A 
ATOM     36  H   UNL     1      45.836   3.470   7.300  0.00  0.00    +0.000 HD
ENDBRANCH  23  26
ENDBRANCH  21  22
ENDBRANCH   4  21
TORSDOF 10
ENDMDL
MODEL 4
REMARK VINA RESULT:    -6.934      1.752      1.987
REMARK INTER + INTRA:         -11.947
REMARK INTER:                 -10.828
REMARK INTRA:                  -1.119
REMARK UNBOUND:                -0.959
REMARK  Name = 
REMARK  11 active torsions:
REMARK  status: ('A' for Active; 'I' for Inactive)
REMARK    1  A    between atoms: C_1  and  O_2
REMARK    2  A    between atoms: O_2  and  C_3
REMARK    3  A    between atoms: C_3  and  C_4
REMARK    4  A    between atoms: C_4  and  N_5
REMARK    5  A    between atoms: N_5  and  C_6
REMARK    6  A    between atoms: C_6  and  C_7
REMARK    7  A    between atoms: C_11  and  O_12
REMARK    8  A    between atoms: O_12  and  C_13
REMARK    9  A    between atoms: C_16  and  C_17
REMARK   10  A    between atoms: C_17  and  N_18
REMARK   11  A    between atoms: C_19  and  C_21
REMARK                            x       y       z     vdW  Elec       q    Type
REMARK                         _______ _______ _______ _____ _____    ______ ____
ROOT
ATOM      1  C   UNL     1      47.577   7.370  13.215  0.00  0.00    +0.000 A 
ATOM      2  C   UNL     1      47.543   8.646  13.758  0.00  0.00    +0.000 A 
ATOM      3  C   UNL     1      48.155   8.859  14.995  0.00  0.00    +0.000 A 
ATOM      4  C   UNL     1      48.794   7.799  15.645  0.00  0.00    +0.000 A 
ATOM      5  C   UNL     1      48.746   6.555  15.028  0.00  0.00    +0.000 A 
ATOM      6  N   UNL     1      48.179   6.326  13.826  0.00  0.00    +0.000 NA
ENDROOT
BRANCH   1   7
ATOM      7  O   UNL     1      46.983   7.190  11.968  0.00  0.00    +0.000 OA
BRANCH   7  12
ATOM      8  C   UNL     1      44.559   4.808  10.574  0.00  0.00    +0.000 A 
ATOM      9  C   UNL     1      43.667   4.683  11.654  0.00  0.00    +0.000 A 
ATOM     10  C   UNL     1      43.844   5.431  12.815  0.00  0.00    +0.000 A 
ATOM     11  C   UNL     1      44.933   6.291  12.925  0.00  0.00    +0.000 A 
ATOM     12  C   UNL     1      45.878   6.369  11.898  0.00  0.00    +0.000 A 
ATOM     13  C   UNL     1      45.674   5.653  10.712  0.00  0.00    +0.000 A 
BRANCH   8  14
ATOM     14  C   UNL     1      44.306   4.047   9.291  0.00  0.00    +0.000 C 
BRANCH  14  15
ATOM     15  N   UNL     1      44.400   2.606   9.527  0.00  0.00    +0.000 NA
ATOM     16  H   UNL     1      44.594   2.445  10.513  0.00  0.00    +0.000 HD
BRANCH  15  17
ATOM     17  C   UNL     1      45.454   1.987   8.723  0.00  0.00    +0.000 C 
BRANCH  17  18
ATOM     18  C   UNL     1      45.994   2.991   7.695  0.00  0.00    +0.000 C 
BRANCH  18  20
ATOM     19  C   UNL     1      47.294   1.071   7.299  0.00  0.00    +0.000 C 
ATOM     20  O   UNL     1      47.196   2.479   7.118  0.00  0.00    +0.000 OA
ENDBRANCH  18  20
ENDBRANCH  17  18
ENDBRANCH  15  17
ENDBRANCH  14  15
ENDBRANCH   8  14
ENDBRANCH   7  12
ENDBRANCH   1   7
BRANCH   4  21
ATOM     21  C   UNL     1      49.519   7.959  16.948  0.00  0.00    +0.000 C 
BRANCH  21  22
ATOM     22  N   UNL     1      50.494   6.921  17.162  0.00  0.00    +0.000 N 
ATOM     23  C   UNL     1      50.332   6.011  18.179  0.00  0.00    +0.000 C 
ATOM     24  O   UNL     1      49.340   6.014  18.901  0.00  0.00    +0.000 OA
ATOM     25  H   UNL     1      51.422   7.062  16.774  0.00  0.00    +0.000 HD
BRANCH  23  26
ATOM     26  C   UNL     1      51.378   4.992  18.315  0.00  0.00    +0.000 A 
ATOM     27  C   UNL     1      52.597   5.327  18.890  0.00  0.00    +0.000 A 
ATOM     28  S   UNL     1      53.673   4.010  19.024  0.00  0.00    +0.000 S 
ATOM     29  C   UNL     1      52.570   2.961  18.264  0.00  0.00    +0.000 A 
ATOM     30  N   UNL     1      52.886   1.658  18.036  0.00  0.00    +0.000 NA
ATOM     31  C   UNL     1      51.969   0.987  17.421  0.00  0.00    +0.000 A 
ATOM     32  N   UNL     1      50.763   1.498  17.019  0.00  0.00    +0.000 N 
ATOM     33  C   UNL     1      50.389   2.797  17.261  0.00  0.00    +0.000 A 
ATOM     34  O   UNL     1      49.276   3.215  16.939  0.00  0.00    +0.000 OA
ATOM     35  C   UNL     1      51.390   3.601  17.933  0.00  0.00    +0.000 A 
ATOM     36  H   UNL     1      50.085   0.916  16.551  0.00  0.00    +0.000 HD
ENDBRANCH  23  26
ENDBRANCH  21  22
ENDBRANCH   4  21
TORSDOF 10
ENDMDL
MODEL 5
REMARK VINA RESULT:    -6.704      3.387      5.449
REMARK INTER + INTRA:         -11.582
REMARK INTER:                 -10.572
REMARK INTRA:                  -1.010
REMARK UNBOUND:                -0.959
REMARK  Name = 
REMARK  11 active torsions:
REMARK  status: ('A' for Active; 'I' for Inactive)
REMARK    1  A    between atoms: C_1  and  O_2
REMARK    2  A    between atoms: O_2  and  C_3
REMARK    3  A    between atoms: C_3  and  C_4
REMARK    4  A    between atoms: C_4  and  N_5
REMARK    5  A    between atoms: N_5  and  C_6
REMARK    6  A    between atoms: C_6  and  C_7
REMARK    7  A    between atoms: C_11  and  O_12
REMARK    8  A    between atoms: O_12  and  C_13
REMARK    9  A    between atoms: C_16  and  C_17
REMARK   10  A    between atoms: C_17  and  N_18
REMARK   11  A    between atoms: C_19  and  C_21
REMARK                            x       y       z     vdW  Elec       q    Type
REMARK                         _______ _______ _______ _____ _____    ______ ____
ROOT
ATOM      1  C   UNL     1      47.871   3.346  15.972  0.00  0.00    +0.000 A 
ATOM      2  C   UNL     1      46.970   4.149  16.656  0.00  0.00    +0.000 A 
ATOM      3  C   UNL     1      47.295   4.556  17.953  0.00  0.00    +0.000 A 
ATOM      4  C   UNL     1      48.511   4.165  18.519  0.00  0.00    +0.000 A 
ATOM      5  C   UNL     1      49.329   3.338  17.759  0.00  0.00    +0.000 A 
ATOM      6  N   UNL     1      49.048   2.945  16.499  0.00  0.00    +0.000 NA
ENDROOT
BRANCH   1   7
ATOM      7  O   UNL     1      47.536   2.976  14.671  0.00  0.00    +0.000 OA
BRANCH   7  12
ATOM      8  C   UNL     1      45.412   4.432  12.051  0.00  0.00    +0.000 A 
ATOM      9  C   UNL     1      45.748   5.792  12.171  0.00  0.00    +0.000 A 
ATOM     10  C   UNL     1      46.716   6.211  13.079  0.00  0.00    +0.000 A 
ATOM     11  C   UNL     1      47.339   5.279  13.904  0.00  0.00    +0.000 A 
ATOM     12  C   UNL     1      46.962   3.934  13.861  0.00  0.00    +0.000 A 
ATOM     13  C   UNL     1      46.023   3.506  12.915  0.00  0.00    +0.000 A 
BRANCH   8  14
ATOM     14  C   UNL     1      44.416   3.987  11.004  0.00  0.00    +0.000 C 
BRANCH  14  15
ATOM     15  N   UNL     1      44.705   2.617  10.575  0.00  0.00    +0.000 NA
ATOM     16  H   UNL     1      45.465   2.248  11.143  0.00  0.00    +0.000 HD
BRANCH  15  17
ATOM     17  C   UNL     1      45.085   2.554   9.164  0.00  0.00    +0.000 C 
BRANCH  17  18
ATOM     18  C   UNL     1      44.739   3.875   8.463  0.00  0.00    +0.000 C 
BRANCH  18  20
ATOM     19  C   UNL     1      46.658   3.261   7.249  0.00  0.00    +0.000 C 
ATOM     20  O   UNL     1      45.881   4.345   7.744  0.00  0.00    +0.000 OA
ENDBRANCH  18  20
ENDBRANCH  17  18
ENDBRANCH  15  17
ENDBRANCH  14  15
ENDBRANCH   8  14
ENDBRANCH   7  12
ENDBRANCH   1   7
BRANCH   4  21
ATOM     21  C   UNL     1      48.956   4.604  19.882  0.00  0.00    +0.000 C 
BRANCH  21  22
ATOM     22  N   UNL     1      48.760   6.016  20.093  0.00  0.00    +0.000 N 
ATOM     23  C   UNL     1      49.765   6.908  19.810  0.00  0.00    +0.000 C 
ATOM     24  O   UNL     1      50.834   6.551  19.324  0.00  0.00    +0.000 OA
ATOM     25  H   UNL     1      48.019   6.297  20.729  0.00  0.00    +0.000 HD
BRANCH  23  26
ATOM     26  C   UNL     1      49.468   8.323  20.057  0.00  0.00    +0.000 A 
ATOM     27  C   UNL     1      49.800   8.895  21.278  0.00  0.00    +0.000 A 
ATOM     28  S   UNL     1      49.440  10.560  21.374  0.00  0.00    +0.000 S 
ATOM     29  C   UNL     1      48.774  10.561  19.807  0.00  0.00    +0.000 A 
ATOM     30  N   UNL     1      48.244  11.693  19.272  0.00  0.00    +0.000 NA
ATOM     31  C   UNL     1      47.743  11.541  18.091  0.00  0.00    +0.000 A 
ATOM     32  N   UNL     1      47.729  10.361  17.394  0.00  0.00    +0.000 N 
ATOM     33  C   UNL     1      48.285   9.204  17.882  0.00  0.00    +0.000 A 
ATOM     34  O   UNL     1      48.308   8.171  17.211  0.00  0.00    +0.000 OA
ATOM     35  C   UNL     1      48.845   9.314  19.213  0.00  0.00    +0.000 A 
ATOM     36  H   UNL     1      47.330  10.312  16.469  0.00  0.00    +0.000 HD
ENDBRANCH  23  26
ENDBRANCH  21  22
ENDBRANCH   4  21
TORSDOF 10
ENDMDL
MODEL 6
REMARK VINA RESULT:    -6.562      3.018      3.701
REMARK INTER + INTRA:         -11.357
REMARK INTER:                 -10.224
REMARK INTRA:                  -1.133
REMARK UNBOUND:                -0.959
REMARK  Name = 
REMARK  11 active torsions:
REMARK  status: ('A' for Active; 'I' for Inactive)
REMARK    1  A    between atoms: C_1  and  O_2
REMARK    2  A    between atoms: O_2  and  C_3
REMARK    3  A    between atoms: C_3  and  C_4
REMARK    4  A    between atoms: C_4  and  N_5
REMARK    5  A    between atoms: N_5  and  C_6
REMARK    6  A    between atoms: C_6  and  C_7
REMARK    7  A    between atoms: C_11  and  O_12
REMARK    8  A    between atoms: O_12  and  C_13
REMARK    9  A    between atoms: C_16  and  C_17
REMARK   10  A    between atoms: C_17  and  N_18
REMARK   11  A    between atoms: C_19  and  C_21
REMARK                            x       y       z     vdW  Elec       q    Type
REMARK                         _______ _______ _______ _____ _____    ______ ____
ROOT
ATOM      1  C   UNL     1      46.775   7.619  12.582  0.00  0.00    +0.000 A 
ATOM      2  C   UNL     1      47.855   6.818  12.238  0.00  0.00    +0.000 A 
ATOM      3  C   UNL     1      49.009   6.887  13.022  0.00  0.00    +0.000 A 
ATOM      4  C   UNL     1      49.046   7.737  14.131  0.00  0.00    +0.000 A 
ATOM      5  C   UNL     1      47.921   8.516  14.371  0.00  0.00    +0.000 A 
ATOM      6  N   UNL     1      46.787   8.456  13.642  0.00  0.00    +0.000 NA
ENDROOT
BRANCH   1   7
ATOM      7  O   UNL     1      45.626   7.512  11.800  0.00  0.00    +0.000 OA
BRANCH   7  12
ATOM      8  C   UNL     1      44.366   4.321  10.487  0.00  0.00    +0.000 A 
ATOM      9  C   UNL     1      43.700   3.819  11.620  0.00  0.00    +0.000 A 
ATOM     10  C   UNL     1      43.625   4.566  12.792  0.00  0.00    +0.000 A 
ATOM     11  C   UNL     1      44.243   5.811  12.860  0.00  0.00    +0.000 A 
ATOM     12  C   UNL     1      44.981   6.294  11.775  0.00  0.00    +0.000 A 
ATOM     13  C   UNL     1      45.016   5.565  10.580  0.00  0.00    +0.000 A 
BRANCH   8  14
ATOM     14  C   UNL     1      44.369   3.530   9.198  0.00  0.00    +0.000 C 
BRANCH  14  15
ATOM     15  N   UNL     1      45.006   4.301   8.129  0.00  0.00    +0.000 NA
ATOM     16  H   UNL     1      44.304   4.542   7.432  0.00  0.00    +0.000 HD
BRANCH  15  17
ATOM     17  C   UNL     1      46.087   3.555   7.486  0.00  0.00    +0.000 C 
BRANCH  17  18
ATOM     18  C   UNL     1      46.115   2.110   8.005  0.00  0.00    +0.000 C 
BRANCH  18  20
ATOM     19  C   UNL     1      47.937   2.224   6.521  0.00  0.00    +0.000 C 
ATOM     20  O   UNL     1      47.299   1.461   7.538  0.00  0.00    +0.000 OA
ENDBRANCH  18  20
ENDBRANCH  17  18
ENDBRANCH  15  17
ENDBRANCH  14  15
ENDBRANCH   8  14
ENDBRANCH   7  12
ENDBRANCH   1   7
BRANCH   4  21
ATOM     21  C   UNL     1      50.225   7.827  15.052  0.00  0.00    +0.000 C 
BRANCH  21  22
ATOM     22  N   UNL     1      49.851   7.689  16.436  0.00  0.00    +0.000 N 
ATOM     23  C   UNL     1      49.541   6.455  16.954  0.00  0.00    +0.000 C 
ATOM     24  O   UNL     1      49.619   5.430  16.283  0.00  0.00    +0.000 OA
ATOM     25  H   UNL     1      49.522   8.520  16.918  0.00  0.00    +0.000 HD
BRANCH  23  26
ATOM     26  C   UNL     1      49.174   6.418  18.373  0.00  0.00    +0.000 A 
ATOM     27  C   UNL     1      48.028   7.072  18.807  0.00  0.00    +0.000 A 
ATOM     28  S   UNL     1      47.719   6.877  20.473  0.00  0.00    +0.000 S 
ATOM     29  C   UNL     1      49.138   5.960  20.684  0.00  0.00    +0.000 A 
ATOM     30  N   UNL     1      49.493   5.491  21.910  0.00  0.00    +0.000 NA
ATOM     31  C   UNL     1      50.609   4.841  21.929  0.00  0.00    +0.000 A 
ATOM     32  N   UNL     1      51.400   4.612  20.833  0.00  0.00    +0.000 N 
ATOM     33  C   UNL     1      51.060   5.036  19.572  0.00  0.00    +0.000 A 
ATOM     34  O   UNL     1      51.762   4.767  18.595  0.00  0.00    +0.000 OA
ATOM     35  C   UNL     1      49.824   5.788  19.497  0.00  0.00    +0.000 A 
ATOM     36  H   UNL     1      52.257   4.087  20.915  0.00  0.00    +0.000 HD
ENDBRANCH  23  26
ENDBRANCH  21  22
ENDBRANCH   4  21
TORSDOF 10
ENDMDL
MODEL 7
REMARK VINA RESULT:    -6.395      3.805      9.451
REMARK INTER + INTRA:         -11.093
REMARK INTER:                  -9.302
REMARK INTRA:                  -1.791
REMARK UNBOUND:                -0.959
REMARK  Name = 
REMARK  11 active torsions:
REMARK  status: ('A' for Active; 'I' for Inactive)
REMARK    1  A    between atoms: C_1  and  O_2
REMARK    2  A    between atoms: O_2  and  C_3
REMARK    3  A    between atoms: C_3  and  C_4
REMARK    4  A    between atoms: C_4  and  N_5
REMARK    5  A    between atoms: N_5  and  C_6
REMARK    6  A    between atoms: C_6  and  C_7
REMARK    7  A    between atoms: C_11  and  O_12
REMARK    8  A    between atoms: O_12  and  C_13
REMARK    9  A    between atoms: C_16  and  C_17
REMARK   10  A    between atoms: C_17  and  N_18
REMARK   11  A    between atoms: C_19  and  C_21
REMARK                            x       y       z     vdW  Elec       q    Type
REMARK                         _______ _______ _______ _____ _____    ______ ____
ROOT
ATOM      1  C   UNL     1      51.023   4.172  18.461  0.00  0.00    +0.000 A 
ATOM      2  C   UNL     1      50.894   3.083  17.610  0.00  0.00    +0.000 A 
ATOM      3  C   UNL     1      49.627   2.782  17.103  0.00  0.00    +0.000 A 
ATOM      4  C   UNL     1      48.534   3.583  17.446  0.00  0.00    +0.000 A 
ATOM      5  C   UNL     1      48.766   4.631  18.327  0.00  0.00    +0.000 A 
ATOM      6  N   UNL     1      49.982   4.956  18.817  0.00  0.00    +0.000 NA
ENDROOT
BRANCH   1   7
ATOM      7  O   UNL     1      52.300   4.467  18.931  0.00  0.00    +0.000 OA
BRANCH   7  12
ATOM      8  C   UNL     1      53.933   6.727  16.539  0.00  0.00    +0.000 A 
ATOM      9  C   UNL     1      55.042   5.949  16.162  0.00  0.00    +0.000 A 
ATOM     10  C   UNL     1      55.212   4.660  16.660  0.00  0.00    +0.000 A 
ATOM     11  C   UNL     1      54.291   4.142  17.566  0.00  0.00    +0.000 A 
ATOM     12  C   UNL     1      53.227   4.927  18.019  0.00  0.00    +0.000 A 
ATOM     13  C   UNL     1      53.030   6.206  17.482  0.00  0.00    +0.000 A 
BRANCH   8  14
ATOM     14  C   UNL     1      53.724   8.094  15.927  0.00  0.00    +0.000 C 
BRANCH  14  15
ATOM     15  N   UNL     1      52.347   8.543  16.141  0.00  0.00    +0.000 NA
ATOM     16  H   UNL     1      51.864   7.858  16.719  0.00  0.00    +0.000 HD
BRANCH  15  17
ATOM     17  C   UNL     1      51.623   8.707  14.881  0.00  0.00    +0.000 C 
BRANCH  17  18
ATOM     18  C   UNL     1      50.522   7.645  14.761  0.00  0.00    +0.000 C 
BRANCH  18  20
ATOM     19  C   UNL     1      48.917   7.909  16.459  0.00  0.00    +0.000 C 
ATOM     20  O   UNL     1      50.108   7.239  16.066  0.00  0.00    +0.000 OA
ENDBRANCH  18  20
ENDBRANCH  17  18
ENDBRANCH  15  17
ENDBRANCH  14  15
ENDBRANCH   8  14
ENDBRANCH   7  12
ENDBRANCH   1   7
BRANCH   4  21
ATOM     21  C   UNL     1      47.155   3.358  16.902  0.00  0.00    +0.000 C 
BRANCH  21  22
ATOM     22  N   UNL     1      46.770   4.369  15.952  0.00  0.00    +0.000 N 
ATOM     23  C   UNL     1      46.934   4.158  14.605  0.00  0.00    +0.000 C 
ATOM     24  O   UNL     1      47.358   3.095  14.160  0.00  0.00    +0.000 OA
ATOM     25  H   UNL     1      46.682   5.322  16.291  0.00  0.00    +0.000 HD
BRANCH  23  26
ATOM     26  C   UNL     1      46.510   5.246  13.718  0.00  0.00    +0.000 A 
ATOM     27  C   UNL     1      47.345   6.338  13.517  0.00  0.00    +0.000 A 
ATOM     28  S   UNL     1      46.725   7.480  12.413  0.00  0.00    +0.000 S 
ATOM     29  C   UNL     1      45.292   6.584  12.209  0.00  0.00    +0.000 A 
ATOM     30  N   UNL     1      44.298   7.029  11.394  0.00  0.00    +0.000 NA
ATOM     31  C   UNL     1      43.255   6.267  11.361  0.00  0.00    +0.000 A 
ATOM     32  N   UNL     1      43.118   5.098  12.063  0.00  0.00    +0.000 N 
ATOM     33  C   UNL     1      44.110   4.595  12.868  0.00  0.00    +0.000 A 
ATOM     34  O   UNL     1      43.982   3.513  13.443  0.00  0.00    +0.000 OA
ATOM     35  C   UNL     1      45.297   5.421  12.956  0.00  0.00    +0.000 A 
ATOM     36  H   UNL     1      42.280   4.544  11.984  0.00  0.00    +0.000 HD
ENDBRANCH  23  26
ENDBRANCH  21  22
ENDBRANCH   4  21
TORSDOF 10
ENDMDL
MODEL 8
REMARK VINA RESULT:    -6.390      5.853      7.681
REMARK INTER + INTRA:         -11.084
REMARK INTER:                 -10.017
REMARK INTRA:                  -1.067
REMARK UNBOUND:                -0.959
REMARK  Name = 
REMARK  11 active torsions:
REMARK  status: ('A' for Active; 'I' for Inactive)
REMARK    1  A    between atoms: C_1  and  O_2
REMARK    2  A    between atoms: O_2  and  C_3
REMARK    3  A    between atoms: C_3  and  C_4
REMARK    4  A    between atoms: C_4  and  N_5
REMARK    5  A    between atoms: N_5  and  C_6
REMARK    6  A    between atoms: C_6  and  C_7
REMARK    7  A    between atoms: C_11  and  O_12
REMARK    8  A    between atoms: O_12  and  C_13
REMARK    9  A    between atoms: C_16  and  C_17
REMARK   10  A    between atoms: C_17  and  N_18
REMARK   11  A    between atoms: C_19  and  C_21
REMARK                            x       y       z     vdW  Elec       q    Type
REMARK                         _______ _______ _______ _____ _____    ______ ____
ROOT
ATOM      1  C   UNL     1      46.951   7.400  12.570  0.00  0.00    +0.000 A 
ATOM      2  C   UNL     1      47.227   8.651  12.036  0.00  0.00    +0.000 A 
ATOM      3  C   UNL     1      48.562   9.005  11.829  0.00  0.00    +0.000 A 
ATOM      4  C   UNL     1      49.578   8.098  12.143  0.00  0.00    +0.000 A 
ATOM      5  C   UNL     1      49.196   6.884  12.698  0.00  0.00    +0.000 A 
ATOM      6  N   UNL     1      47.914   6.508  12.892  0.00  0.00    +0.000 NA
ENDROOT
BRANCH   1   7
ATOM      7  O   UNL     1      45.611   7.060  12.742  0.00  0.00    +0.000 OA
BRANCH   7  12
ATOM      8  C   UNL     1      44.886   4.495  10.214  0.00  0.00    +0.000 A 
ATOM      9  C   UNL     1      44.333   3.485  11.020  0.00  0.00    +0.000 A 
ATOM     10  C   UNL     1      44.153   3.681  12.387  0.00  0.00    +0.000 A 
ATOM     11  C   UNL     1      44.552   4.880  12.972  0.00  0.00    +0.000 A 
ATOM     12  C   UNL     1      45.180   5.865  12.205  0.00  0.00    +0.000 A 
ATOM     13  C   UNL     1      45.318   5.687  10.823  0.00  0.00    +0.000 A 
BRANCH   8  14
ATOM     14  C   UNL     1      45.001   4.294   8.719  0.00  0.00    +0.000 C 
BRANCH  14  15
ATOM     15  N   UNL     1      45.982   3.249   8.420  0.00  0.00    +0.000 NA
ATOM     16  H   UNL     1      46.727   3.288   9.113  0.00  0.00    +0.000 HD
BRANCH  15  17
ATOM     17  C   UNL     1      46.559   3.406   7.085  0.00  0.00    +0.000 C 
BRANCH  17  18
ATOM     18  C   UNL     1      47.686   2.387   6.871  0.00  0.00    +0.000 C 
BRANCH  18  20
ATOM     19  C   UNL     1      46.923   0.252   7.496  0.00  0.00    +0.000 C 
ATOM     20  O   UNL     1      47.130   1.153   6.415  0.00  0.00    +0.000 OA
ENDBRANCH  18  20
ENDBRANCH  17  18
ENDBRANCH  15  17
ENDBRANCH  14  15
ENDBRANCH   8  14
ENDBRANCH   7  12
ENDBRANCH   1   7
BRANCH   4  21
ATOM     21  C   UNL     1      51.030   8.383  11.899  0.00  0.00    +0.000 C 
BRANCH  21  22
ATOM     22  N   UNL     1      51.485   7.862  10.636  0.00  0.00    +0.000 N 
ATOM     23  C   UNL     1      52.792   7.470  10.474  0.00  0.00    +0.000 C 
ATOM     24  O   UNL     1      53.598   7.498  11.399  0.00  0.00    +0.000 OA
ATOM     25  H   UNL     1      50.934   8.082   9.812  0.00  0.00    +0.000 HD
BRANCH  23  26
ATOM     26  C   UNL     1      53.158   6.952   9.152  0.00  0.00    +0.000 A 
ATOM     27  C   UNL     1      53.537   5.624   9.012  0.00  0.00    +0.000 A 
ATOM     28  S   UNL     1      53.872   5.174   7.401  0.00  0.00    +0.000 S 
ATOM     29  C   UNL     1      53.577   6.755   6.842  0.00  0.00    +0.000 A 
ATOM     30  N   UNL     1      53.716   7.070   5.526  0.00  0.00    +0.000 NA
ATOM     31  C   UNL     1      53.494   8.312   5.249  0.00  0.00    +0.000 A 
ATOM     32  N   UNL     1      53.140   9.267   6.167  0.00  0.00    +0.000 N 
ATOM     33  C   UNL     1      52.954   8.984   7.498  0.00  0.00    +0.000 A 
ATOM     34  O   UNL     1      52.582   9.850   8.291  0.00  0.00    +0.000 OA
ATOM     35  C   UNL     1      53.209   7.606   7.867  0.00  0.00    +0.000 A 
ATOM     36  H   UNL     1      52.972  10.219   5.882  0.00  0.00    +0.000 HD
ENDBRANCH  23  26
ENDBRANCH  21  22
ENDBRANCH   4  21
TORSDOF 10
ENDMDL
MODEL 9
REMARK VINA RESULT:    -5.974      4.195      9.142
REMARK INTER + INTRA:         -10.426
REMARK INTER:                  -8.288
REMARK INTRA:                  -2.138
REMARK UNBOUND:                -0.959
REMARK  Name = 
REMARK  11 active torsions:
REMARK  status: ('A' for Active; 'I' for Inactive)
REMARK    1  A    between atoms: C_1  and  O_2
REMARK    2  A    between atoms: O_2  and  C_3
REMARK    3  A    between atoms: C_3  and  C_4
REMARK    4  A    between atoms: C_4  and  N_5
REMARK    5  A    between atoms: N_5  and  C_6
REMARK    6  A    between atoms: C_6  and  C_7
REMARK    7  A    between atoms: C_11  and  O_12
REMARK    8  A    between atoms: O_12  and  C_13
REMARK    9  A    between atoms: C_16  and  C_17
REMARK   10  A    between atoms: C_17  and  N_18
REMARK   11  A    between atoms: C_19  and  C_21
REMARK                            x       y       z     vdW  Elec       q    Type
REMARK                         _______ _______ _______ _____ _____    ______ ____
ROOT
ATOM      1  C   UNL     1      51.018   4.403  18.530  0.00  0.00    +0.000 A 
ATOM      2  C   UNL     1      50.910   3.302  17.693  0.00  0.00    +0.000 A 
ATOM      3  C   UNL     1      49.637   2.904  17.278  0.00  0.00    +0.000 A 
ATOM      4  C   UNL     1      48.514   3.624  17.696  0.00  0.00    +0.000 A 
ATOM      5  C   UNL     1      48.730   4.694  18.556  0.00  0.00    +0.000 A 
ATOM      6  N   UNL     1      49.949   5.111  18.958  0.00  0.00    +0.000 NA
ENDROOT
BRANCH   1   7
ATOM      7  O   UNL     1      52.300   4.796  18.908  0.00  0.00    +0.000 OA
BRANCH   7  12
ATOM      8  C   UNL     1      53.760   6.536  16.021  0.00  0.00    +0.000 A 
ATOM      9  C   UNL     1      54.944   5.798  15.844  0.00  0.00    +0.000 A 
ATOM     10  C   UNL     1      55.223   4.695  16.647  0.00  0.00    +0.000 A 
ATOM     11  C   UNL     1      54.338   4.333  17.658  0.00  0.00    +0.000 A 
ATOM     12  C   UNL     1      53.197   5.102  17.906  0.00  0.00    +0.000 A 
ATOM     13  C   UNL     1      52.892   6.182  17.069  0.00  0.00    +0.000 A 
BRANCH   8  14
ATOM     14  C   UNL     1      53.436   7.683  15.089  0.00  0.00    +0.000 C 
BRANCH  14  15
ATOM     15  N   UNL     1      52.056   7.576  14.611  0.00  0.00    +0.000 NA
ATOM     16  H   UNL     1      51.890   6.622  14.296  0.00  0.00    +0.000 HD
BRANCH  15  17
ATOM     17  C   UNL     1      51.786   8.500  13.510  0.00  0.00    +0.000 C 
BRANCH  17  18
ATOM     18  C   UNL     1      51.779   9.947  14.023  0.00  0.00    +0.000 C 
BRANCH  18  20
ATOM     19  C   UNL     1      49.948  10.151  15.485  0.00  0.00    +0.000 C 
ATOM     20  O   UNL     1      50.430  10.393  14.169  0.00  0.00    +0.000 OA
ENDBRANCH  18  20
ENDBRANCH  17  18
ENDBRANCH  15  17
ENDBRANCH  14  15
ENDBRANCH   8  14
ENDBRANCH   7  12
ENDBRANCH   1   7
BRANCH   4  21
ATOM     21  C   UNL     1      47.121   3.294  17.252  0.00  0.00    +0.000 C 
BRANCH  21  22
ATOM     22  N   UNL     1      46.643   4.194  16.234  0.00  0.00    +0.000 N 
ATOM     23  C   UNL     1      46.970   3.992  14.915  0.00  0.00    +0.000 C 
ATOM     24  O   UNL     1      47.628   3.022  14.550  0.00  0.00    +0.000 OA
ATOM     25  H   UNL     1      46.346   5.120  16.529  0.00  0.00    +0.000 HD
BRANCH  23  26
ATOM     26  C   UNL     1      46.435   4.962  13.955  0.00  0.00    +0.000 A 
ATOM     27  C   UNL     1      45.221   4.714  13.327  0.00  0.00    +0.000 A 
ATOM     28  S   UNL     1      44.719   5.970  12.288  0.00  0.00    +0.000 S 
ATOM     29  C   UNL     1      46.135   6.863  12.596  0.00  0.00    +0.000 A 
ATOM     30  N   UNL     1      46.356   8.058  11.985  0.00  0.00    +0.000 NA
ATOM     31  C   UNL     1      47.486   8.609  12.285  0.00  0.00    +0.000 A 
ATOM     32  N   UNL     1      48.412   8.076  13.144  0.00  0.00    +0.000 N 
ATOM     33  C   UNL     1      48.213   6.891  13.808  0.00  0.00    +0.000 A 
ATOM     34  O   UNL     1      49.037   6.464  14.618  0.00  0.00    +0.000 OA
ATOM     35  C   UNL     1      46.968   6.221  13.494  0.00  0.00    +0.000 A 
ATOM     36  H   UNL     1      49.272   8.564  13.343  0.00  0.00    +0.000 HD
ENDBRANCH  23  26
ENDBRANCH  21  22
ENDBRANCH   4  21
TORSDOF 10
ENDMDL
