MODEL 1
REMARK VINA RESULT:    -8.029      0.000      0.000
REMARK INTER + INTRA:         -14.073
REMARK INTER:                 -12.957
REMARK INTRA:                  -1.116
REMARK UNBOUND:                -1.116
REMARK  Name = 
REMARK  16 active torsions:
REMARK  status: ('A' for Active; 'I' for Inactive)
REMARK    1  A    between atoms: C_1  and  C_2
REMARK    2  A    between atoms: C_2  and  C_3
REMARK    3  A    between atoms: C_6  and  C_7
REMARK    4  A    between atoms: C_7  and  O_8
REMARK    5  A    between atoms: O_8  and  C_9
REMARK    6  A    between atoms: C_13  and  C_14
REMARK    7  A    between atoms: C_14  and  C_15
REMARK    8  A    between atoms: C_14  and  C_16
REMARK    9  A    between atoms: C_14  and  C_17
REMARK   10  A    between atoms: C_17  and  O_18
REMARK   11  A    between atoms: O_18  and  C_19
REMARK   12  A    between atoms: C_22  and  C_23
REMARK   13  A    between atoms: C_23  and  C_24
REMARK   14  A    between atoms: C_23  and  C_25
REMARK   15  A    between atoms: C_25  and  O_26
REMARK   16  A    between atoms: C_30  and  C_31
REMARK                            x       y       z     vdW  Elec       q    Type
REMARK                         _______ _______ _______ _____ _____    ______ ____
ROOT
ATOM      1  C   UNL     1      47.049   4.563  13.991  0.00  0.00    +0.000 A 
ATOM      2  C   UNL     1      47.779   5.657  13.554  0.00  0.00    +0.000 A 
ATOM      3  N   UNL     1      47.300   6.597  12.719  0.00  0.00    +0.000 NA
ATOM      4  C   UNL     1      46.038   6.419  12.265  0.00  0.00    +0.000 A 
ATOM      5  C   UNL     1      45.216   5.333  12.579  0.00  0.00    +0.000 A 
ATOM      6  C   UNL     1      45.766   4.390  13.467  0.00  0.00    +0.000 A 
ENDROOT
BRANCH   5   7
ATOM      7  C   UNL     1      43.801   5.168  11.999  0.00  0.00    +0.000 C 
ATOM      8  C   UNL     1      42.794   4.938  13.148  0.00  0.00    +0.000 C 
ATOM      9  C   UNL     1      43.405   6.458  11.241  0.00  0.00    +0.000 C 
BRANCH   7  10
ATOM     10  C   UNL     1      43.657   3.994  10.978  0.00  0.00    +0.000 C 
BRANCH  10  11
ATOM     11  O   UNL     1      43.702   4.476   9.630  0.00  0.00    +0.000 OA
BRANCH  11  12
ATOM     12  C   UNL     1      44.694   3.975   8.847  0.00  0.00    +0.000 C 
ATOM     13  C   UNL     1      45.745   4.856   8.440  0.00  0.00    +0.000 C 
ATOM     14  N   UNL     1      46.635   4.170   7.655  0.00  0.00    +0.000 NA
ATOM     15  C   UNL     1      46.154   2.955   7.615  0.00  0.00    +0.000 C 
ATOM     16  C   UNL     1      44.895   2.752   8.350  0.00  0.00    +0.000 C 
BRANCH  15  17
ATOM     17  C   UNL     1      46.820   1.822   6.873  0.00  0.00    +0.000 C 
ATOM     18  C   UNL     1      46.788   0.556   7.726  0.00  0.00    +0.000 C 
BRANCH  17  19
ATOM     19  C   UNL     1      48.244   2.231   6.489  0.00  0.00    +0.000 C 
BRANCH  19  20
ATOM     20  O   UNL     1      48.581   1.837   5.166  0.00  0.00    +0.000 OA
ATOM     21  H   UNL     1      49.549   1.963   5.068  0.00  0.00    +0.000 HD
ENDBRANCH  19  20
ENDBRANCH  17  19
ENDBRANCH  15  17
ENDBRANCH  11  12
ENDBRANCH  10  11
ENDBRANCH   7  10
ENDBRANCH   5   7
BRANCH   1  22
ATOM     22  O   UNL     1      47.478   3.634  14.900  0.00  0.00    +0.000 OA
BRANCH  22  23
ATOM     23  C   UNL     1      47.368   4.054  16.271  0.00  0.00    +0.000 C 
BRANCH  23  27
ATOM     24  C   UNL     1      51.134   3.858  18.181  0.00  0.00    +0.000 A 
ATOM     25  C   UNL     1      50.313   4.970  18.265  0.00  0.00    +0.000 A 
ATOM     26  N   UNL     1      49.110   5.073  17.670  0.00  0.00    +0.000 NA
ATOM     27  C   UNL     1      48.712   4.006  16.957  0.00  0.00    +0.000 A 
ATOM     28  N   UNL     1      49.416   2.861  16.840  0.00  0.00    +0.000 NA
ATOM     29  C   UNL     1      50.614   2.793  17.460  0.00  0.00    +0.000 A 
ATOM     30  C   UNL     1      51.350   1.499  17.283  0.00  0.00    +0.000 C 
BRANCH  24  32
ATOM     31  C   UNL     1      52.571   4.799  20.022  0.00  0.00    +0.000 C 
ATOM     32  C   UNL     1      52.481   3.845  18.843  0.00  0.00    +0.000 C 
ENDBRANCH  24  32
ENDBRANCH  23  27
ENDBRANCH  22  23
ENDBRANCH   1  22
TORSDOF 11
ENDMDL
MODEL 2
REMARK VINA RESULT:    -7.900      1.974      2.444
REMARK INTER + INTRA:         -13.866
REMARK INTER:                 -12.642
REMARK INTRA:                  -1.223
REMARK UNBOUND:                -1.116
REMARK  Name = 
REMARK  16 active torsions:
REMARK  status: ('A' for Active; 'I' for Inactive)
REMARK    1  A    between atoms: C_1  and  C_2
REMARK    2  A    between atoms: C_2  and  C_3
REMARK    3  A    between atoms: C_6  and  C_7
REMARK    4  A    between atoms: C_7  and  O_8
REMARK    5  A    between atoms: O_8  and  C_9
REMARK    6  A    between atoms: C_13  and  C_14
REMARK    7  A    between atoms: C_14  and  C_15
REMARK    8  A    between atoms: C_14  and  C_16
REMARK    9  A    between atoms: C_14  and  C_17
REMARK   10  A    between atoms: C_17  and  O_18
REMARK   11  A    between atoms: O_18  and  C_19
REMARK   12  A    between atoms: C_22  and  C_23
REMARK   13  A    between atoms: C_23  and  C_24
REMARK   14  A    between atoms: C_23  and  C_25
REMARK   15  A    between atoms: C_25  and  O_26
REMARK   16  A    between atoms: C_30  and  C_31
REMARK                            x       y       z     vdW  Elec       q    Type
REMARK                         _______ _______ _______ _____ _____    ______ ____
ROOT
ATOM      1  C   UNL     1      47.574   6.745  12.770  0.00  0.00    +0.000 A 
ATOM      2  C   UNL     1      47.193   8.042  12.464  0.00  0.00    +0.000 A 
ATOM      3  N   UNL     1      45.943   8.398  12.114  0.00  0.00    +0.000 NA
ATOM      4  C   UNL     1      45.031   7.403  12.029  0.00  0.00    +0.000 A 
ATOM      5  C   UNL     1      45.295   6.048  12.252  0.00  0.00    +0.000 A 
ATOM      6  C   UNL     1      46.615   5.739  12.627  0.00  0.00    +0.000 A 
ENDROOT
BRANCH   5   7
ATOM      7  C   UNL     1      44.220   4.957  12.100  0.00  0.00    +0.000 C 
ATOM      8  C   UNL     1      44.799   3.596  12.546  0.00  0.00    +0.000 C 
ATOM      9  C   UNL     1      43.010   5.302  13.000  0.00  0.00    +0.000 C 
BRANCH   7  10
ATOM     10  C   UNL     1      43.662   4.801  10.649  0.00  0.00    +0.000 C 
BRANCH  10  11
ATOM     11  O   UNL     1      43.740   3.439  10.212  0.00  0.00    +0.000 OA
BRANCH  11  12
ATOM     12  C   UNL     1      44.642   3.176   9.229  0.00  0.00    +0.000 C 
ATOM     13  C   UNL     1      45.247   4.282   8.553  0.00  0.00    +0.000 C 
ATOM     14  N   UNL     1      46.111   3.813   7.598  0.00  0.00    +0.000 NA
ATOM     15  C   UNL     1      46.039   2.513   7.714  0.00  0.00    +0.000 C 
ATOM     16  C   UNL     1      45.101   2.024   8.736  0.00  0.00    +0.000 C 
BRANCH  15  17
ATOM     17  C   UNL     1      46.847   1.558   6.868  0.00  0.00    +0.000 C 
ATOM     18  C   UNL     1      46.938   0.203   7.565  0.00  0.00    +0.000 C 
BRANCH  17  19
ATOM     19  C   UNL     1      48.224   2.164   6.588  0.00  0.00    +0.000 C 
BRANCH  19  20
ATOM     20  O   UNL     1      48.235   2.961   5.411  0.00  0.00    +0.000 OA
ATOM     21  H   UNL     1      49.156   2.962   5.075  0.00  0.00    +0.000 HD
ENDBRANCH  19  20
ENDBRANCH  17  19
ENDBRANCH  15  17
ENDBRANCH  11  12
ENDBRANCH  10  11
ENDBRANCH   7  10
ENDBRANCH   5   7
BRANCH   1  22
ATOM     22  O   UNL     1      48.814   6.363  13.205  0.00  0.00    +0.000 OA
BRANCH  22  23
ATOM     23  C   UNL     1      49.374   7.218  14.215  0.00  0.00    +0.000 C 
BRANCH  23  27
ATOM     24  C   UNL     1      48.230   5.867  18.054  0.00  0.00    +0.000 A 
ATOM     25  C   UNL     1      48.660   7.162  17.817  0.00  0.00    +0.000 A 
ATOM     26  N   UNL     1      49.035   7.630  16.612  0.00  0.00    +0.000 NA
ATOM     27  C   UNL     1      48.974   6.754  15.595  0.00  0.00    +0.000 A 
ATOM     28  N   UNL     1      48.536   5.483  15.708  0.00  0.00    +0.000 NA
ATOM     29  C   UNL     1      48.160   5.054  16.932  0.00  0.00    +0.000 A 
ATOM     30  C   UNL     1      47.693   3.630  16.991  0.00  0.00    +0.000 C 
BRANCH  24  32
ATOM     31  C   UNL     1      49.063   4.886  20.218  0.00  0.00    +0.000 C 
ATOM     32  C   UNL     1      47.870   5.417  19.439  0.00  0.00    +0.000 C 
ENDBRANCH  24  32
ENDBRANCH  23  27
ENDBRANCH  22  23
ENDBRANCH   1  22
TORSDOF 11
ENDMDL
MODEL 3
REMARK VINA RESULT:    -7.620      2.370      8.755
REMARK INTER + INTRA:         -13.413
REMARK INTER:                 -11.941
REMARK INTRA:                  -1.472
REMARK UNBOUND:                -1.116
REMARK  Name = 
REMARK  16 active torsions:
REMARK  status: ('A' for Active; 'I' for Inactive)
REMARK    1  A    between atoms: C_1  and  C_2
REMARK    2  A    between atoms: C_2  and  C_3
REMARK    3  A    between atoms: C_6  and  C_7
REMARK    4  A    between atoms: C_7  and  O_8
REMARK    5  A    between atoms: O_8  and  C_9
REMARK    6  A    between atoms: C_13  and  C_14
REMARK    7  A    between atoms: C_14  and  C_15
REMARK    8  A    between atoms: C_14  and  C_16
REMARK    9  A    between atoms: C_14  and  C_17
REMARK   10  A    between atoms: C_17  and  O_18
REMARK   11  A    between atoms: O_18  and  C_19
REMARK   12  A    between atoms: C_22  and  C_23
REMARK   13  A    between atoms: C_23  and  C_24
REMARK   14  A    between atoms: C_23  and  C_25
REMARK   15  A    between atoms: C_25  and  O_26
REMARK   16  A    between atoms: C_30  and  C_31
REMARK                            x       y       z     vdW  Elec       q    Type
REMARK                         _______ _______ _______ _____ _____    ______ ____
ROOT
ATOM      1  C   UNL     1      44.923   5.891  11.500  0.00  0.00    +0.000 A 
ATOM      2  C   UNL     1      44.020   6.922  11.296  0.00  0.00    +0.000 A 
ATOM      3  N   UNL     1      44.325   8.226  11.429  0.00  0.00    +0.000 NA
ATOM      4  C   UNL     1      45.586   8.518  11.821  0.00  0.00    +0.000 A 
ATOM      5  C   UNL     1      46.575   7.575  12.117  0.00  0.00    +0.000 A 
ATOM      6  C   UNL     1      46.203   6.229  11.947  0.00  0.00    +0.000 A 
ENDROOT
BRANCH   5   7
ATOM      7  C   UNL     1      47.982   7.971  12.598  0.00  0.00    +0.000 C 
ATOM      8  C   UNL     1      48.885   8.252  11.377  0.00  0.00    +0.000 C 
ATOM      9  C   UNL     1      47.888   9.257  13.453  0.00  0.00    +0.000 C 
BRANCH   7  10
ATOM     10  C   UNL     1      48.683   6.897  13.490  0.00  0.00    +0.000 C 
BRANCH  10  11
ATOM     11  O   UNL     1      48.173   6.928  14.829  0.00  0.00    +0.000 OA
BRANCH  11  12
ATOM     12  C   UNL     1      48.113   5.734  15.475  0.00  0.00    +0.000 C 
ATOM     13  C   UNL     1      47.313   4.694  14.903  0.00  0.00    +0.000 C 
ATOM     14  N   UNL     1      47.374   3.582  15.702  0.00  0.00    +0.000 NA
ATOM     15  C   UNL     1      48.175   3.932  16.674  0.00  0.00    +0.000 C 
ATOM     16  C   UNL     1      48.683   5.311  16.606  0.00  0.00    +0.000 C 
BRANCH  15  17
ATOM     17  C   UNL     1      48.565   3.007  17.802  0.00  0.00    +0.000 C 
ATOM     18  C   UNL     1      48.779   3.814  19.080  0.00  0.00    +0.000 C 
BRANCH  17  19
ATOM     19  C   UNL     1      49.806   2.208  17.401  0.00  0.00    +0.000 C 
BRANCH  19  20
ATOM     20  O   UNL     1      49.752   1.766  16.051  0.00  0.00    +0.000 OA
ATOM     21  H   UNL     1      49.220   2.424  15.556  0.00  0.00    +0.000 HD
ENDBRANCH  19  20
ENDBRANCH  17  19
ENDBRANCH  15  17
ENDBRANCH  11  12
ENDBRANCH  10  11
ENDBRANCH   7  10
ENDBRANCH   5   7
BRANCH   1  22
ATOM     22  O   UNL     1      44.669   4.562  11.297  0.00  0.00    +0.000 OA
BRANCH  22  23
ATOM     23  C   UNL     1      44.062   4.264  10.028  0.00  0.00    +0.000 C 
BRANCH  23  27
ATOM     24  C   UNL     1      46.952   2.872   7.274  0.00  0.00    +0.000 A 
ATOM     25  C   UNL     1      46.706   4.220   7.479  0.00  0.00    +0.000 A 
ATOM     26  N   UNL     1      45.794   4.703   8.344  0.00  0.00    +0.000 NA
ATOM     27  C   UNL     1      45.095   3.787   9.036  0.00  0.00    +0.000 A 
ATOM     28  N   UNL     1      45.280   2.455   8.940  0.00  0.00    +0.000 NA
ATOM     29  C   UNL     1      46.211   2.010   8.069  0.00  0.00    +0.000 A 
ATOM     30  C   UNL     1      46.359   0.519   8.002  0.00  0.00    +0.000 C 
BRANCH  24  32
ATOM     31  C   UNL     1      47.455   2.544   4.829  0.00  0.00    +0.000 C 
ATOM     32  C   UNL     1      47.959   2.421   6.258  0.00  0.00    +0.000 C 
ENDBRANCH  24  32
ENDBRANCH  23  27
ENDBRANCH  22  23
ENDBRANCH   1  22
TORSDOF 11
ENDMDL
MODEL 4
REMARK VINA RESULT:    -7.379      2.502      9.307
REMARK INTER + INTRA:         -13.025
REMARK INTER:                 -11.813
REMARK INTRA:                  -1.212
REMARK UNBOUND:                -1.116
REMARK  Name = 
REMARK  16 active torsions:
REMARK  status: ('A' for Active; 'I' for Inactive)
REMARK    1  A    between atoms: C_1  and  C_2
REMARK    2  A    between atoms: C_2  and  C_3
REMARK    3  A    between atoms: C_6  and  C_7
REMARK    4  A    between atoms: C_7  and  O_8
REMARK    5  A    between atoms: O_8  and  C_9
REMARK    6  A    between atoms: C_13  and  C_14
REMARK    7  A    between atoms: C_14  and  C_15
REMARK    8  A    between atoms: C_14  and  C_16
REMARK    9  A    between atoms: C_14  and  C_17
REMARK   10  A    between atoms: C_17  and  O_18
REMARK   11  A    between atoms: O_18  and  C_19
REMARK   12  A    between atoms: C_22  and  C_23
REMARK   13  A    between atoms: C_23  and  C_24
REMARK   14  A    between atoms: C_23  and  C_25
REMARK   15  A    between atoms: C_25  and  O_26
REMARK   16  A    between atoms: C_30  and  C_31
REMARK                            x       y       z     vdW  Elec       q    Type
REMARK                         _______ _______ _______ _____ _____    ______ ____
ROOT
ATOM      1  C   UNL     1      45.137   4.727  11.804  0.00  0.00    +0.000 A 
ATOM      2  C   UNL     1      45.363   3.746  12.756  0.00  0.00    +0.000 A 
ATOM      3  N   UNL     1      46.258   3.858  13.755  0.00  0.00    +0.000 NA
ATOM      4  C   UNL     1      46.993   4.993  13.787  0.00  0.00    +0.000 A 
ATOM      5  C   UNL     1      46.908   6.033  12.856  0.00  0.00    +0.000 A 
ATOM      6  C   UNL     1      45.946   5.865  11.843  0.00  0.00    +0.000 A 
ENDROOT
BRANCH   5   7
ATOM      7  C   UNL     1      47.802   7.283  12.924  0.00  0.00    +0.000 C 
ATOM      8  C   UNL     1      49.242   6.912  12.507  0.00  0.00    +0.000 C 
ATOM      9  C   UNL     1      47.261   8.353  11.945  0.00  0.00    +0.000 C 
BRANCH   7  10
ATOM     10  C   UNL     1      47.856   7.959  14.331  0.00  0.00    +0.000 C 
BRANCH  10  11
ATOM     11  O   UNL     1      49.026   7.552  15.052  0.00  0.00    +0.000 OA
BRANCH  11  12
ATOM     12  C   UNL     1      48.814   7.012  16.281  0.00  0.00    +0.000 C 
ATOM     13  C   UNL     1      48.569   7.898  17.377  0.00  0.00    +0.000 C 
ATOM     14  N   UNL     1      48.392   7.167  18.522  0.00  0.00    +0.000 NA
ATOM     15  C   UNL     1      48.505   5.926  18.128  0.00  0.00    +0.000 C 
ATOM     16  C   UNL     1      48.792   5.744  16.697  0.00  0.00    +0.000 C 
BRANCH  15  17
ATOM     17  C   UNL     1      48.359   4.744  19.056  0.00  0.00    +0.000 C 
ATOM     18  C   UNL     1      49.551   4.685  20.009  0.00  0.00    +0.000 C 
BRANCH  17  19
ATOM     19  C   UNL     1      48.208   3.464  18.232  0.00  0.00    +0.000 C 
BRANCH  19  20
ATOM     20  O   UNL     1      46.847   3.144  17.974  0.00  0.00    +0.000 OA
ATOM     21  H   UNL     1      46.638   3.484  17.078  0.00  0.00    +0.000 HD
ENDBRANCH  19  20
ENDBRANCH  17  19
ENDBRANCH  15  17
ENDBRANCH  11  12
ENDBRANCH  10  11
ENDBRANCH   7  10
ENDBRANCH   5   7
BRANCH   1  22
ATOM     22  O   UNL     1      44.182   4.678  10.825  0.00  0.00    +0.000 OA
BRANCH  22  23
ATOM     23  C   UNL     1      43.997   3.376  10.245  0.00  0.00    +0.000 C 
BRANCH  23  27
ATOM     24  C   UNL     1      46.850   2.607   7.223  0.00  0.00    +0.000 A 
ATOM     25  C   UNL     1      46.432   3.887   7.544  0.00  0.00    +0.000 A 
ATOM     26  N   UNL     1      45.525   4.174   8.497  0.00  0.00    +0.000 NA
ATOM     27  C   UNL     1      45.014   3.122   9.159  0.00  0.00    +0.000 A 
ATOM     28  N   UNL     1      45.378   1.840   8.952  0.00  0.00    +0.000 NA
ATOM     29  C   UNL     1      46.298   1.595   7.994  0.00  0.00    +0.000 A 
ATOM     30  C   UNL     1      46.651   0.149   7.806  0.00  0.00    +0.000 C 
BRANCH  24  32
ATOM     31  C   UNL     1      47.283   2.731   4.746  0.00  0.00    +0.000 C 
ATOM     32  C   UNL     1      47.837   2.375   6.116  0.00  0.00    +0.000 C 
ENDBRANCH  24  32
ENDBRANCH  23  27
ENDBRANCH  22  23
ENDBRANCH   1  22
TORSDOF 11
ENDMDL
MODEL 5
REMARK VINA RESULT:    -7.368      3.435      6.789
REMARK INTER + INTRA:         -13.006
REMARK INTER:                 -11.708
REMARK INTRA:                  -1.297
REMARK UNBOUND:                -1.116
REMARK  Name = 
REMARK  16 active torsions:
REMARK  status: ('A' for Active; 'I' for Inactive)
REMARK    1  A    between atoms: C_1  and  C_2
REMARK    2  A    between atoms: C_2  and  C_3
REMARK    3  A    between atoms: C_6  and  C_7
REMARK    4  A    between atoms: C_7  and  O_8
REMARK    5  A    between atoms: O_8  and  C_9
REMARK    6  A    between atoms: C_13  and  C_14
REMARK    7  A    between atoms: C_14  and  C_15
REMARK    8  A    between atoms: C_14  and  C_16
REMARK    9  A    between atoms: C_14  and  C_17
REMARK   10  A    between atoms: C_17  and  O_18
REMARK   11  A    between atoms: O_18  and  C_19
REMARK   12  A    between atoms: C_22  and  C_23
REMARK   13  A    between atoms: C_23  and  C_24
REMARK   14  A    between atoms: C_23  and  C_25
REMARK   15  A    between atoms: C_25  and  O_26
REMARK   16  A    between atoms: C_30  and  C_31
REMARK                            x       y       z     vdW  Elec       q    Type
REMARK                         _______ _______ _______ _____ _____    ______ ____
ROOT
ATOM      1  C   UNL     1      47.024   6.449  12.828  0.00  0.00    +0.000 A 
ATOM      2  C   UNL     1      47.777   5.523  13.533  0.00  0.00    +0.000 A 
ATOM      3  N   UNL     1      47.378   4.261  13.781  0.00  0.00    +0.000 NA
ATOM      4  C   UNL     1      46.149   3.914  13.335  0.00  0.00    +0.000 A 
ATOM      5  C   UNL     1      45.266   4.767  12.666  0.00  0.00    +0.000 A 
ATOM      6  C   UNL     1      45.743   6.068  12.423  0.00  0.00    +0.000 A 
ENDROOT
BRANCH   5   7
ATOM      7  C   UNL     1      43.863   4.323  12.218  0.00  0.00    +0.000 C 
ATOM      8  C   UNL     1      43.723   2.795  12.395  0.00  0.00    +0.000 C 
ATOM      9  C   UNL     1      42.799   5.025  13.097  0.00  0.00    +0.000 C 
BRANCH   7  10
ATOM     10  C   UNL     1      43.517   4.679  10.737  0.00  0.00    +0.000 C 
BRANCH  10  11
ATOM     11  O   UNL     1      43.695   3.545   9.880  0.00  0.00    +0.000 OA
BRANCH  11  12
ATOM     12  C   UNL     1      44.757   3.594   9.033  0.00  0.00    +0.000 C 
ATOM     13  C   UNL     1      45.386   4.859   8.810  0.00  0.00    +0.000 C 
ATOM     14  N   UNL     1      46.421   4.702   7.925  0.00  0.00    +0.000 NA
ATOM     15  C   UNL     1      46.418   3.424   7.655  0.00  0.00    +0.000 C 
ATOM     16  C   UNL     1      45.364   2.642   8.321  0.00  0.00    +0.000 C 
BRANCH  15  17
ATOM     17  C   UNL     1      47.412   2.769   6.726  0.00  0.00    +0.000 C 
ATOM     18  C   UNL     1      46.865   2.770   5.301  0.00  0.00    +0.000 C 
BRANCH  17  19
ATOM     19  C   UNL     1      47.728   1.359   7.229  0.00  0.00    +0.000 C 
BRANCH  19  20
ATOM     20  O   UNL     1      47.002   0.359   6.527  0.00  0.00    +0.000 OA
ATOM     21  H   UNL     1      47.623  -0.049   5.887  0.00  0.00    +0.000 HD
ENDBRANCH  19  20
ENDBRANCH  17  19
ENDBRANCH  15  17
ENDBRANCH  11  12
ENDBRANCH  10  11
ENDBRANCH   7  10
ENDBRANCH   5   7
BRANCH   1  22
ATOM     22  O   UNL     1      47.432   7.711  12.491  0.00  0.00    +0.000 OA
BRANCH  22  23
ATOM     23  C   UNL     1      46.742   8.762  13.189  0.00  0.00    +0.000 C 
BRANCH  23  27
ATOM     24  C   UNL     1      45.050  11.518  10.467  0.00  0.00    +0.000 A 
ATOM     25  C   UNL     1      46.392  11.535  10.806  0.00  0.00    +0.000 A 
ATOM     26  N   UNL     1      46.969  10.677  11.670  0.00  0.00    +0.000 NA
ATOM     27  C   UNL     1      46.156   9.758  12.218  0.00  0.00    +0.000 A 
ATOM     28  N   UNL     1      44.845   9.631  11.930  0.00  0.00    +0.000 NA
ATOM     29  C   UNL     1      44.306  10.504  11.052  0.00  0.00    +0.000 A 
ATOM     30  C   UNL     1      42.843  10.314  10.783  0.00  0.00    +0.000 C 
BRANCH  24  32
ATOM     31  C   UNL     1      44.315  12.013   8.111  0.00  0.00    +0.000 C 
ATOM     32  C   UNL     1      44.482  12.540   9.526  0.00  0.00    +0.000 C 
ENDBRANCH  24  32
ENDBRANCH  23  27
ENDBRANCH  22  23
ENDBRANCH   1  22
TORSDOF 11
ENDMDL
MODEL 6
REMARK VINA RESULT:    -7.222      1.563      2.184
REMARK INTER + INTRA:         -12.770
REMARK INTER:                 -11.556
REMARK INTRA:                  -1.214
REMARK UNBOUND:                -1.116
REMARK  Name = 
REMARK  16 active torsions:
REMARK  status: ('A' for Active; 'I' for Inactive)
REMARK    1  A    between atoms: C_1  and  C_2
REMARK    2  A    between atoms: C_2  and  C_3
REMARK    3  A    between atoms: C_6  and  C_7
REMARK    4  A    between atoms: C_7  and  O_8
REMARK    5  A    between atoms: O_8  and  C_9
REMARK    6  A    between atoms: C_13  and  C_14
REMARK    7  A    between atoms: C_14  and  C_15
REMARK    8  A    between atoms: C_14  and  C_16
REMARK    9  A    between atoms: C_14  and  C_17
REMARK   10  A    between atoms: C_17  and  O_18
REMARK   11  A    between atoms: O_18  and  C_19
REMARK   12  A    between atoms: C_22  and  C_23
REMARK   13  A    between atoms: C_23  and  C_24
REMARK   14  A    between atoms: C_23  and  C_25
REMARK   15  A    between atoms: C_25  and  O_26
REMARK   16  A    between atoms: C_30  and  C_31
REMARK                            x       y       z     vdW  Elec       q    Type
REMARK                         _______ _______ _______ _____ _____    ______ ____
ROOT
ATOM      1  C   UNL     1      47.341   5.164  14.115  0.00  0.00    +0.000 A 
ATOM      2  C   UNL     1      47.296   3.779  14.107  0.00  0.00    +0.000 A 
ATOM      3  N   UNL     1      46.370   3.059  13.448  0.00  0.00    +0.000 NA
ATOM      4  C   UNL     1      45.414   3.756  12.791  0.00  0.00    +0.000 A 
ATOM      5  C   UNL     1      45.308   5.150  12.768  0.00  0.00    +0.000 A 
ATOM      6  C   UNL     1      46.312   5.849  13.463  0.00  0.00    +0.000 A 
ENDROOT
BRANCH   5   7
ATOM      7  C   UNL     1      44.173   5.884  12.033  0.00  0.00    +0.000 C 
ATOM      8  C   UNL     1      42.811   5.304  12.476  0.00  0.00    +0.000 C 
ATOM      9  C   UNL     1      44.216   7.387  12.398  0.00  0.00    +0.000 C 
BRANCH   7  10
ATOM     10  C   UNL     1      44.257   5.804  10.476  0.00  0.00    +0.000 C 
BRANCH  10  11
ATOM     11  O   UNL     1      43.779   4.540   9.999  0.00  0.00    +0.000 OA
BRANCH  11  12
ATOM     12  C   UNL     1      44.646   3.820   9.239  0.00  0.00    +0.000 C 
ATOM     13  C   UNL     1      44.611   2.393   9.342  0.00  0.00    +0.000 C 
ATOM     14  N   UNL     1      45.559   1.854   8.513  0.00  0.00    +0.000 NA
ATOM     15  C   UNL     1      46.109   2.892   7.940  0.00  0.00    +0.000 C 
ATOM     16  C   UNL     1      45.583   4.199   8.367  0.00  0.00    +0.000 C 
BRANCH  15  17
ATOM     17  C   UNL     1      47.210   2.788   6.912  0.00  0.00    +0.000 C 
ATOM     18  C   UNL     1      46.642   3.048   5.519  0.00  0.00    +0.000 C 
BRANCH  17  19
ATOM     19  C   UNL     1      47.883   1.418   7.022  0.00  0.00    +0.000 C 
BRANCH  19  20
ATOM     20  O   UNL     1      47.024   0.360   6.619  0.00  0.00    +0.000 OA
ATOM     21  H   UNL     1      47.214  -0.402   7.207  0.00  0.00    +0.000 HD
ENDBRANCH  19  20
ENDBRANCH  17  19
ENDBRANCH  15  17
ENDBRANCH  11  12
ENDBRANCH  10  11
ENDBRANCH   7  10
ENDBRANCH   5   7
BRANCH   1  22
ATOM     22  O   UNL     1      48.313   5.923  14.708  0.00  0.00    +0.000 OA
BRANCH  22  23
ATOM     23  C   UNL     1      48.281   5.908  16.145  0.00  0.00    +0.000 C 
BRANCH  23  27
ATOM     24  C   UNL     1      51.605   3.796  17.683  0.00  0.00    +0.000 A 
ATOM     25  C   UNL     1      50.359   3.211  17.523  0.00  0.00    +0.000 A 
ATOM     26  N   UNL     1      49.276   3.849  17.040  0.00  0.00    +0.000 NA
ATOM     27  C   UNL     1      49.455   5.137  16.700  0.00  0.00    +0.000 A 
ATOM     28  N   UNL     1      50.631   5.791  16.780  0.00  0.00    +0.000 NA
ATOM     29  C   UNL     1      51.696   5.114  17.261  0.00  0.00    +0.000 A 
ATOM     30  C   UNL     1      52.971   5.901  17.333  0.00  0.00    +0.000 C 
BRANCH  24  32
ATOM     31  C   UNL     1      52.667   1.532  17.975  0.00  0.00    +0.000 C 
ATOM     32  C   UNL     1      52.748   3.021  18.269  0.00  0.00    +0.000 C 
ENDBRANCH  24  32
ENDBRANCH  23  27
ENDBRANCH  22  23
ENDBRANCH   1  22
TORSDOF 11
ENDMDL
MODEL 7
REMARK VINA RESULT:    -6.782      2.845      3.585
REMARK INTER + INTRA:         -12.060
REMARK INTER:                 -11.303
REMARK INTRA:                  -0.757
REMARK UNBOUND:                -1.116
REMARK  Name = 
REMARK  16 active torsions:
REMARK  status: ('A' for Active; 'I' for Inactive)
REMARK    1  A    between atoms: C_1  and  C_2
REMARK    2  A    between atoms: C_2  and  C_3
REMARK    3  A    between atoms: C_6  and  C_7
REMARK    4  A    between atoms: C_7  and  O_8
REMARK    5  A    between atoms: O_8  and  C_9
REMARK    6  A    between atoms: C_13  and  C_14
REMARK    7  A    between atoms: C_14  and  C_15
REMARK    8  A    between atoms: C_14  and  C_16
REMARK    9  A    between atoms: C_14  and  C_17
REMARK   10  A    between atoms: C_17  and  O_18
REMARK   11  A    between atoms: O_18  and  C_19
REMARK   12  A    between atoms: C_22  and  C_23
REMARK   13  A    between atoms: C_23  and  C_24
REMARK   14  A    between atoms: C_23  and  C_25
REMARK   15  A    between atoms: C_25  and  O_26
REMARK   16  A    between atoms: C_30  and  C_31
REMARK                            x       y       z     vdW  Elec       q    Type
REMARK                         _______ _______ _______ _____ _____    ______ ____
ROOT
ATOM      1  C   UNL     1      46.695   7.912  12.948  0.00  0.00    +0.000 A 
ATOM      2  C   UNL     1      46.126   8.966  12.250  0.00  0.00    +0.000 A 
ATOM      3  N   UNL     1      44.968   8.880  11.570  0.00  0.00    +0.000 NA
ATOM      4  C   UNL     1      44.361   7.671  11.555  0.00  0.00    +0.000 A 
ATOM      5  C   UNL     1      44.856   6.515  12.166  0.00  0.00    +0.000 A 
ATOM      6  C   UNL     1      46.063   6.669  12.873  0.00  0.00    +0.000 A 
ENDROOT
BRANCH   5   7
ATOM      7  C   UNL     1      44.137   5.157  12.080  0.00  0.00    +0.000 C 
ATOM      8  C   UNL     1      45.122   4.027  12.450  0.00  0.00    +0.000 C 
ATOM      9  C   UNL     1      42.958   5.138  13.082  0.00  0.00    +0.000 C 
BRANCH   7  10
ATOM     10  C   UNL     1      43.530   4.839  10.677  0.00  0.00    +0.000 C 
BRANCH  10  11
ATOM     11  O   UNL     1      43.706   3.457  10.341  0.00  0.00    +0.000 OA
BRANCH  11  12
ATOM     12  C   UNL     1      44.584   3.191   9.337  0.00  0.00    +0.000 C 
ATOM     13  C   UNL     1      45.134   4.294   8.610  0.00  0.00    +0.000 C 
ATOM     14  N   UNL     1      45.981   3.823   7.642  0.00  0.00    +0.000 NA
ATOM     15  C   UNL     1      45.952   2.525   7.797  0.00  0.00    +0.000 C 
ATOM     16  C   UNL     1      45.062   2.039   8.863  0.00  0.00    +0.000 C 
BRANCH  15  17
ATOM     17  C   UNL     1      46.761   1.569   6.954  0.00  0.00    +0.000 C 
ATOM     18  C   UNL     1      46.866   0.220   7.660  0.00  0.00    +0.000 C 
BRANCH  17  19
ATOM     19  C   UNL     1      48.131   2.182   6.660  0.00  0.00    +0.000 C 
BRANCH  19  20
ATOM     20  O   UNL     1      48.561   1.932   5.329  0.00  0.00    +0.000 OA
ATOM     21  H   UNL     1      48.653   0.959   5.236  0.00  0.00    +0.000 HD
ENDBRANCH  19  20
ENDBRANCH  17  19
ENDBRANCH  15  17
ENDBRANCH  11  12
ENDBRANCH  10  11
ENDBRANCH   7  10
ENDBRANCH   5   7
BRANCH   1  22
ATOM     22  O   UNL     1      47.828   7.987  13.713  0.00  0.00    +0.000 OA
BRANCH  22  23
ATOM     23  C   UNL     1      49.038   8.171  12.960  0.00  0.00    +0.000 C 
BRANCH  23  27
ATOM     24  C   UNL     1      52.472   7.616  15.362  0.00  0.00    +0.000 A 
ATOM     25  C   UNL     1      51.220   7.156  15.734  0.00  0.00    +0.000 A 
ATOM     26  N   UNL     1      50.103   7.315  15.000  0.00  0.00    +0.000 NA
ATOM     27  C   UNL     1      50.252   7.966  13.834  0.00  0.00    +0.000 A 
ATOM     28  N   UNL     1      51.429   8.422  13.360  0.00  0.00    +0.000 NA
ATOM     29  C   UNL     1      52.528   8.236  14.122  0.00  0.00    +0.000 A 
ATOM     30  C   UNL     1      53.803   8.774  13.543  0.00  0.00    +0.000 C 
BRANCH  24  32
ATOM     31  C   UNL     1      53.365   7.797  17.709  0.00  0.00    +0.000 C 
ATOM     32  C   UNL     1      53.658   7.433  16.263  0.00  0.00    +0.000 C 
ENDBRANCH  24  32
ENDBRANCH  23  27
ENDBRANCH  22  23
ENDBRANCH   1  22
TORSDOF 11
ENDMDL
MODEL 8
REMARK VINA RESULT:    -6.620      2.034      2.666
REMARK INTER + INTRA:         -11.799
REMARK INTER:                 -10.734
REMARK INTRA:                  -1.065
REMARK UNBOUND:                -1.116
REMARK  Name = 
REMARK  16 active torsions:
REMARK  status: ('A' for Active; 'I' for Inactive)
REMARK    1  A    between atoms: C_1  and  C_2
REMARK    2  A    between atoms: C_2  and  C_3
REMARK    3  A    between atoms: C_6  and  C_7
REMARK    4  A    between atoms: C_7  and  O_8
REMARK    5  A    between atoms: O_8  and  C_9
REMARK    6  A    between atoms: C_13  and  C_14
REMARK    7  A    between atoms: C_14  and  C_15
REMARK    8  A    between atoms: C_14  and  C_16
REMARK    9  A    between atoms: C_14  and  C_17
REMARK   10  A    between atoms: C_17  and  O_18
REMARK   11  A    between atoms: O_18  and  C_19
REMARK   12  A    between atoms: C_22  and  C_23
REMARK   13  A    between atoms: C_23  and  C_24
REMARK   14  A    between atoms: C_23  and  C_25
REMARK   15  A    between atoms: C_25  and  O_26
REMARK   16  A    between atoms: C_30  and  C_31
REMARK                            x       y       z     vdW  Elec       q    Type
REMARK                         _______ _______ _______ _____ _____    ______ ____
ROOT
ATOM      1  C   UNL     1      48.579   7.522  13.464  0.00  0.00    +0.000 A 
ATOM      2  C   UNL     1      48.392   8.894  13.519  0.00  0.00    +0.000 A 
ATOM      3  N   UNL     1      47.276   9.519  13.099  0.00  0.00    +0.000 NA
ATOM      4  C   UNL     1      46.310   8.740  12.561  0.00  0.00    +0.000 A 
ATOM      5  C   UNL     1      46.396   7.355  12.391  0.00  0.00    +0.000 A 
ATOM      6  C   UNL     1      47.579   6.756  12.862  0.00  0.00    +0.000 A 
ENDROOT
BRANCH   5   7
ATOM      7  C   UNL     1      45.276   6.529  11.735  0.00  0.00    +0.000 C 
ATOM      8  C   UNL     1      44.801   5.433  12.714  0.00  0.00    +0.000 C 
ATOM      9  C   UNL     1      44.081   7.455  11.407  0.00  0.00    +0.000 C 
BRANCH   7  10
ATOM     10  C   UNL     1      45.686   5.843  10.393  0.00  0.00    +0.000 C 
BRANCH  10  11
ATOM     11  O   UNL     1      44.650   4.971   9.924  0.00  0.00    +0.000 OA
BRANCH  11  12
ATOM     12  C   UNL     1      45.059   3.854   9.266  0.00  0.00    +0.000 C 
ATOM     13  C   UNL     1      44.484   2.598   9.641  0.00  0.00    +0.000 C 
ATOM     14  N   UNL     1      45.030   1.601   8.875  0.00  0.00    +0.000 NA
ATOM     15  C   UNL     1      45.860   2.227   8.083  0.00  0.00    +0.000 C 
ATOM     16  C   UNL     1      45.946   3.682   8.283  0.00  0.00    +0.000 C 
BRANCH  15  17
ATOM     17  C   UNL     1      46.688   1.529   7.030  0.00  0.00    +0.000 C 
ATOM     18  C   UNL     1      46.956   0.088   7.456  0.00  0.00    +0.000 C 
BRANCH  17  19
ATOM     19  C   UNL     1      47.977   2.317   6.790  0.00  0.00    +0.000 C 
BRANCH  19  20
ATOM     20  O   UNL     1      48.053   2.843   5.472  0.00  0.00    +0.000 OA
ATOM     21  H   UNL     1      47.443   2.311   4.917  0.00  0.00    +0.000 HD
ENDBRANCH  19  20
ENDBRANCH  17  19
ENDBRANCH  15  17
ENDBRANCH  11  12
ENDBRANCH  10  11
ENDBRANCH   7  10
ENDBRANCH   5   7
BRANCH   1  22
ATOM     22  O   UNL     1      49.666   6.849  13.954  0.00  0.00    +0.000 OA
BRANCH  22  23
ATOM     23  C   UNL     1      50.263   7.457  15.112  0.00  0.00    +0.000 C 
BRANCH  23  27
ATOM     24  C   UNL     1      49.022   5.471  18.631  0.00  0.00    +0.000 A 
ATOM     25  C   UNL     1      48.537   6.716  18.268  0.00  0.00    +0.000 A 
ATOM     26  N   UNL     1      48.908   7.382  17.158  0.00  0.00    +0.000 NA
ATOM     27  C   UNL     1      49.810   6.766  16.375  0.00  0.00    +0.000 A 
ATOM     28  N   UNL     1      50.318   5.540  16.617  0.00  0.00    +0.000 NA
ATOM     29  C   UNL     1      49.914   4.901  17.735  0.00  0.00    +0.000 A 
ATOM     30  C   UNL     1      50.523   3.547  17.950  0.00  0.00    +0.000 C 
BRANCH  24  32
ATOM     31  C   UNL     1      47.743   5.735  20.784  0.00  0.00    +0.000 C 
ATOM     32  C   UNL     1      48.584   4.819  19.910  0.00  0.00    +0.000 C 
ENDBRANCH  24  32
ENDBRANCH  23  27
ENDBRANCH  22  23
ENDBRANCH   1  22
TORSDOF 11
ENDMDL
MODEL 9
REMARK VINA RESULT:    -6.543      3.276      8.696
REMARK INTER + INTRA:         -11.674
REMARK INTER:                 -10.221
REMARK INTRA:                  -1.453
REMARK UNBOUND:                -1.116
REMARK  Name = 
REMARK  16 active torsions:
REMARK  status: ('A' for Active; 'I' for Inactive)
REMARK    1  A    between atoms: C_1  and  C_2
REMARK    2  A    between atoms: C_2  and  C_3
REMARK    3  A    between atoms: C_6  and  C_7
REMARK    4  A    between atoms: C_7  and  O_8
REMARK    5  A    between atoms: O_8  and  C_9
REMARK    6  A    between atoms: C_13  and  C_14
REMARK    7  A    between atoms: C_14  and  C_15
REMARK    8  A    between atoms: C_14  and  C_16
REMARK    9  A    between atoms: C_14  and  C_17
REMARK   10  A    between atoms: C_17  and  O_18
REMARK   11  A    between atoms: O_18  and  C_19
REMARK   12  A    between atoms: C_22  and  C_23
REMARK   13  A    between atoms: C_23  and  C_24
REMARK   14  A    between atoms: C_23  and  C_25
REMARK   15  A    between atoms: C_25  and  O_26
REMARK   16  A    between atoms: C_30  and  C_31
REMARK                            x       y       z     vdW  Elec       q    Type
REMARK                         _______ _______ _______ _____ _____    ______ ____
ROOT
ATOM      1  C   UNL     1      45.379   9.389  11.810  0.00  0.00    +0.000 A 
ATOM      2  C   UNL     1      44.922  10.694  11.713  0.00  0.00    +0.000 A 
ATOM      3  N   UNL     1      45.715  11.778  11.794  0.00  0.00    +0.000 NA
ATOM      4  C   UNL     1      47.030  11.552  12.021  0.00  0.00    +0.000 A 
ATOM      5  C   UNL     1      47.611  10.293  12.197  0.00  0.00    +0.000 A 
ATOM      6  C   UNL     1      46.735   9.198  12.088  0.00  0.00    +0.000 A 
ENDROOT
BRANCH   5   7
ATOM      7  C   UNL     1      49.109  10.104  12.492  0.00  0.00    +0.000 C 
ATOM      8  C   UNL     1      49.925  10.364  11.207  0.00  0.00    +0.000 C 
ATOM      9  C   UNL     1      49.550  11.118  13.574  0.00  0.00    +0.000 C 
BRANCH   7  10
ATOM     10  C   UNL     1      49.484   8.688  13.034  0.00  0.00    +0.000 C 
BRANCH  10  11
ATOM     11  O   UNL     1      49.356   8.633  14.460  0.00  0.00    +0.000 OA
BRANCH  11  12
ATOM     12  C   UNL     1      48.942   7.446  14.979  0.00  0.00    +0.000 C 
ATOM     13  C   UNL     1      48.357   6.488  14.092  0.00  0.00    +0.000 C 
ATOM     14  N   UNL     1      47.998   5.372  14.801  0.00  0.00    +0.000 NA
ATOM     15  C   UNL     1      48.364   5.642  16.026  0.00  0.00    +0.000 C 
ATOM     16  C   UNL     1      48.969   6.969  16.225  0.00  0.00    +0.000 C 
BRANCH  15  17
ATOM     17  C   UNL     1      48.187   4.681  17.177  0.00  0.00    +0.000 C 
ATOM     18  C   UNL     1      49.553   4.262  17.715  0.00  0.00    +0.000 C 
BRANCH  17  19
ATOM     19  C   UNL     1      47.348   3.486  16.720  0.00  0.00    +0.000 C 
BRANCH  19  20
ATOM     20  O   UNL     1      46.462   3.028  17.732  0.00  0.00    +0.000 OA
ATOM     21  H   UNL     1      46.110   2.162  17.434  0.00  0.00    +0.000 HD
ENDBRANCH  19  20
ENDBRANCH  17  19
ENDBRANCH  15  17
ENDBRANCH  11  12
ENDBRANCH  10  11
ENDBRANCH   7  10
ENDBRANCH   5   7
BRANCH   1  22
ATOM     22  O   UNL     1      44.613   8.266  11.652  0.00  0.00    +0.000 OA
BRANCH  22  23
ATOM     23  C   UNL     1      45.124   7.104  12.327  0.00  0.00    +0.000 C 
BRANCH  23  27
ATOM     24  C   UNL     1      44.695   3.632   9.953  0.00  0.00    +0.000 A 
ATOM     25  C   UNL     1      45.471   4.711   9.562  0.00  0.00    +0.000 A 
ATOM     26  N   UNL     1      45.631   5.834  10.287  0.00  0.00    +0.000 NA
ATOM     27  C   UNL     1      44.980   5.875  11.462  0.00  0.00    +0.000 A 
ATOM     28  N   UNL     1      44.230   4.867  11.953  0.00  0.00    +0.000 NA
ATOM     29  C   UNL     1      44.101   3.754  11.201  0.00  0.00    +0.000 A 
ATOM     30  C   UNL     1      43.247   2.676  11.799  0.00  0.00    +0.000 C 
BRANCH  24  32
ATOM     31  C   UNL     1      45.841   2.013   8.403  0.00  0.00    +0.000 C 
ATOM     32  C   UNL     1      44.538   2.435   9.062  0.00  0.00    +0.000 C 
ENDBRANCH  24  32
ENDBRANCH  23  27
ENDBRANCH  22  23
ENDBRANCH   1  22
TORSDOF 11
ENDMDL
