MODEL 1
REMARK VINA RESULT:    -8.701      0.000      0.000
REMARK INTER + INTRA:         -13.907
REMARK INTER:                 -12.770
REMARK INTRA:                  -1.136
REMARK UNBOUND:                -1.136
REMARK  Name = 
REMARK  9 active torsions:
REMARK  status: ('A' for Active; 'I' for Inactive)
REMARK    1  A    between atoms: C_1  and  C_2
REMARK    2  A    between atoms: C_2  and  C_3
REMARK    3  A    between atoms: C_3  and  N_4
REMARK    4  A    between atoms: C_3  and  C_26
REMARK    5  A    between atoms: N_4  and  C_5
REMARK    6  A    between atoms: C_5  and  C_6
REMARK    7  A    between atoms: C_10  and  C_11
REMARK    8  A    between atoms: C_11  and  N_12
REMARK    9  A    between atoms: C_13  and  C_15
REMARK                            x       y       z     vdW  Elec       q    Type
REMARK                         _______ _______ _______ _____ _____    ______ ____
ROOT
ATOM      1  C   UNL     1      46.024   6.027  11.767  0.00  0.00    +0.000 A 
ATOM      2  C   UNL     1      47.127   6.872  11.575  0.00  0.00    +0.000 A 
ATOM      3  C   UNL     1      48.151   6.930  12.520  0.00  0.00    +0.000 A 
ATOM      4  C   UNL     1      48.067   6.169  13.683  0.00  0.00    +0.000 A 
ATOM      5  C   UNL     1      46.950   5.358  13.921  0.00  0.00    +0.000 A 
ATOM      6  C   UNL     1      45.951   5.265  12.941  0.00  0.00    +0.000 A 
ENDROOT
BRANCH   1   7
ATOM      7  C   UNL     1      44.948   5.933  10.709  0.00  0.00    +0.000 C 
BRANCH   7   8
ATOM      8  N   UNL     1      45.401   5.195   9.536  0.00  0.00    +0.000 NA
ATOM      9  H   UNL     1      45.111   5.725   8.711  0.00  0.00    +0.000 HD
BRANCH   8  10
ATOM     10  C   UNL     1      44.809   3.849   9.388  0.00  0.00    +0.000 C 
BRANCH  10  11
ATOM     11  C   UNL     1      45.652   3.047   8.374  0.00  0.00    +0.000 A 
ATOM     12  C   UNL     1      46.152   3.675   7.228  0.00  0.00    +0.000 A 
ATOM     13  C   UNL     1      46.919   2.943   6.328  0.00  0.00    +0.000 A 
ATOM     14  C   UNL     1      47.153   1.600   6.576  0.00  0.00    +0.000 A 
ATOM     15  C   UNL     1      46.607   1.043   7.722  0.00  0.00    +0.000 A 
ATOM     16  N   UNL     1      45.866   1.730   8.623  0.00  0.00    +0.000 NA
ENDBRANCH  10  11
BRANCH  10  18
ATOM     17  C   UNL     1      43.365   3.027  11.422  0.00  0.00    +0.000 C 
ATOM     18  C   UNL     1      44.691   2.993  10.678  0.00  0.00    +0.000 C 
ENDBRANCH  10  18
ENDBRANCH   8  10
ENDBRANCH   7   8
ENDBRANCH   1   7
BRANCH   5  19
ATOM     19  C   UNL     1      46.837   4.569  15.196  0.00  0.00    +0.000 C 
BRANCH  19  20
ATOM     20  N   UNL     1      48.127   4.389  15.804  0.00  0.00    +0.000 N 
ATOM     21  C   UNL     1      48.280   4.444  17.165  0.00  0.00    +0.000 C 
ATOM     22  O   UNL     1      47.322   4.597  17.921  0.00  0.00    +0.000 OA
ATOM     23  H   UNL     1      48.937   4.489  15.202  0.00  0.00    +0.000 HD
BRANCH  21  24
ATOM     24  C   UNL     1      49.640   4.248  17.678  0.00  0.00    +0.000 A 
ATOM     25  C   UNL     1      50.244   5.261  18.413  0.00  0.00    +0.000 A 
ATOM     26  S   UNL     1      51.799   4.855  18.980  0.00  0.00    +0.000 S 
ATOM     27  C   UNL     1      51.740   3.333  18.222  0.00  0.00    +0.000 A 
ATOM     28  N   UNL     1      52.791   2.474  18.298  0.00  0.00    +0.000 NA
ATOM     29  C   UNL     1      52.618   1.365  17.655  0.00  0.00    +0.000 A 
ATOM     30  N   UNL     1      51.494   1.041  16.947  0.00  0.00    +0.000 N 
ATOM     31  C   UNL     1      50.404   1.866  16.857  0.00  0.00    +0.000 A 
ATOM     32  O   UNL     1      49.399   1.533  16.237  0.00  0.00    +0.000 OA
ATOM     33  C   UNL     1      50.541   3.128  17.560  0.00  0.00    +0.000 A 
ATOM     34  H   UNL     1      51.418   0.149  16.470  0.00  0.00    +0.000 HD
ENDBRANCH  21  24
ENDBRANCH  19  20
ENDBRANCH   5  19
TORSDOF 8
ENDMDL
MODEL 2
REMARK VINA RESULT:    -8.378      2.302      3.156
REMARK INTER + INTRA:         -13.432
REMARK INTER:                 -11.898
REMARK INTRA:                  -1.534
REMARK UNBOUND:                -1.136
REMARK  Name = 
REMARK  9 active torsions:
REMARK  status: ('A' for Active; 'I' for Inactive)
REMARK    1  A    between atoms: C_1  and  C_2
REMARK    2  A    between atoms: C_2  and  C_3
REMARK    3  A    between atoms: C_3  and  N_4
REMARK    4  A    between atoms: C_3  and  C_26
REMARK    5  A    between atoms: N_4  and  C_5
REMARK    6  A    between atoms: C_5  and  C_6
REMARK    7  A    between atoms: C_10  and  C_11
REMARK    8  A    between atoms: C_11  and  N_12
REMARK    9  A    between atoms: C_13  and  C_15
REMARK                            x       y       z     vdW  Elec       q    Type
REMARK                         _______ _______ _______ _____ _____    ______ ____
ROOT
ATOM      1  C   UNL     1      45.201   7.154  11.636  0.00  0.00    +0.000 A 
ATOM      2  C   UNL     1      44.764   8.487  11.665  0.00  0.00    +0.000 A 
ATOM      3  C   UNL     1      45.665   9.525  11.900  0.00  0.00    +0.000 A 
ATOM      4  C   UNL     1      47.007   9.240  12.142  0.00  0.00    +0.000 A 
ATOM      5  C   UNL     1      47.456   7.913  12.170  0.00  0.00    +0.000 A 
ATOM      6  C   UNL     1      46.554   6.879  11.880  0.00  0.00    +0.000 A 
ENDROOT
BRANCH   1   7
ATOM      7  C   UNL     1      44.224   6.043  11.325  0.00  0.00    +0.000 C 
BRANCH   7   8
ATOM      8  N   UNL     1      44.469   5.454  10.014  0.00  0.00    +0.000 NA
ATOM      9  H   UNL     1      43.777   5.843   9.370  0.00  0.00    +0.000 HD
BRANCH   8  10
ATOM     10  C   UNL     1      44.301   3.985   9.957  0.00  0.00    +0.000 C 
BRANCH  10  11
ATOM     11  C   UNL     1      45.265   3.420   8.893  0.00  0.00    +0.000 A 
ATOM     12  C   UNL     1      45.554   2.052   8.865  0.00  0.00    +0.000 A 
ATOM     13  C   UNL     1      46.416   1.554   7.895  0.00  0.00    +0.000 A 
ATOM     14  C   UNL     1      46.988   2.431   6.986  0.00  0.00    +0.000 A 
ATOM     15  C   UNL     1      46.670   3.777   7.089  0.00  0.00    +0.000 A 
ATOM     16  N   UNL     1      45.826   4.290   8.014  0.00  0.00    +0.000 NA
ENDBRANCH  10  11
BRANCH  10  18
ATOM     17  C   UNL     1      43.358   2.501  11.907  0.00  0.00    +0.000 C 
ATOM     18  C   UNL     1      44.550   3.203  11.275  0.00  0.00    +0.000 C 
ENDBRANCH  10  18
ENDBRANCH   8  10
ENDBRANCH   7   8
ENDBRANCH   1   7
BRANCH   5  19
ATOM     19  C   UNL     1      48.894   7.601  12.474  0.00  0.00    +0.000 C 
BRANCH  19  20
ATOM     20  N   UNL     1      49.006   6.806  13.667  0.00  0.00    +0.000 N 
ATOM     21  C   UNL     1      49.003   7.389  14.907  0.00  0.00    +0.000 C 
ATOM     22  O   UNL     1      48.853   8.600  15.056  0.00  0.00    +0.000 OA
ATOM     23  H   UNL     1      49.351   5.858  13.557  0.00  0.00    +0.000 HD
BRANCH  21  24
ATOM     24  C   UNL     1      49.124   6.483  16.055  0.00  0.00    +0.000 A 
ATOM     25  C   UNL     1      50.077   6.743  17.031  0.00  0.00    +0.000 A 
ATOM     26  S   UNL     1      50.053   5.629  18.320  0.00  0.00    +0.000 S 
ATOM     27  C   UNL     1      48.801   4.732  17.597  0.00  0.00    +0.000 A 
ATOM     28  N   UNL     1      48.314   3.609  18.187  0.00  0.00    +0.000 NA
ATOM     29  C   UNL     1      47.382   3.015  17.514  0.00  0.00    +0.000 A 
ATOM     30  N   UNL     1      46.898   3.443  16.308  0.00  0.00    +0.000 N 
ATOM     31  C   UNL     1      47.346   4.577  15.684  0.00  0.00    +0.000 A 
ATOM     32  O   UNL     1      46.869   4.949  14.615  0.00  0.00    +0.000 OA
ATOM     33  C   UNL     1      48.393   5.286  16.394  0.00  0.00    +0.000 A 
ATOM     34  H   UNL     1      46.160   2.935  15.835  0.00  0.00    +0.000 HD
ENDBRANCH  21  24
ENDBRANCH  19  20
ENDBRANCH   5  19
TORSDOF 8
ENDMDL
MODEL 3
REMARK VINA RESULT:    -7.734      2.736      3.719
REMARK INTER + INTRA:         -12.488
REMARK INTER:                 -11.294
REMARK INTRA:                  -1.194
REMARK UNBOUND:                -1.136
REMARK  Name = 
REMARK  9 active torsions:
REMARK  status: ('A' for Active; 'I' for Inactive)
REMARK    1  A    between atoms: C_1  and  C_2
REMARK    2  A    between atoms: C_2  and  C_3
REMARK    3  A    between atoms: C_3  and  N_4
REMARK    4  A    between atoms: C_3  and  C_26
REMARK    5  A    between atoms: N_4  and  C_5
REMARK    6  A    between atoms: C_5  and  C_6
REMARK    7  A    between atoms: C_10  and  C_11
REMARK    8  A    between atoms: C_11  and  N_12
REMARK    9  A    between atoms: C_13  and  C_15
REMARK                            x       y       z     vdW  Elec       q    Type
REMARK                         _______ _______ _______ _____ _____    ______ ____
ROOT
ATOM      1  C   UNL     1      44.482   7.473  11.522  0.00  0.00    +0.000 A 
ATOM      2  C   UNL     1      43.891   8.696  11.172  0.00  0.00    +0.000 A 
ATOM      3  C   UNL     1      44.522   9.901  11.473  0.00  0.00    +0.000 A 
ATOM      4  C   UNL     1      45.734   9.900  12.158  0.00  0.00    +0.000 A 
ATOM      5  C   UNL     1      46.318   8.693  12.563  0.00  0.00    +0.000 A 
ATOM      6  C   UNL     1      45.704   7.483  12.209  0.00  0.00    +0.000 A 
ENDROOT
BRANCH   1   7
ATOM      7  C   UNL     1      43.814   6.170  11.140  0.00  0.00    +0.000 C 
BRANCH   7   8
ATOM      8  N   UNL     1      44.548   5.469  10.094  0.00  0.00    +0.000 NA
ATOM      9  H   UNL     1      44.352   5.945   9.211  0.00  0.00    +0.000 HD
BRANCH   8  10
ATOM     10  C   UNL     1      44.144   4.060   9.897  0.00  0.00    +0.000 C 
BRANCH  10  11
ATOM     11  C   UNL     1      45.131   3.397   8.914  0.00  0.00    +0.000 A 
ATOM     12  C   UNL     1      45.334   2.013   8.951  0.00  0.00    +0.000 A 
ATOM     13  C   UNL     1      46.219   1.427   8.053  0.00  0.00    +0.000 A 
ATOM     14  C   UNL     1      46.898   2.233   7.152  0.00  0.00    +0.000 A 
ATOM     15  C   UNL     1      46.660   3.598   7.189  0.00  0.00    +0.000 A 
ATOM     16  N   UNL     1      45.798   4.197   8.043  0.00  0.00    +0.000 NA
ENDBRANCH  10  11
BRANCH  10  18
ATOM     17  C   UNL     1      45.204   3.313  12.180  0.00  0.00    +0.000 C 
ATOM     18  C   UNL     1      44.079   3.168  11.166  0.00  0.00    +0.000 C 
ENDBRANCH  10  18
ENDBRANCH   8  10
ENDBRANCH   7   8
ENDBRANCH   1   7
BRANCH   5  19
ATOM     19  C   UNL     1      47.605   8.690  13.339  0.00  0.00    +0.000 C 
BRANCH  19  20
ATOM     20  N   UNL     1      47.547   7.751  14.427  0.00  0.00    +0.000 N 
ATOM     21  C   UNL     1      48.184   6.540  14.349  0.00  0.00    +0.000 C 
ATOM     22  O   UNL     1      48.869   6.227  13.377  0.00  0.00    +0.000 OA
ATOM     23  H   UNL     1      46.819   7.893  15.118  0.00  0.00    +0.000 HD
BRANCH  21  24
ATOM     24  C   UNL     1      48.057   5.659  15.515  0.00  0.00    +0.000 A 
ATOM     25  C   UNL     1      47.335   4.478  15.401  0.00  0.00    +0.000 A 
ATOM     26  S   UNL     1      47.329   3.545  16.828  0.00  0.00    +0.000 S 
ATOM     27  C   UNL     1      48.247   4.709  17.661  0.00  0.00    +0.000 A 
ATOM     28  N   UNL     1      48.580   4.532  18.967  0.00  0.00    +0.000 NA
ATOM     29  C   UNL     1      49.259   5.507  19.480  0.00  0.00    +0.000 A 
ATOM     30  N   UNL     1      49.631   6.638  18.805  0.00  0.00    +0.000 N 
ATOM     31  C   UNL     1      49.334   6.851  17.485  0.00  0.00    +0.000 A 
ATOM     32  O   UNL     1      49.708   7.864  16.901  0.00  0.00    +0.000 OA
ATOM     33  C   UNL     1      48.572   5.789  16.856  0.00  0.00    +0.000 A 
ATOM     34  H   UNL     1      50.171   7.363  19.263  0.00  0.00    +0.000 HD
ENDBRANCH  21  24
ENDBRANCH  19  20
ENDBRANCH   5  19
TORSDOF 8
ENDMDL
MODEL 4
REMARK VINA RESULT:    -7.523      1.472      2.011
REMARK INTER + INTRA:         -12.178
REMARK INTER:                 -11.018
REMARK INTRA:                  -1.161
REMARK UNBOUND:                -1.136
REMARK  Name = 
REMARK  9 active torsions:
REMARK  status: ('A' for Active; 'I' for Inactive)
REMARK    1  A    between atoms: C_1  and  C_2
REMARK    2  A    between atoms: C_2  and  C_3
REMARK    3  A    between atoms: C_3  and  N_4
REMARK    4  A    between atoms: C_3  and  C_26
REMARK    5  A    between atoms: N_4  and  C_5
REMARK    6  A    between atoms: C_5  and  C_6
REMARK    7  A    between atoms: C_10  and  C_11
REMARK    8  A    between atoms: C_11  and  N_12
REMARK    9  A    between atoms: C_13  and  C_15
REMARK                            x       y       z     vdW  Elec       q    Type
REMARK                         _______ _______ _______ _____ _____    ______ ____
ROOT
ATOM      1  C   UNL     1      47.209   6.170  12.515  0.00  0.00    +0.000 A 
ATOM      2  C   UNL     1      48.005   6.982  11.693  0.00  0.00    +0.000 A 
ATOM      3  C   UNL     1      49.054   7.726  12.230  0.00  0.00    +0.000 A 
ATOM      4  C   UNL     1      49.298   7.695  13.601  0.00  0.00    +0.000 A 
ATOM      5  C   UNL     1      48.484   6.932  14.448  0.00  0.00    +0.000 A 
ATOM      6  C   UNL     1      47.465   6.145  13.893  0.00  0.00    +0.000 A 
ENDROOT
BRANCH   1   7
ATOM      7  C   UNL     1      46.110   5.325  11.911  0.00  0.00    +0.000 C 
BRANCH   7   8
ATOM      8  N   UNL     1      45.361   6.053  10.894  0.00  0.00    +0.000 NA
ATOM      9  H   UNL     1      44.860   6.809  11.366  0.00  0.00    +0.000 HD
BRANCH   8  10
ATOM     10  C   UNL     1      44.331   5.252  10.197  0.00  0.00    +0.000 C 
BRANCH  10  11
ATOM     11  C   UNL     1      45.037   4.212   9.302  0.00  0.00    +0.000 A 
ATOM     12  C   UNL     1      44.891   2.846   9.566  0.00  0.00    +0.000 A 
ATOM     13  C   UNL     1      45.526   1.919   8.747  0.00  0.00    +0.000 A 
ATOM     14  C   UNL     1      46.308   2.372   7.695  0.00  0.00    +0.000 A 
ATOM     15  C   UNL     1      46.422   3.741   7.509  0.00  0.00    +0.000 A 
ATOM     16  N   UNL     1      45.809   4.668   8.282  0.00  0.00    +0.000 NA
ENDBRANCH  10  11
BRANCH  10  18
ATOM     17  C   UNL     1      42.478   5.311  12.055  0.00  0.00    +0.000 C 
ATOM     18  C   UNL     1      43.317   4.488  11.090  0.00  0.00    +0.000 C 
ENDBRANCH  10  18
ENDBRANCH   8  10
ENDBRANCH   7   8
ENDBRANCH   1   7
BRANCH   5  19
ATOM     19  C   UNL     1      48.718   6.931  15.933  0.00  0.00    +0.000 C 
BRANCH  19  20
ATOM     20  N   UNL     1      49.785   6.033  16.284  0.00  0.00    +0.000 N 
ATOM     21  C   UNL     1      50.235   5.939  17.575  0.00  0.00    +0.000 C 
ATOM     22  O   UNL     1      49.717   6.575  18.491  0.00  0.00    +0.000 OA
ATOM     23  H   UNL     1      50.359   5.683  15.524  0.00  0.00    +0.000 HD
BRANCH  21  24
ATOM     24  C   UNL     1      51.329   4.993  17.819  0.00  0.00    +0.000 A 
ATOM     25  C   UNL     1      52.549   5.466  18.283  0.00  0.00    +0.000 A 
ATOM     26  S   UNL     1      53.694   4.235  18.566  0.00  0.00    +0.000 S 
ATOM     27  C   UNL     1      52.616   3.032  18.031  0.00  0.00    +0.000 A 
ATOM     28  N   UNL     1      52.988   1.725  17.996  0.00  0.00    +0.000 NA
ATOM     29  C   UNL     1      52.077   0.924  17.546  0.00  0.00    +0.000 A 
ATOM     30  N   UNL     1      50.834   1.313  17.128  0.00  0.00    +0.000 N 
ATOM     31  C   UNL     1      50.409   2.615  17.161  0.00  0.00    +0.000 A 
ATOM     32  O   UNL     1      49.275   2.926  16.806  0.00  0.00    +0.000 OA
ATOM     33  C   UNL     1      51.390   3.560  17.659  0.00  0.00    +0.000 A 
ATOM     34  H   UNL     1      50.162   0.633  16.792  0.00  0.00    +0.000 HD
ENDBRANCH  21  24
ENDBRANCH  19  20
ENDBRANCH   5  19
TORSDOF 8
ENDMDL
MODEL 5
REMARK VINA RESULT:    -7.474      4.363      7.177
REMARK INTER + INTRA:         -12.105
REMARK INTER:                 -10.590
REMARK INTRA:                  -1.515
REMARK UNBOUND:                -1.136
REMARK  Name = 
REMARK  9 active torsions:
REMARK  status: ('A' for Active; 'I' for Inactive)
REMARK    1  A    between atoms: C_1  and  C_2
REMARK    2  A    between atoms: C_2  and  C_3
REMARK    3  A    between atoms: C_3  and  N_4
REMARK    4  A    between atoms: C_3  and  C_26
REMARK    5  A    between atoms: N_4  and  C_5
REMARK    6  A    between atoms: C_5  and  C_6
REMARK    7  A    between atoms: C_10  and  C_11
REMARK    8  A    between atoms: C_11  and  N_12
REMARK    9  A    between atoms: C_13  and  C_15
REMARK                            x       y       z     vdW  Elec       q    Type
REMARK                         _______ _______ _______ _____ _____    ______ ____
ROOT
ATOM      1  C   UNL     1      46.856   4.988  13.823  0.00  0.00    +0.000 A 
ATOM      2  C   UNL     1      46.995   4.270  15.020  0.00  0.00    +0.000 A 
ATOM      3  C   UNL     1      47.784   4.764  16.057  0.00  0.00    +0.000 A 
ATOM      4  C   UNL     1      48.471   5.965  15.898  0.00  0.00    +0.000 A 
ATOM      5  C   UNL     1      48.388   6.674  14.693  0.00  0.00    +0.000 A 
ATOM      6  C   UNL     1      47.550   6.197  13.674  0.00  0.00    +0.000 A 
ENDROOT
BRANCH   1   7
ATOM      7  C   UNL     1      45.953   4.468  12.727  0.00  0.00    +0.000 C 
BRANCH   7   8
ATOM      8  N   UNL     1      45.663   5.492  11.730  0.00  0.00    +0.000 NA
ATOM      9  H   UNL     1      45.362   6.331  12.231  0.00  0.00    +0.000 HD
BRANCH   8  10
ATOM     10  C   UNL     1      44.563   5.153  10.801  0.00  0.00    +0.000 C 
BRANCH  10  11
ATOM     11  C   UNL     1      45.115   4.222   9.702  0.00  0.00    +0.000 A 
ATOM     12  C   UNL     1      44.938   2.838   9.802  0.00  0.00    +0.000 A 
ATOM     13  C   UNL     1      45.432   2.011   8.800  0.00  0.00    +0.000 A 
ATOM     14  C   UNL     1      46.110   2.577   7.731  0.00  0.00    +0.000 A 
ATOM     15  C   UNL     1      46.264   3.954   7.711  0.00  0.00    +0.000 A 
ATOM     16  N   UNL     1      45.786   4.787   8.665  0.00  0.00    +0.000 NA
ENDBRANCH  10  11
BRANCH  10  18
ATOM     17  C   UNL     1      42.703   5.099  12.654  0.00  0.00    +0.000 C 
ATOM     18  C   UNL     1      43.317   4.461  11.418  0.00  0.00    +0.000 C 
ENDBRANCH  10  18
ENDBRANCH   8  10
ENDBRANCH   7   8
ENDBRANCH   1   7
BRANCH   5  19
ATOM     19  C   UNL     1      49.162   7.948  14.502  0.00  0.00    +0.000 C 
BRANCH  19  20
ATOM     20  N   UNL     1      48.357   8.946  13.853  0.00  0.00    +0.000 N 
ATOM     21  C   UNL     1      48.556   9.269  12.536  0.00  0.00    +0.000 C 
ATOM     22  O   UNL     1      49.390   8.688  11.844  0.00  0.00    +0.000 OA
ATOM     23  H   UNL     1      47.836   9.578  14.452  0.00  0.00    +0.000 HD
BRANCH  21  24
ATOM     24  C   UNL     1      47.678  10.302  11.976  0.00  0.00    +0.000 A 
ATOM     25  C   UNL     1      48.240  11.429  11.390  0.00  0.00    +0.000 A 
ATOM     26  S   UNL     1      47.087  12.505  10.742  0.00  0.00    +0.000 S 
ATOM     27  C   UNL     1      45.797  11.527  11.264  0.00  0.00    +0.000 A 
ATOM     28  N   UNL     1      44.508  11.894  11.043  0.00  0.00    +0.000 NA
ATOM     29  C   UNL     1      43.630  11.068  11.514  0.00  0.00    +0.000 A 
ATOM     30  N   UNL     1      43.928   9.914  12.186  0.00  0.00    +0.000 N 
ATOM     31  C   UNL     1      45.211   9.495  12.417  0.00  0.00    +0.000 A 
ATOM     32  O   UNL     1      45.444   8.438  12.998  0.00  0.00    +0.000 OA
ATOM     33  C   UNL     1      46.239  10.383  11.909  0.00  0.00    +0.000 A 
ATOM     34  H   UNL     1      43.192   9.305  12.525  0.00  0.00    +0.000 HD
ENDBRANCH  21  24
ENDBRANCH  19  20
ENDBRANCH   5  19
TORSDOF 8
ENDMDL
MODEL 6
REMARK VINA RESULT:    -7.345      2.185      2.810
REMARK INTER + INTRA:         -11.917
REMARK INTER:                 -10.848
REMARK INTRA:                  -1.069
REMARK UNBOUND:                -1.136
REMARK  Name = 
REMARK  9 active torsions:
REMARK  status: ('A' for Active; 'I' for Inactive)
REMARK    1  A    between atoms: C_1  and  C_2
REMARK    2  A    between atoms: C_2  and  C_3
REMARK    3  A    between atoms: C_3  and  N_4
REMARK    4  A    between atoms: C_3  and  C_26
REMARK    5  A    between atoms: N_4  and  C_5
REMARK    6  A    between atoms: C_5  and  C_6
REMARK    7  A    between atoms: C_10  and  C_11
REMARK    8  A    between atoms: C_11  and  N_12
REMARK    9  A    between atoms: C_13  and  C_15
REMARK                            x       y       z     vdW  Elec       q    Type
REMARK                         _______ _______ _______ _____ _____    ______ ____
ROOT
ATOM      1  C   UNL     1      45.267   7.401  12.086  0.00  0.00    +0.000 A 
ATOM      2  C   UNL     1      45.204   8.800  12.004  0.00  0.00    +0.000 A 
ATOM      3  C   UNL     1      46.333   9.578  12.253  0.00  0.00    +0.000 A 
ATOM      4  C   UNL     1      47.531   8.969  12.619  0.00  0.00    +0.000 A 
ATOM      5  C   UNL     1      47.604   7.577  12.758  0.00  0.00    +0.000 A 
ATOM      6  C   UNL     1      46.478   6.798  12.455  0.00  0.00    +0.000 A 
ENDROOT
BRANCH   1   7
ATOM      7  C   UNL     1      44.049   6.565  11.760  0.00  0.00    +0.000 C 
BRANCH   7   8
ATOM      8  N   UNL     1      44.196   5.862  10.492  0.00  0.00    +0.000 NA
ATOM      9  H   UNL     1      43.553   6.296   9.825  0.00  0.00    +0.000 HD
BRANCH   8  10
ATOM     10  C   UNL     1      43.833   4.429  10.537  0.00  0.00    +0.000 C 
BRANCH  10  11
ATOM     11  C   UNL     1      44.710   3.666   9.522  0.00  0.00    +0.000 A 
ATOM     12  C   UNL     1      45.505   4.373   8.613  0.00  0.00    +0.000 A 
ATOM     13  C   UNL     1      46.298   3.673   7.710  0.00  0.00    +0.000 A 
ATOM     14  C   UNL     1      46.267   2.287   7.717  0.00  0.00    +0.000 A 
ATOM     15  C   UNL     1      45.439   1.657   8.634  0.00  0.00    +0.000 A 
ATOM     16  N   UNL     1      44.664   2.309   9.532  0.00  0.00    +0.000 NA
ENDBRANCH  10  11
BRANCH  10  18
ATOM     17  C   UNL     1      45.387   3.424  12.400  0.00  0.00    +0.000 C 
ATOM     18  C   UNL     1      43.977   3.715  11.908  0.00  0.00    +0.000 C 
ENDBRANCH  10  18
ENDBRANCH   8  10
ENDBRANCH   7   8
ENDBRANCH   1   7
BRANCH   5  19
ATOM     19  C   UNL     1      48.884   6.920  13.196  0.00  0.00    +0.000 C 
BRANCH  19  20
ATOM     20  N   UNL     1      49.132   7.158  14.592  0.00  0.00    +0.000 N 
ATOM     21  C   UNL     1      48.680   6.287  15.549  0.00  0.00    +0.000 C 
ATOM     22  O   UNL     1      48.094   5.247  15.255  0.00  0.00    +0.000 OA
ATOM     23  H   UNL     1      49.404   8.099  14.856  0.00  0.00    +0.000 HD
BRANCH  21  24
ATOM     24  C   UNL     1      48.988   6.628  16.941  0.00  0.00    +0.000 A 
ATOM     25  C   UNL     1      48.592   7.861  17.444  0.00  0.00    +0.000 A 
ATOM     26  S   UNL     1      48.978   8.081  19.090  0.00  0.00    +0.000 S 
ATOM     27  C   UNL     1      49.731   6.557  19.175  0.00  0.00    +0.000 A 
ATOM     28  N   UNL     1      50.307   6.126  20.328  0.00  0.00    +0.000 NA
ATOM     29  C   UNL     1      50.863   4.961  20.242  0.00  0.00    +0.000 A 
ATOM     30  N   UNL     1      50.895   4.194  19.109  0.00  0.00    +0.000 N 
ATOM     31  C   UNL     1      50.314   4.579  17.930  0.00  0.00    +0.000 A 
ATOM     32  O   UNL     1      50.334   3.854  16.940  0.00  0.00    +0.000 OA
ATOM     33  C   UNL     1      49.673   5.880  17.968  0.00  0.00    +0.000 A 
ATOM     34  H   UNL     1      51.341   3.284  19.110  0.00  0.00    +0.000 HD
ENDBRANCH  21  24
ENDBRANCH  19  20
ENDBRANCH   5  19
TORSDOF 8
ENDMDL
MODEL 7
REMARK VINA RESULT:    -7.078      3.479      8.620
REMARK INTER + INTRA:         -11.525
REMARK INTER:                 -10.111
REMARK INTRA:                  -1.414
REMARK UNBOUND:                -1.136
REMARK  Name = 
REMARK  9 active torsions:
REMARK  status: ('A' for Active; 'I' for Inactive)
REMARK    1  A    between atoms: C_1  and  C_2
REMARK    2  A    between atoms: C_2  and  C_3
REMARK    3  A    between atoms: C_3  and  N_4
REMARK    4  A    between atoms: C_3  and  C_26
REMARK    5  A    between atoms: N_4  and  C_5
REMARK    6  A    between atoms: C_5  and  C_6
REMARK    7  A    between atoms: C_10  and  C_11
REMARK    8  A    between atoms: C_11  and  N_12
REMARK    9  A    between atoms: C_13  and  C_15
REMARK                            x       y       z     vdW  Elec       q    Type
REMARK                         _______ _______ _______ _____ _____    ______ ____
ROOT
ATOM      1  C   UNL     1      49.191   8.037  15.330  0.00  0.00    +0.000 A 
ATOM      2  C   UNL     1      50.570   8.046  15.075  0.00  0.00    +0.000 A 
ATOM      3  C   UNL     1      51.050   8.138  13.769  0.00  0.00    +0.000 A 
ATOM      4  C   UNL     1      50.157   8.186  12.702  0.00  0.00    +0.000 A 
ATOM      5  C   UNL     1      48.776   8.125  12.930  0.00  0.00    +0.000 A 
ATOM      6  C   UNL     1      48.301   8.087  14.249  0.00  0.00    +0.000 A 
ENDROOT
BRANCH   1   7
ATOM      7  C   UNL     1      48.684   7.993  16.755  0.00  0.00    +0.000 C 
BRANCH   7   8
ATOM      8  N   UNL     1      49.162   6.813  17.466  0.00  0.00    +0.000 NA
ATOM      9  H   UNL     1      49.999   6.483  16.982  0.00  0.00    +0.000 HD
BRANCH   8  10
ATOM     10  C   UNL     1      48.217   5.675  17.475  0.00  0.00    +0.000 C 
BRANCH  10  11
ATOM     11  C   UNL     1      49.021   4.367  17.327  0.00  0.00    +0.000 A 
ATOM     12  C   UNL     1      48.402   3.216  16.826  0.00  0.00    +0.000 A 
ATOM     13  C   UNL     1      49.141   2.046  16.690  0.00  0.00    +0.000 A 
ATOM     14  C   UNL     1      50.474   2.041  17.073  0.00  0.00    +0.000 A 
ATOM     15  C   UNL     1      51.012   3.214  17.580  0.00  0.00    +0.000 A 
ATOM     16  N   UNL     1      50.323   4.371  17.716  0.00  0.00    +0.000 NA
ENDBRANCH  10  11
BRANCH  10  18
ATOM     17  C   UNL     1      47.594   6.449  19.905  0.00  0.00    +0.000 C 
ATOM     18  C   UNL     1      47.312   5.529  18.728  0.00  0.00    +0.000 C 
ENDBRANCH  10  18
ENDBRANCH   8  10
ENDBRANCH   7   8
ENDBRANCH   1   7
BRANCH   5  19
ATOM     19  C   UNL     1      47.811   8.134  11.777  0.00  0.00    +0.000 C 
BRANCH  19  20
ATOM     20  N   UNL     1      47.061   6.909  11.726  0.00  0.00    +0.000 N 
ATOM     21  C   UNL     1      45.690   6.920  11.692  0.00  0.00    +0.000 C 
ATOM     22  O   UNL     1      45.050   7.969  11.651  0.00  0.00    +0.000 OA
ATOM     23  H   UNL     1      47.551   6.059  11.984  0.00  0.00    +0.000 HD
BRANCH  21  24
ATOM     24  C   UNL     1      45.028   5.613  11.643  0.00  0.00    +0.000 A 
ATOM     25  C   UNL     1      44.346   5.152  12.762  0.00  0.00    +0.000 A 
ATOM     26  S   UNL     1      43.588   3.644  12.524  0.00  0.00    +0.000 S 
ATOM     27  C   UNL     1      44.185   3.531  10.935  0.00  0.00    +0.000 A 
ATOM     28  N   UNL     1      43.917   2.444  10.163  0.00  0.00    +0.000 NA
ATOM     29  C   UNL     1      44.454   2.481   8.987  0.00  0.00    +0.000 A 
ATOM     30  N   UNL     1      45.234   3.503   8.518  0.00  0.00    +0.000 N 
ATOM     31  C   UNL     1      45.517   4.624   9.252  0.00  0.00    +0.000 A 
ATOM     32  O   UNL     1      46.195   5.537   8.790  0.00  0.00    +0.000 OA
ATOM     33  C   UNL     1      44.938   4.638  10.582  0.00  0.00    +0.000 A 
ATOM     34  H   UNL     1      45.620   3.474   7.581  0.00  0.00    +0.000 HD
ENDBRANCH  21  24
ENDBRANCH  19  20
ENDBRANCH   5  19
TORSDOF 8
ENDMDL
MODEL 8
REMARK VINA RESULT:    -7.071      4.000      8.274
REMARK INTER + INTRA:         -11.514
REMARK INTER:                  -9.728
REMARK INTRA:                  -1.787
REMARK UNBOUND:                -1.136
REMARK  Name = 
REMARK  9 active torsions:
REMARK  status: ('A' for Active; 'I' for Inactive)
REMARK    1  A    between atoms: C_1  and  C_2
REMARK    2  A    between atoms: C_2  and  C_3
REMARK    3  A    between atoms: C_3  and  N_4
REMARK    4  A    between atoms: C_3  and  C_26
REMARK    5  A    between atoms: N_4  and  C_5
REMARK    6  A    between atoms: C_5  and  C_6
REMARK    7  A    between atoms: C_10  and  C_11
REMARK    8  A    between atoms: C_11  and  N_12
REMARK    9  A    between atoms: C_13  and  C_15
REMARK                            x       y       z     vdW  Elec       q    Type
REMARK                         _______ _______ _______ _____ _____    ______ ____
ROOT
ATOM      1  C   UNL     1      50.191   5.902  17.509  0.00  0.00    +0.000 A 
ATOM      2  C   UNL     1      51.188   5.001  17.909  0.00  0.00    +0.000 A 
ATOM      3  C   UNL     1      50.983   3.625  17.813  0.00  0.00    +0.000 A 
ATOM      4  C   UNL     1      49.765   3.134  17.348  0.00  0.00    +0.000 A 
ATOM      5  C   UNL     1      48.736   4.015  16.991  0.00  0.00    +0.000 A 
ATOM      6  C   UNL     1      48.969   5.397  17.041  0.00  0.00    +0.000 A 
ENDROOT
BRANCH   1   7
ATOM      7  C   UNL     1      50.447   7.392  17.567  0.00  0.00    +0.000 C 
BRANCH   7   8
ATOM      8  N   UNL     1      49.970   8.072  16.369  0.00  0.00    +0.000 NA
ATOM      9  H   UNL     1      49.074   7.650  16.114  0.00  0.00    +0.000 HD
BRANCH   8  10
ATOM     10  C   UNL     1      50.845   7.923  15.186  0.00  0.00    +0.000 C 
BRANCH  10  11
ATOM     11  C   UNL     1      50.114   8.501  13.956  0.00  0.00    +0.000 A 
ATOM     12  C   UNL     1      50.125   7.804  12.743  0.00  0.00    +0.000 A 
ATOM     13  C   UNL     1      49.455   8.332  11.645  0.00  0.00    +0.000 A 
ATOM     14  C   UNL     1      48.805   9.551  11.772  0.00  0.00    +0.000 A 
ATOM     15  C   UNL     1      48.856  10.192  13.001  0.00  0.00    +0.000 A 
ATOM     16  N   UNL     1      49.490   9.699  14.090  0.00  0.00    +0.000 NA
ENDBRANCH  10  11
BRANCH  10  18
ATOM     17  C   UNL     1      53.406   7.869  14.610  0.00  0.00    +0.000 C 
ATOM     18  C   UNL     1      52.240   8.598  15.260  0.00  0.00    +0.000 C 
ENDBRANCH  10  18
ENDBRANCH   8  10
ENDBRANCH   7   8
ENDBRANCH   1   7
BRANCH   5  19
ATOM     19  C   UNL     1      47.406   3.488  16.530  0.00  0.00    +0.000 C 
BRANCH  19  20
ATOM     20  N   UNL     1      46.765   4.418  15.640  0.00  0.00    +0.000 N 
ATOM     21  C   UNL     1      46.743   4.200  14.287  0.00  0.00    +0.000 C 
ATOM     22  O   UNL     1      47.219   3.185  13.784  0.00  0.00    +0.000 OA
ATOM     23  H   UNL     1      46.576   5.345  16.004  0.00  0.00    +0.000 HD
BRANCH  21  24
ATOM     24  C   UNL     1      46.064   5.215  13.474  0.00  0.00    +0.000 A 
ATOM     25  C   UNL     1      46.666   6.452  13.285  0.00  0.00    +0.000 A 
ATOM     26  S   UNL     1      45.775   7.495  12.274  0.00  0.00    +0.000 S 
ATOM     27  C   UNL     1      44.531   6.349  12.092  0.00  0.00    +0.000 A 
ATOM     28  N   UNL     1      43.428   6.627  11.348  0.00  0.00    +0.000 NA
ATOM     29  C   UNL     1      42.553   5.674  11.317  0.00  0.00    +0.000 A 
ATOM     30  N   UNL     1      42.683   4.475  11.963  0.00  0.00    +0.000 N 
ATOM     31  C   UNL     1      43.783   4.144  12.710  0.00  0.00    +0.000 A 
ATOM     32  O   UNL     1      43.881   3.048  13.252  0.00  0.00    +0.000 OA
ATOM     33  C   UNL     1      44.799   5.177  12.779  0.00  0.00    +0.000 A 
ATOM     34  H   UNL     1      41.962   3.766  11.892  0.00  0.00    +0.000 HD
ENDBRANCH  21  24
ENDBRANCH  19  20
ENDBRANCH   5  19
TORSDOF 8
ENDMDL
MODEL 9
REMARK VINA RESULT:    -6.942      3.864      9.782
REMARK INTER + INTRA:         -11.325
REMARK INTER:                  -9.863
REMARK INTRA:                  -1.462
REMARK UNBOUND:                -1.136
REMARK  Name = 
REMARK  9 active torsions:
REMARK  status: ('A' for Active; 'I' for Inactive)
REMARK    1  A    between atoms: C_1  and  C_2
REMARK    2  A    between atoms: C_2  and  C_3
REMARK    3  A    between atoms: C_3  and  N_4
REMARK    4  A    between atoms: C_3  and  C_26
REMARK    5  A    between atoms: N_4  and  C_5
REMARK    6  A    between atoms: C_5  and  C_6
REMARK    7  A    between atoms: C_10  and  C_11
REMARK    8  A    between atoms: C_11  and  N_12
REMARK    9  A    between atoms: C_13  and  C_15
REMARK                            x       y       z     vdW  Elec       q    Type
REMARK                         _______ _______ _______ _____ _____    ______ ____
ROOT
ATOM      1  C   UNL     1      50.375   4.952  18.227  0.00  0.00    +0.000 A 
ATOM      2  C   UNL     1      51.327   3.930  18.095  0.00  0.00    +0.000 A 
ATOM      3  C   UNL     1      50.988   2.716  17.499  0.00  0.00    +0.000 A 
ATOM      4  C   UNL     1      49.685   2.497  17.060  0.00  0.00    +0.000 A 
ATOM      5  C   UNL     1      48.704   3.483  17.228  0.00  0.00    +0.000 A 
ATOM      6  C   UNL     1      49.066   4.721  17.780  0.00  0.00    +0.000 A 
ENDROOT
BRANCH   1   7
ATOM      7  C   UNL     1      50.770   6.284  18.824  0.00  0.00    +0.000 C 
BRANCH   7   8
ATOM      8  N   UNL     1      49.735   7.294  18.634  0.00  0.00    +0.000 NA
ATOM      9  H   UNL     1      50.184   8.121  18.235  0.00  0.00    +0.000 HD
BRANCH   8  10
ATOM     10  C   UNL     1      49.079   7.745  19.881  0.00  0.00    +0.000 C 
BRANCH  10  11
ATOM     11  C   UNL     1      48.357   9.080  19.602  0.00  0.00    +0.000 A 
ATOM     12  C   UNL     1      47.123   9.348  20.205  0.00  0.00    +0.000 A 
ATOM     13  C   UNL     1      46.487  10.559  19.952  0.00  0.00    +0.000 A 
ATOM     14  C   UNL     1      47.083  11.467  19.090  0.00  0.00    +0.000 A 
ATOM     15  C   UNL     1      48.296  11.121  18.514  0.00  0.00    +0.000 A 
ATOM     16  N   UNL     1      48.944   9.957  18.748  0.00  0.00    +0.000 NA
ENDBRANCH  10  11
BRANCH  10  18
ATOM     17  C   UNL     1      48.471   6.014  21.758  0.00  0.00    +0.000 C 
ATOM     18  C   UNL     1      48.044   6.777  20.514  0.00  0.00    +0.000 C 
ENDBRANCH  10  18
ENDBRANCH   8  10
ENDBRANCH   7   8
ENDBRANCH   1   7
BRANCH   5  19
ATOM     19  C   UNL     1      47.287   3.233  16.794  0.00  0.00    +0.000 C 
BRANCH  19  20
ATOM     20  N   UNL     1      46.839   4.256  15.888  0.00  0.00    +0.000 N 
ATOM     21  C   UNL     1      46.909   4.078  14.531  0.00  0.00    +0.000 C 
ATOM     22  O   UNL     1      47.305   3.026  14.033  0.00  0.00    +0.000 OA
ATOM     23  H   UNL     1      46.728   5.189  16.269  0.00  0.00    +0.000 HD
BRANCH  21  24
ATOM     24  C   UNL     1      46.426   5.187  13.702  0.00  0.00    +0.000 A 
ATOM     25  C   UNL     1      47.206   6.328  13.568  0.00  0.00    +0.000 A 
ATOM     26  S   UNL     1      46.529   7.498  12.529  0.00  0.00    +0.000 S 
ATOM     27  C   UNL     1      45.147   6.542  12.262  0.00  0.00    +0.000 A 
ATOM     28  N   UNL     1      44.137   6.982  11.466  0.00  0.00    +0.000 NA
ATOM     29  C   UNL     1      43.139   6.164  11.371  0.00  0.00    +0.000 A 
ATOM     30  N   UNL     1      43.062   4.952  12.001  0.00  0.00    +0.000 N 
ATOM     31  C   UNL     1      44.062   4.460  12.799  0.00  0.00    +0.000 A 
ATOM     32  O   UNL     1      43.974   3.355  13.326  0.00  0.00    +0.000 OA
ATOM     33  C   UNL     1      45.209   5.336  12.941  0.00  0.00    +0.000 A 
ATOM     34  H   UNL     1      42.254   4.353  11.880  0.00  0.00    +0.000 HD
ENDBRANCH  21  24
ENDBRANCH  19  20
ENDBRANCH   5  19
TORSDOF 8
ENDMDL
