MODEL 1
REMARK VINA RESULT:    -7.330      0.000      0.000
REMARK INTER + INTRA:         -11.912
REMARK INTER:                 -10.329
REMARK INTRA:                  -1.583
REMARK UNBOUND:                -1.583
REMARK  Name = 
REMARK  9 active torsions:
REMARK  status: ('A' for Active; 'I' for Inactive)
REMARK    1  A    between atoms: C_1  and  C_2
REMARK    2  A    between atoms: C_2  and  C_3
REMARK    3  A    between atoms: C_2  and  O_4
REMARK    4  A    between atoms: O_4  and  C_5
REMARK    5  A    between atoms: C_9  and  C_10
REMARK    6  A    between atoms: C_10  and  C_11
REMARK    7  A    between atoms: C_14  and  C_15
REMARK    8  A    between atoms: C_15  and  N_16
REMARK    9  A    between atoms: C_17  and  C_19
REMARK                            x       y       z     vdW  Elec       q    Type
REMARK                         _______ _______ _______ _____ _____    ______ ____
ROOT
ATOM      1  C   UNL     1      45.399   7.168  11.752  0.00  0.00    +0.000 A 
ATOM      2  C   UNL     1      46.601   6.484  11.522  0.00  0.00    +0.000 A 
ATOM      3  C   UNL     1      47.781   6.881  12.160  0.00  0.00    +0.000 A 
ATOM      4  C   UNL     1      47.778   7.963  13.049  0.00  0.00    +0.000 A 
ATOM      5  C   UNL     1      46.593   8.689  13.224  0.00  0.00    +0.000 A 
ATOM      6  C   UNL     1      45.414   8.290  12.591  0.00  0.00    +0.000 A 
ENDROOT
BRANCH   1   7
ATOM      7  C   UNL     1      44.111   6.717  11.107  0.00  0.00    +0.000 C 
BRANCH   7  12
ATOM      8  C   UNL     1      44.303   3.166   9.645  0.00  0.00    +0.000 A 
ATOM      9  C   UNL     1      43.927   2.419  10.756  0.00  0.00    +0.000 A 
ATOM     10  C   UNL     1      43.507   3.052  11.928  0.00  0.00    +0.000 A 
ATOM     11  C   UNL     1      43.509   4.443  12.016  0.00  0.00    +0.000 A 
ATOM     12  C   UNL     1      43.949   5.220  10.940  0.00  0.00    +0.000 A 
ATOM     13  C   UNL     1      44.302   4.570   9.741  0.00  0.00    +0.000 A 
BRANCH   8  14
ATOM     14  O   UNL     1      44.694   2.660   8.435  0.00  0.00    +0.000 OA
BRANCH  14  16
ATOM     15  C   UNL     1      46.477   1.164   7.871  0.00  0.00    +0.000 C 
ATOM     16  C   UNL     1      46.089   2.621   8.110  0.00  0.00    +0.000 C 
ATOM     17  C   UNL     1      46.352   3.447   6.852  0.00  0.00    +0.000 C 
ENDBRANCH  14  16
ENDBRANCH   8  14
ENDBRANCH   7  12
ENDBRANCH   1   7
BRANCH   4  18
ATOM     18  C   UNL     1      49.019   8.344  13.809  0.00  0.00    +0.000 C 
BRANCH  18  19
ATOM     19  N   UNL     1      49.185   7.553  14.998  0.00  0.00    +0.000 N 
ATOM     20  C   UNL     1      48.749   8.019  16.214  0.00  0.00    +0.000 C 
ATOM     21  O   UNL     1      48.168   9.097  16.325  0.00  0.00    +0.000 OA
ATOM     22  H   UNL     1      49.859   6.796  14.964  0.00  0.00    +0.000 HD
BRANCH  20  23
ATOM     23  C   UNL     1      48.961   7.147  17.376  0.00  0.00    +0.000 A 
ATOM     24  C   UNL     1      49.508   7.678  18.535  0.00  0.00    +0.000 A 
ATOM     25  S   UNL     1      49.631   6.551  19.811  0.00  0.00    +0.000 S 
ATOM     26  C   UNL     1      49.006   5.302  18.840  0.00  0.00    +0.000 A 
ATOM     27  N   UNL     1      48.864   4.041  19.328  0.00  0.00    +0.000 NA
ATOM     28  C   UNL     1      48.409   3.186  18.475  0.00  0.00    +0.000 A 
ATOM     29  N   UNL     1      48.083   3.478  17.176  0.00  0.00    +0.000 N 
ATOM     30  C   UNL     1      48.190   4.739  16.643  0.00  0.00    +0.000 A 
ATOM     31  O   UNL     1      47.857   4.976  15.486  0.00  0.00    +0.000 OA
ATOM     32  C   UNL     1      48.696   5.741  17.564  0.00  0.00    +0.000 A 
ATOM     33  H   UNL     1      47.732   2.761  16.557  0.00  0.00    +0.000 HD
ENDBRANCH  20  23
ENDBRANCH  18  19
ENDBRANCH   4  18
TORSDOF 7
ENDMDL
MODEL 2
REMARK VINA RESULT:    -7.221      2.008      2.818
REMARK INTER + INTRA:         -11.759
REMARK INTER:                 -10.479
REMARK INTRA:                  -1.280
REMARK UNBOUND:                -1.583
REMARK  Name = 
REMARK  9 active torsions:
REMARK  status: ('A' for Active; 'I' for Inactive)
REMARK    1  A    between atoms: C_1  and  C_2
REMARK    2  A    between atoms: C_2  and  C_3
REMARK    3  A    between atoms: C_2  and  O_4
REMARK    4  A    between atoms: O_4  and  C_5
REMARK    5  A    between atoms: C_9  and  C_10
REMARK    6  A    between atoms: C_10  and  C_11
REMARK    7  A    between atoms: C_14  and  C_15
REMARK    8  A    between atoms: C_15  and  N_16
REMARK    9  A    between atoms: C_17  and  C_19
REMARK                            x       y       z     vdW  Elec       q    Type
REMARK                         _______ _______ _______ _____ _____    ______ ____
ROOT
ATOM      1  C   UNL     1      45.785   6.130  12.065  0.00  0.00    +0.000 A 
ATOM      2  C   UNL     1      46.092   5.216  13.084  0.00  0.00    +0.000 A 
ATOM      3  C   UNL     1      47.180   5.436  13.935  0.00  0.00    +0.000 A 
ATOM      4  C   UNL     1      47.975   6.580  13.789  0.00  0.00    +0.000 A 
ATOM      5  C   UNL     1      47.710   7.455  12.729  0.00  0.00    +0.000 A 
ATOM      6  C   UNL     1      46.621   7.238  11.882  0.00  0.00    +0.000 A 
ENDROOT
BRANCH   1   7
ATOM      7  C   UNL     1      44.584   5.927  11.173  0.00  0.00    +0.000 C 
BRANCH   7  12
ATOM      8  C   UNL     1      45.576   3.513   8.349  0.00  0.00    +0.000 A 
ATOM      9  C   UNL     1      44.949   2.350   8.784  0.00  0.00    +0.000 A 
ATOM     10  C   UNL     1      44.122   2.368   9.910  0.00  0.00    +0.000 A 
ATOM     11  C   UNL     1      43.958   3.541  10.644  0.00  0.00    +0.000 A 
ATOM     12  C   UNL     1      44.632   4.710  10.273  0.00  0.00    +0.000 A 
ATOM     13  C   UNL     1      45.405   4.694   9.095  0.00  0.00    +0.000 A 
BRANCH   8  14
ATOM     14  O   UNL     1      46.373   3.627   7.243  0.00  0.00    +0.000 OA
BRANCH  14  16
ATOM     15  C   UNL     1      46.974   2.908   5.039  0.00  0.00    +0.000 C 
ATOM     16  C   UNL     1      46.662   2.459   6.464  0.00  0.00    +0.000 C 
ATOM     17  C   UNL     1      47.862   1.723   7.058  0.00  0.00    +0.000 C 
ENDBRANCH  14  16
ENDBRANCH   8  14
ENDBRANCH   7  12
ENDBRANCH   1   7
BRANCH   4  18
ATOM     18  C   UNL     1      49.093   6.873  14.753  0.00  0.00    +0.000 C 
BRANCH  18  19
ATOM     19  N   UNL     1      48.690   6.674  16.119  0.00  0.00    +0.000 N 
ATOM     20  C   UNL     1      49.530   6.054  17.012  0.00  0.00    +0.000 C 
ATOM     21  O   UNL     1      50.661   5.690  16.693  0.00  0.00    +0.000 OA
ATOM     22  H   UNL     1      47.700   6.745  16.328  0.00  0.00    +0.000 HD
BRANCH  20  23
ATOM     23  C   UNL     1      49.037   5.889  18.384  0.00  0.00    +0.000 A 
ATOM     24  C   UNL     1      49.141   4.651  19.001  0.00  0.00    +0.000 A 
ATOM     25  S   UNL     1      48.582   4.642  20.614  0.00  0.00    +0.000 S 
ATOM     26  C   UNL     1      48.132   6.280  20.524  0.00  0.00    +0.000 A 
ATOM     27  N   UNL     1      47.557   6.906  21.585  0.00  0.00    +0.000 NA
ATOM     28  C   UNL     1      47.238   8.138  21.369  0.00  0.00    +0.000 A 
ATOM     29  N   UNL     1      47.440   8.801  20.186  0.00  0.00    +0.000 N 
ATOM     30  C   UNL     1      48.034   8.217  19.094  0.00  0.00    +0.000 A 
ATOM     31  O   UNL     1      48.234   8.848  18.060  0.00  0.00    +0.000 OA
ATOM     32  C   UNL     1      48.416   6.829  19.286  0.00  0.00    +0.000 A 
ATOM     33  H   UNL     1      47.166   9.767  20.081  0.00  0.00    +0.000 HD
ENDBRANCH  20  23
ENDBRANCH  18  19
ENDBRANCH   4  18
TORSDOF 7
ENDMDL
MODEL 3
REMARK VINA RESULT:    -6.873      2.190      2.400
REMARK INTER + INTRA:         -11.268
REMARK INTER:                  -9.795
REMARK INTRA:                  -1.474
REMARK UNBOUND:                -1.583
REMARK  Name = 
REMARK  9 active torsions:
REMARK  status: ('A' for Active; 'I' for Inactive)
REMARK    1  A    between atoms: C_1  and  C_2
REMARK    2  A    between atoms: C_2  and  C_3
REMARK    3  A    between atoms: C_2  and  O_4
REMARK    4  A    between atoms: O_4  and  C_5
REMARK    5  A    between atoms: C_9  and  C_10
REMARK    6  A    between atoms: C_10  and  C_11
REMARK    7  A    between atoms: C_14  and  C_15
REMARK    8  A    between atoms: C_15  and  N_16
REMARK    9  A    between atoms: C_17  and  C_19
REMARK                            x       y       z     vdW  Elec       q    Type
REMARK                         _______ _______ _______ _____ _____    ______ ____
ROOT
ATOM      1  C   UNL     1      45.607   7.139  12.082  0.00  0.00    +0.000 A 
ATOM      2  C   UNL     1      46.728   6.297  12.046  0.00  0.00    +0.000 A 
ATOM      3  C   UNL     1      47.877   6.606  12.783  0.00  0.00    +0.000 A 
ATOM      4  C   UNL     1      47.921   7.758  13.578  0.00  0.00    +0.000 A 
ATOM      5  C   UNL     1      46.828   8.634  13.559  0.00  0.00    +0.000 A 
ATOM      6  C   UNL     1      45.680   8.323  12.827  0.00  0.00    +0.000 A 
ENDROOT
BRANCH   1   7
ATOM      7  C   UNL     1      44.347   6.788  11.330  0.00  0.00    +0.000 C 
BRANCH   7  12
ATOM      8  C   UNL     1      44.279   3.275   9.768  0.00  0.00    +0.000 A 
ATOM      9  C   UNL     1      43.900   2.519  10.872  0.00  0.00    +0.000 A 
ATOM     10  C   UNL     1      43.558   3.142  12.075  0.00  0.00    +0.000 A 
ATOM     11  C   UNL     1      43.645   4.527  12.199  0.00  0.00    +0.000 A 
ATOM     12  C   UNL     1      44.091   5.309  11.129  0.00  0.00    +0.000 A 
ATOM     13  C   UNL     1      44.364   4.673   9.901  0.00  0.00    +0.000 A 
BRANCH   8  14
ATOM     14  O   UNL     1      44.597   2.783   8.531  0.00  0.00    +0.000 OA
BRANCH  14  16
ATOM     15  C   UNL     1      46.243   1.109   8.057  0.00  0.00    +0.000 C 
ATOM     16  C   UNL     1      45.976   2.608   8.180  0.00  0.00    +0.000 C 
ATOM     17  C   UNL     1      46.266   3.304   6.852  0.00  0.00    +0.000 C 
ENDBRANCH  14  16
ENDBRANCH   8  14
ENDBRANCH   7  12
ENDBRANCH   1   7
BRANCH   4  18
ATOM     18  C   UNL     1      49.115   8.055  14.444  0.00  0.00    +0.000 C 
BRANCH  18  19
ATOM     19  N   UNL     1      49.617   6.873  15.092  0.00  0.00    +0.000 N 
ATOM     20  C   UNL     1      49.283   6.596  16.395  0.00  0.00    +0.000 C 
ATOM     21  O   UNL     1      48.517   7.315  17.036  0.00  0.00    +0.000 OA
ATOM     22  H   UNL     1      50.418   6.416  14.671  0.00  0.00    +0.000 HD
BRANCH  20  23
ATOM     23  C   UNL     1      49.841   5.371  16.978  0.00  0.00    +0.000 A 
ATOM     24  C   UNL     1      48.984   4.367  17.403  0.00  0.00    +0.000 A 
ATOM     25  S   UNL     1      49.791   2.984  17.997  0.00  0.00    +0.000 S 
ATOM     26  C   UNL     1      51.313   3.704  17.756  0.00  0.00    +0.000 A 
ATOM     27  N   UNL     1      52.457   3.047  18.086  0.00  0.00    +0.000 NA
ATOM     28  C   UNL     1      53.538   3.721  17.881  0.00  0.00    +0.000 A 
ATOM     29  N   UNL     1      53.580   4.995  17.376  0.00  0.00    +0.000 N 
ATOM     30  C   UNL     1      52.455   5.691  17.010  0.00  0.00    +0.000 A 
ATOM     31  O   UNL     1      52.527   6.817  16.527  0.00  0.00    +0.000 OA
ATOM     32  C   UNL     1      51.208   4.975  17.219  0.00  0.00    +0.000 A 
ATOM     33  H   UNL     1      54.461   5.469  17.240  0.00  0.00    +0.000 HD
ENDBRANCH  20  23
ENDBRANCH  18  19
ENDBRANCH   4  18
TORSDOF 7
ENDMDL
MODEL 4
REMARK VINA RESULT:    -6.741      3.368      8.242
REMARK INTER + INTRA:         -11.082
REMARK INTER:                  -9.527
REMARK INTRA:                  -1.555
REMARK UNBOUND:                -1.583
REMARK  Name = 
REMARK  9 active torsions:
REMARK  status: ('A' for Active; 'I' for Inactive)
REMARK    1  A    between atoms: C_1  and  C_2
REMARK    2  A    between atoms: C_2  and  C_3
REMARK    3  A    between atoms: C_2  and  O_4
REMARK    4  A    between atoms: O_4  and  C_5
REMARK    5  A    between atoms: C_9  and  C_10
REMARK    6  A    between atoms: C_10  and  C_11
REMARK    7  A    between atoms: C_14  and  C_15
REMARK    8  A    between atoms: C_15  and  N_16
REMARK    9  A    between atoms: C_17  and  C_19
REMARK                            x       y       z     vdW  Elec       q    Type
REMARK                         _______ _______ _______ _____ _____    ______ ____
ROOT
ATOM      1  C   UNL     1      49.325   8.390  16.085  0.00  0.00    +0.000 A 
ATOM      2  C   UNL     1      48.108   8.928  15.642  0.00  0.00    +0.000 A 
ATOM      3  C   UNL     1      47.710   8.787  14.308  0.00  0.00    +0.000 A 
ATOM      4  C   UNL     1      48.517   8.095  13.396  0.00  0.00    +0.000 A 
ATOM      5  C   UNL     1      49.763   7.620  13.823  0.00  0.00    +0.000 A 
ATOM      6  C   UNL     1      50.158   7.757  15.155  0.00  0.00    +0.000 A 
ENDROOT
BRANCH   1   7
ATOM      7  C   UNL     1      49.739   8.495  17.533  0.00  0.00    +0.000 C 
BRANCH   7  12
ATOM      8  C   UNL     1      48.867   5.117  19.150  0.00  0.00    +0.000 A 
ATOM      9  C   UNL     1      48.312   5.551  20.349  0.00  0.00    +0.000 A 
ATOM     10  C   UNL     1      48.115   6.913  20.588  0.00  0.00    +0.000 A 
ATOM     11  C   UNL     1      48.521   7.858  19.648  0.00  0.00    +0.000 A 
ATOM     12  C   UNL     1      49.147   7.456  18.463  0.00  0.00    +0.000 A 
ATOM     13  C   UNL     1      49.274   6.077  18.205  0.00  0.00    +0.000 A 
BRANCH   8  14
ATOM     14  O   UNL     1      49.072   3.813  18.787  0.00  0.00    +0.000 OA
BRANCH  14  16
ATOM     15  C   UNL     1      49.836   2.292  17.103  0.00  0.00    +0.000 C 
ATOM     16  C   UNL     1      48.864   3.425  17.424  0.00  0.00    +0.000 C 
ATOM     17  C   UNL     1      47.424   2.951  17.233  0.00  0.00    +0.000 C 
ENDBRANCH  14  16
ENDBRANCH   8  14
ENDBRANCH   7  12
ENDBRANCH   1   7
BRANCH   4  18
ATOM     18  C   UNL     1      48.060   7.859  11.981  0.00  0.00    +0.000 C 
BRANCH  18  19
ATOM     19  N   UNL     1      47.309   6.639  11.857  0.00  0.00    +0.000 N 
ATOM     20  C   UNL     1      45.936   6.665  11.831  0.00  0.00    +0.000 C 
ATOM     21  O   UNL     1      45.305   7.720  11.868  0.00  0.00    +0.000 OA
ATOM     22  H   UNL     1      47.791   5.772  12.065  0.00  0.00    +0.000 HD
BRANCH  20  23
ATOM     23  C   UNL     1      45.249   5.373  11.704  0.00  0.00    +0.000 A 
ATOM     24  C   UNL     1      44.634   4.817  12.816  0.00  0.00    +0.000 A 
ATOM     25  S   UNL     1      43.827   3.349  12.488  0.00  0.00    +0.000 S 
ATOM     26  C   UNL     1      44.320   3.379  10.861  0.00  0.00    +0.000 A 
ATOM     27  N   UNL     1      43.978   2.378  10.007  0.00  0.00    +0.000 NA
ATOM     28  C   UNL     1      44.445   2.512   8.812  0.00  0.00    +0.000 A 
ATOM     29  N   UNL     1      45.226   3.557   8.391  0.00  0.00    +0.000 N 
ATOM     30  C   UNL     1      45.582   4.601   9.209  0.00  0.00    +0.000 A 
ATOM     31  O   UNL     1      46.253   5.541   8.793  0.00  0.00    +0.000 OA
ATOM     32  C   UNL     1      45.078   4.500  10.568  0.00  0.00    +0.000 A 
ATOM     33  H   UNL     1      45.561   3.603   7.440  0.00  0.00    +0.000 HD
ENDBRANCH  20  23
ENDBRANCH  18  19
ENDBRANCH   4  18
TORSDOF 7
ENDMDL
MODEL 5
REMARK VINA RESULT:    -6.604      2.557      3.893
REMARK INTER + INTRA:         -10.889
REMARK INTER:                  -9.572
REMARK INTRA:                  -1.317
REMARK UNBOUND:                -1.583
REMARK  Name = 
REMARK  9 active torsions:
REMARK  status: ('A' for Active; 'I' for Inactive)
REMARK    1  A    between atoms: C_1  and  C_2
REMARK    2  A    between atoms: C_2  and  C_3
REMARK    3  A    between atoms: C_2  and  O_4
REMARK    4  A    between atoms: O_4  and  C_5
REMARK    5  A    between atoms: C_9  and  C_10
REMARK    6  A    between atoms: C_10  and  C_11
REMARK    7  A    between atoms: C_14  and  C_15
REMARK    8  A    between atoms: C_15  and  N_16
REMARK    9  A    between atoms: C_17  and  C_19
REMARK                            x       y       z     vdW  Elec       q    Type
REMARK                         _______ _______ _______ _____ _____    ______ ____
ROOT
ATOM      1  C   UNL     1      47.309   6.252  13.356  0.00  0.00    +0.000 A 
ATOM      2  C   UNL     1      46.893   5.012  13.861  0.00  0.00    +0.000 A 
ATOM      3  C   UNL     1      47.356   4.553  15.098  0.00  0.00    +0.000 A 
ATOM      4  C   UNL     1      48.236   5.332  15.859  0.00  0.00    +0.000 A 
ATOM      5  C   UNL     1      48.706   6.539  15.324  0.00  0.00    +0.000 A 
ATOM      6  C   UNL     1      48.239   6.998  14.090  0.00  0.00    +0.000 A 
ENDROOT
BRANCH   1   7
ATOM      7  C   UNL     1      46.776   6.777  12.046  0.00  0.00    +0.000 C 
BRANCH   7  12
ATOM      8  C   UNL     1      44.403   4.640   9.904  0.00  0.00    +0.000 A 
ATOM      9  C   UNL     1      43.286   4.602  10.733  0.00  0.00    +0.000 A 
ATOM     10  C   UNL     1      43.253   5.348  11.914  0.00  0.00    +0.000 A 
ATOM     11  C   UNL     1      44.360   6.099  12.303  0.00  0.00    +0.000 A 
ATOM     12  C   UNL     1      45.524   6.101  11.526  0.00  0.00    +0.000 A 
ATOM     13  C   UNL     1      45.517   5.401  10.303  0.00  0.00    +0.000 A 
BRANCH   8  14
ATOM     14  O   UNL     1      44.536   3.986   8.709  0.00  0.00    +0.000 OA
BRANCH  14  16
ATOM     15  C   UNL     1      45.355   1.737   8.771  0.00  0.00    +0.000 C 
ATOM     16  C   UNL     1      45.705   3.192   8.472  0.00  0.00    +0.000 C 
ATOM     17  C   UNL     1      46.146   3.338   7.017  0.00  0.00    +0.000 C 
ENDBRANCH  14  16
ENDBRANCH   8  14
ENDBRANCH   7  12
ENDBRANCH   1   7
BRANCH   4  18
ATOM     18  C   UNL     1      48.673   4.892  17.231  0.00  0.00    +0.000 C 
BRANCH  18  19
ATOM     19  N   UNL     1      48.595   5.962  18.188  0.00  0.00    +0.000 N 
ATOM     20  C   UNL     1      47.456   6.153  18.932  0.00  0.00    +0.000 C 
ATOM     21  O   UNL     1      46.488   5.399  18.842  0.00  0.00    +0.000 OA
ATOM     22  H   UNL     1      49.269   6.714  18.101  0.00  0.00    +0.000 HD
BRANCH  20  23
ATOM     23  C   UNL     1      47.462   7.271  19.883  0.00  0.00    +0.000 A 
ATOM     24  C   UNL     1      47.308   7.014  21.237  0.00  0.00    +0.000 A 
ATOM     25  S   UNL     1      47.402   8.411  22.213  0.00  0.00    +0.000 S 
ATOM     26  C   UNL     1      47.597   9.413  20.853  0.00  0.00    +0.000 A 
ATOM     27  N   UNL     1      47.717  10.761  20.989  0.00  0.00    +0.000 NA
ATOM     28  C   UNL     1      47.826  11.402  19.874  0.00  0.00    +0.000 A 
ATOM     29  N   UNL     1      47.826  10.818  18.634  0.00  0.00    +0.000 N 
ATOM     30  C   UNL     1      47.727   9.461  18.447  0.00  0.00    +0.000 A 
ATOM     31  O   UNL     1      47.765   8.965  17.325  0.00  0.00    +0.000 OA
ATOM     32  C   UNL     1      47.603   8.691  19.672  0.00  0.00    +0.000 A 
ATOM     33  H   UNL     1      47.915  11.378  17.798  0.00  0.00    +0.000 HD
ENDBRANCH  20  23
ENDBRANCH  18  19
ENDBRANCH   4  18
TORSDOF 7
ENDMDL
MODEL 6
REMARK VINA RESULT:    -6.556      5.469      8.015
REMARK INTER + INTRA:         -10.822
REMARK INTER:                  -9.756
REMARK INTRA:                  -1.066
REMARK UNBOUND:                -1.583
REMARK  Name = 
REMARK  9 active torsions:
REMARK  status: ('A' for Active; 'I' for Inactive)
REMARK    1  A    between atoms: C_1  and  C_2
REMARK    2  A    between atoms: C_2  and  C_3
REMARK    3  A    between atoms: C_2  and  O_4
REMARK    4  A    between atoms: O_4  and  C_5
REMARK    5  A    between atoms: C_9  and  C_10
REMARK    6  A    between atoms: C_10  and  C_11
REMARK    7  A    between atoms: C_14  and  C_15
REMARK    8  A    between atoms: C_15  and  N_16
REMARK    9  A    between atoms: C_17  and  C_19
REMARK                            x       y       z     vdW  Elec       q    Type
REMARK                         _______ _______ _______ _____ _____    ______ ____
ROOT
ATOM      1  C   UNL     1      51.122   8.757  11.102  0.00  0.00    +0.000 A 
ATOM      2  C   UNL     1      50.459   7.565  11.430  0.00  0.00    +0.000 A 
ATOM      3  C   UNL     1      49.117   7.580  11.822  0.00  0.00    +0.000 A 
ATOM      4  C   UNL     1      48.409   8.787  11.883  0.00  0.00    +0.000 A 
ATOM      5  C   UNL     1      49.091   9.983  11.624  0.00  0.00    +0.000 A 
ATOM      6  C   UNL     1      50.430   9.967  11.228  0.00  0.00    +0.000 A 
ENDROOT
BRANCH   1   7
ATOM      7  C   UNL     1      52.556   8.745  10.631  0.00  0.00    +0.000 C 
BRANCH   7  12
ATOM      8  C   UNL     1      52.761   6.837   7.298  0.00  0.00    +0.000 A 
ATOM      9  C   UNL     1      52.844   7.901   6.407  0.00  0.00    +0.000 A 
ATOM     10  C   UNL     1      52.947   9.213   6.876  0.00  0.00    +0.000 A 
ATOM     11  C   UNL     1      52.916   9.476   8.244  0.00  0.00    +0.000 A 
ATOM     12  C   UNL     1      52.763   8.433   9.163  0.00  0.00    +0.000 A 
ATOM     13  C   UNL     1      52.731   7.110   8.679  0.00  0.00    +0.000 A 
BRANCH   8  14
ATOM     14  O   UNL     1      52.696   5.512   6.961  0.00  0.00    +0.000 OA
BRANCH  14  16
ATOM     15  C   UNL     1      55.053   5.287   7.318  0.00  0.00    +0.000 C 
ATOM     16  C   UNL     1      53.868   4.860   6.456  0.00  0.00    +0.000 C 
ATOM     17  C   UNL     1      53.688   3.345   6.524  0.00  0.00    +0.000 C 
ENDBRANCH  14  16
ENDBRANCH   8  14
ENDBRANCH   7  12
ENDBRANCH   1   7
BRANCH   4  18
ATOM     18  C   UNL     1      46.942   8.808  12.217  0.00  0.00    +0.000 C 
BRANCH  18  19
ATOM     19  N   UNL     1      46.365   7.492  12.184  0.00  0.00    +0.000 N 
ATOM     20  C   UNL     1      45.111   7.292  11.659  0.00  0.00    +0.000 C 
ATOM     21  O   UNL     1      44.461   8.210  11.164  0.00  0.00    +0.000 OA
ATOM     22  H   UNL     1      46.773   6.789  12.790  0.00  0.00    +0.000 HD
BRANCH  20  23
ATOM     23  C   UNL     1      44.598   5.916  11.668  0.00  0.00    +0.000 A 
ATOM     24  C   UNL     1      43.859   5.472  12.754  0.00  0.00    +0.000 A 
ATOM     25  S   UNL     1      43.283   3.874  12.582  0.00  0.00    +0.000 S 
ATOM     26  C   UNL     1      44.049   3.704  11.073  0.00  0.00    +0.000 A 
ATOM     27  N   UNL     1      43.971   2.538  10.377  0.00  0.00    +0.000 NA
ATOM     28  C   UNL     1      44.625   2.537   9.265  0.00  0.00    +0.000 A 
ATOM     29  N   UNL     1      45.352   3.595   8.784  0.00  0.00    +0.000 N 
ATOM     30  C   UNL     1      45.446   4.797   9.441  0.00  0.00    +0.000 A 
ATOM     31  O   UNL     1      46.076   5.738   8.968  0.00  0.00    +0.000 OA
ATOM     32  C   UNL     1      44.724   4.853  10.701  0.00  0.00    +0.000 A 
ATOM     33  H   UNL     1      45.844   3.528   7.905  0.00  0.00    +0.000 HD
ENDBRANCH  20  23
ENDBRANCH  18  19
ENDBRANCH   4  18
TORSDOF 7
ENDMDL
MODEL 7
REMARK VINA RESULT:    -6.383      3.003      3.834
REMARK INTER + INTRA:         -10.578
REMARK INTER:                  -9.511
REMARK INTRA:                  -1.067
REMARK UNBOUND:                -1.583
REMARK  Name = 
REMARK  9 active torsions:
REMARK  status: ('A' for Active; 'I' for Inactive)
REMARK    1  A    between atoms: C_1  and  C_2
REMARK    2  A    between atoms: C_2  and  C_3
REMARK    3  A    between atoms: C_2  and  O_4
REMARK    4  A    between atoms: O_4  and  C_5
REMARK    5  A    between atoms: C_9  and  C_10
REMARK    6  A    between atoms: C_10  and  C_11
REMARK    7  A    between atoms: C_14  and  C_15
REMARK    8  A    between atoms: C_15  and  N_16
REMARK    9  A    between atoms: C_17  and  C_19
REMARK                            x       y       z     vdW  Elec       q    Type
REMARK                         _______ _______ _______ _____ _____    ______ ____
ROOT
ATOM      1  C   UNL     1      47.672   6.716  13.155  0.00  0.00    +0.000 A 
ATOM      2  C   UNL     1      47.299   5.563  13.861  0.00  0.00    +0.000 A 
ATOM      3  C   UNL     1      47.698   5.379  15.189  0.00  0.00    +0.000 A 
ATOM      4  C   UNL     1      48.470   6.350  15.839  0.00  0.00    +0.000 A 
ATOM      5  C   UNL     1      48.901   7.467  15.112  0.00  0.00    +0.000 A 
ATOM      6  C   UNL     1      48.498   7.653  13.788  0.00  0.00    +0.000 A 
ENDROOT
BRANCH   1   7
ATOM      7  C   UNL     1      47.204   6.946  11.739  0.00  0.00    +0.000 C 
BRANCH   7  12
ATOM      8  C   UNL     1      44.494   4.420  10.710  0.00  0.00    +0.000 A 
ATOM      9  C   UNL     1      43.348   5.144  11.022  0.00  0.00    +0.000 A 
ATOM     10  C   UNL     1      43.441   6.471  11.451  0.00  0.00    +0.000 A 
ATOM     11  C   UNL     1      44.688   7.069  11.621  0.00  0.00    +0.000 A 
ATOM     12  C   UNL     1      45.861   6.344  11.384  0.00  0.00    +0.000 A 
ATOM     13  C   UNL     1      45.749   5.031  10.885  0.00  0.00    +0.000 A 
BRANCH   8  14
ATOM     14  O   UNL     1      44.526   3.133  10.246  0.00  0.00    +0.000 OA
BRANCH  14  16
ATOM     15  C   UNL     1      45.054   1.361   8.723  0.00  0.00    +0.000 C 
ATOM     16  C   UNL     1      45.248   2.842   9.042  0.00  0.00    +0.000 C 
ATOM     17  C   UNL     1      44.714   3.700   7.897  0.00  0.00    +0.000 C 
ENDBRANCH  14  16
ENDBRANCH   8  14
ENDBRANCH   7  12
ENDBRANCH   1   7
BRANCH   4  18
ATOM     18  C   UNL     1      48.831   6.206  17.293  0.00  0.00    +0.000 C 
BRANCH  18  19
ATOM     19  N   UNL     1      50.113   5.578  17.468  0.00  0.00    +0.000 N 
ATOM     20  C   UNL     1      50.257   4.511  18.321  0.00  0.00    +0.000 C 
ATOM     21  O   UNL     1      49.300   4.030  18.926  0.00  0.00    +0.000 OA
ATOM     22  H   UNL     1      50.931   6.099  17.174  0.00  0.00    +0.000 HD
BRANCH  20  23
ATOM     23  C   UNL     1      51.600   3.932  18.441  0.00  0.00    +0.000 A 
ATOM     24  C   UNL     1      52.617   4.683  19.011  0.00  0.00    +0.000 A 
ATOM     25  S   UNL     1      54.099   3.846  19.135  0.00  0.00    +0.000 S 
ATOM     26  C   UNL     1      53.445   2.468  18.382  0.00  0.00    +0.000 A 
ATOM     27  N   UNL     1      54.209   1.366  18.155  0.00  0.00    +0.000 NA
ATOM     28  C   UNL     1      53.595   0.408  17.547  0.00  0.00    +0.000 A 
ATOM     29  N   UNL     1      52.286   0.450  17.144  0.00  0.00    +0.000 N 
ATOM     30  C   UNL     1      51.470   1.532  17.367  0.00  0.00    +0.000 A 
ATOM     31  O   UNL     1      50.291   1.526  17.025  0.00  0.00    +0.000 OA
ATOM     32  C   UNL     1      52.112   2.640  18.051  0.00  0.00    +0.000 A 
ATOM     33  H   UNL     1      51.864  -0.336  16.671  0.00  0.00    +0.000 HD
ENDBRANCH  20  23
ENDBRANCH  18  19
ENDBRANCH   4  18
TORSDOF 7
ENDMDL
MODEL 8
REMARK VINA RESULT:    -6.348      3.162      5.068
REMARK INTER + INTRA:         -10.529
REMARK INTER:                  -9.591
REMARK INTRA:                  -0.938
REMARK UNBOUND:                -1.583
REMARK  Name = 
REMARK  9 active torsions:
REMARK  status: ('A' for Active; 'I' for Inactive)
REMARK    1  A    between atoms: C_1  and  C_2
REMARK    2  A    between atoms: C_2  and  C_3
REMARK    3  A    between atoms: C_2  and  O_4
REMARK    4  A    between atoms: O_4  and  C_5
REMARK    5  A    between atoms: C_9  and  C_10
REMARK    6  A    between atoms: C_10  and  C_11
REMARK    7  A    between atoms: C_14  and  C_15
REMARK    8  A    between atoms: C_15  and  N_16
REMARK    9  A    between atoms: C_17  and  C_19
REMARK                            x       y       z     vdW  Elec       q    Type
REMARK                         _______ _______ _______ _____ _____    ______ ____
ROOT
ATOM      1  C   UNL     1      47.778   6.117  13.999  0.00  0.00    +0.000 A 
ATOM      2  C   UNL     1      48.482   6.474  15.157  0.00  0.00    +0.000 A 
ATOM      3  C   UNL     1      48.501   5.627  16.270  0.00  0.00    +0.000 A 
ATOM      4  C   UNL     1      47.825   4.401  16.241  0.00  0.00    +0.000 A 
ATOM      5  C   UNL     1      47.064   4.077  15.110  0.00  0.00    +0.000 A 
ATOM      6  C   UNL     1      47.049   4.921  13.998  0.00  0.00    +0.000 A 
ENDROOT
BRANCH   1   7
ATOM      7  C   UNL     1      47.792   7.001  12.776  0.00  0.00    +0.000 C 
BRANCH   7  12
ATOM      8  C   UNL     1      44.334   6.422  11.197  0.00  0.00    +0.000 A 
ATOM      9  C   UNL     1      43.828   7.717  11.223  0.00  0.00    +0.000 A 
ATOM     10  C   UNL     1      44.630   8.784  11.636  0.00  0.00    +0.000 A 
ATOM     11  C   UNL     1      45.931   8.556  12.079  0.00  0.00    +0.000 A 
ATOM     12  C   UNL     1      46.445   7.255  12.132  0.00  0.00    +0.000 A 
ATOM     13  C   UNL     1      45.650   6.199  11.645  0.00  0.00    +0.000 A 
BRANCH   8  14
ATOM     14  O   UNL     1      43.661   5.307  10.776  0.00  0.00    +0.000 OA
BRANCH  14  16
ATOM     15  C   UNL     1      43.570   3.025  11.496  0.00  0.00    +0.000 C 
ATOM     16  C   UNL     1      44.358   4.058  10.693  0.00  0.00    +0.000 C 
ATOM     17  C   UNL     1      44.464   3.619   9.234  0.00  0.00    +0.000 C 
ENDBRANCH  14  16
ENDBRANCH   8  14
ENDBRANCH   7  12
ENDBRANCH   1   7
BRANCH   4  18
ATOM     18  C   UNL     1      47.911   3.442  17.397  0.00  0.00    +0.000 C 
BRANCH  18  19
ATOM     19  N   UNL     1      49.272   3.201  17.794  0.00  0.00    +0.000 N 
ATOM     20  C   UNL     1      50.055   2.311  17.100  0.00  0.00    +0.000 C 
ATOM     21  O   UNL     1      49.643   1.728  16.098  0.00  0.00    +0.000 OA
ATOM     22  H   UNL     1      49.539   3.479  18.732  0.00  0.00    +0.000 HD
BRANCH  20  23
ATOM     23  C   UNL     1      51.430   2.124  17.576  0.00  0.00    +0.000 A 
ATOM     24  C   UNL     1      51.978   0.850  17.591  0.00  0.00    +0.000 A 
ATOM     25  S   UNL     1      53.604   0.810  18.111  0.00  0.00    +0.000 S 
ATOM     26  C   UNL     1      53.613   2.489  18.385  0.00  0.00    +0.000 A 
ATOM     27  N   UNL     1      54.721   3.113  18.866  0.00  0.00    +0.000 NA
ATOM     28  C   UNL     1      54.578   4.381  19.057  0.00  0.00    +0.000 A 
ATOM     29  N   UNL     1      53.427   5.084  18.812  0.00  0.00    +0.000 N 
ATOM     30  C   UNL     1      52.289   4.502  18.309  0.00  0.00    +0.000 A 
ATOM     31  O   UNL     1      51.285   5.164  18.067  0.00  0.00    +0.000 OA
ATOM     32  C   UNL     1      52.397   3.073  18.073  0.00  0.00    +0.000 A 
ATOM     33  H   UNL     1      53.380   6.077  18.985  0.00  0.00    +0.000 HD
ENDBRANCH  20  23
ENDBRANCH  18  19
ENDBRANCH   4  18
TORSDOF 7
ENDMDL
MODEL 9
REMARK VINA RESULT:    -6.215      4.020      9.128
REMARK INTER + INTRA:         -10.341
REMARK INTER:                  -8.996
REMARK INTRA:                  -1.345
REMARK UNBOUND:                -1.583
REMARK  Name = 
REMARK  9 active torsions:
REMARK  status: ('A' for Active; 'I' for Inactive)
REMARK    1  A    between atoms: C_1  and  C_2
REMARK    2  A    between atoms: C_2  and  C_3
REMARK    3  A    between atoms: C_2  and  O_4
REMARK    4  A    between atoms: O_4  and  C_5
REMARK    5  A    between atoms: C_9  and  C_10
REMARK    6  A    between atoms: C_10  and  C_11
REMARK    7  A    between atoms: C_14  and  C_15
REMARK    8  A    between atoms: C_15  and  N_16
REMARK    9  A    between atoms: C_17  and  C_19
REMARK                            x       y       z     vdW  Elec       q    Type
REMARK                         _______ _______ _______ _____ _____    ______ ____
ROOT
ATOM      1  C   UNL     1      51.354   4.067  17.744  0.00  0.00    +0.000 A 
ATOM      2  C   UNL     1      50.880   2.784  17.436  0.00  0.00    +0.000 A 
ATOM      3  C   UNL     1      49.525   2.570  17.164  0.00  0.00    +0.000 A 
ATOM      4  C   UNL     1      48.620   3.639  17.183  0.00  0.00    +0.000 A 
ATOM      5  C   UNL     1      49.081   4.907  17.559  0.00  0.00    +0.000 A 
ATOM      6  C   UNL     1      50.435   5.121  17.826  0.00  0.00    +0.000 A 
ENDROOT
BRANCH   1   7
ATOM      7  C   UNL     1      52.822   4.316  17.990  0.00  0.00    +0.000 C 
BRANCH   7  12
ATOM      8  C   UNL     1      53.690   7.476  15.979  0.00  0.00    +0.000 A 
ATOM      9  C   UNL     1      53.967   8.362  17.014  0.00  0.00    +0.000 A 
ATOM     10  C   UNL     1      53.987   7.920  18.340  0.00  0.00    +0.000 A 
ATOM     11  C   UNL     1      53.677   6.597  18.645  0.00  0.00    +0.000 A 
ATOM     12  C   UNL     1      53.324   5.699  17.632  0.00  0.00    +0.000 A 
ATOM     13  C   UNL     1      53.378   6.140  16.295  0.00  0.00    +0.000 A 
BRANCH   8  14
ATOM     14  O   UNL     1      53.680   7.781  14.645  0.00  0.00    +0.000 OA
BRANCH  14  16
ATOM     15  C   UNL     1      55.138   9.061  13.241  0.00  0.00    +0.000 C 
ATOM     16  C   UNL     1      53.977   9.120  14.231  0.00  0.00    +0.000 C 
ATOM     17  C   UNL     1      52.751   9.741  13.565  0.00  0.00    +0.000 C 
ENDBRANCH  14  16
ENDBRANCH   8  14
ENDBRANCH   7  12
ENDBRANCH   1   7
BRANCH   4  18
ATOM     18  C   UNL     1      47.177   3.439  16.806  0.00  0.00    +0.000 C 
BRANCH  18  19
ATOM     19  N   UNL     1      46.727   4.427  15.863  0.00  0.00    +0.000 N 
ATOM     20  C   UNL     1      46.842   4.206  14.512  0.00  0.00    +0.000 C 
ATOM     21  O   UNL     1      47.285   3.151  14.062  0.00  0.00    +0.000 OA
ATOM     22  H   UNL     1      46.590   5.371  16.207  0.00  0.00    +0.000 HD
BRANCH  20  23
ATOM     23  C   UNL     1      46.360   5.269  13.621  0.00  0.00    +0.000 A 
ATOM     24  C   UNL     1      47.170   6.367  13.371  0.00  0.00    +0.000 A 
ATOM     25  S   UNL     1      46.492   7.480  12.268  0.00  0.00    +0.000 S 
ATOM     26  C   UNL     1      45.070   6.557  12.129  0.00  0.00    +0.000 A 
ATOM     27  N   UNL     1      44.045   6.968  11.336  0.00  0.00    +0.000 NA
ATOM     28  C   UNL     1      43.015   6.190  11.349  0.00  0.00    +0.000 A 
ATOM     29  N   UNL     1      42.916   5.037  12.084  0.00  0.00    +0.000 N 
ATOM     30  C   UNL     1      43.931   4.572  12.884  0.00  0.00    +0.000 A 
ATOM     31  O   UNL     1      43.825   3.517  13.503  0.00  0.00    +0.000 OA
ATOM     32  C   UNL     1      45.116   5.411  12.903  0.00  0.00    +0.000 A 
ATOM     33  H   UNL     1      42.080   4.472  12.051  0.00  0.00    +0.000 HD
ENDBRANCH  20  23
ENDBRANCH  18  19
ENDBRANCH   4  18
TORSDOF 7
ENDMDL
