MODEL 1
REMARK VINA RESULT:    -7.745      0.000      0.000
REMARK INTER + INTRA:         -11.865
REMARK INTER:                 -10.914
REMARK INTRA:                  -0.950
REMARK UNBOUND:                -0.950
REMARK  Name = 
REMARK  10 active torsions:
REMARK  status: ('A' for Active; 'I' for Inactive)
REMARK    1  A    between atoms: C_1  and  C_2
REMARK    2  A    between atoms: C_4  and  C_5
REMARK    3  A    between atoms: C_5  and  C_6
REMARK    4  A    between atoms: C_5  and  C_7
REMARK    5  A    between atoms: C_7  and  O_8
REMARK    6  A    between atoms: O_8  and  C_9
REMARK    7  A    between atoms: C_12  and  C_13
REMARK    8  A    between atoms: C_19  and  C_20
REMARK    9  A    between atoms: C_21  and  C_22
REMARK   10  A    between atoms: C_22  and  C_23
REMARK                            x       y       z     vdW  Elec       q    Type
REMARK                         _______ _______ _______ _____ _____    ______ ____
ROOT
ATOM      1  C   UNL     1      44.083   4.822  11.957  0.00  0.00    +0.000 C 
ATOM      2  C   UNL     1      42.921   5.082  12.925  0.00  0.00    +0.000 C 
ENDROOT
BRANCH   1   6
ATOM      3  C   UNL     1      48.052   7.857  11.752  0.00  0.00    +0.000 C 
ATOM      4  C   UNL     1      47.364   6.740  12.494  0.00  0.00    +0.000 A 
ATOM      5  C   UNL     1      46.173   6.241  11.927  0.00  0.00    +0.000 A 
ATOM      6  C   UNL     1      45.411   5.257  12.557  0.00  0.00    +0.000 A 
ATOM      7  C   UNL     1      45.890   4.725  13.757  0.00  0.00    +0.000 A 
ATOM      8  C   UNL     1      47.083   5.186  14.348  0.00  0.00    +0.000 A 
ATOM      9  C   UNL     1      47.471   4.588  15.677  0.00  0.00    +0.000 C 
ATOM     10  C   UNL     1      47.834   6.219  13.727  0.00  0.00    +0.000 A 
BRANCH  10  11
ATOM     11  C   UNL     1      49.048   6.810  14.434  0.00  0.00    +0.000 C 
BRANCH  11  12
ATOM     12  C   UNL     1      48.713   8.016  15.304  0.00  0.00    +0.000 C 
ATOM     13  C   UNL     1      49.821   9.084  15.306  0.00  0.00    +0.000 C 
ATOM     14  O   UNL     1      50.044   8.933  16.721  0.00  0.00    +0.000 OA
ATOM     15  C   UNL     1      49.008   7.928  16.808  0.00  0.00    +0.000 C 
ENDBRANCH  11  12
ENDBRANCH  10  11
ENDBRANCH   1   6
BRANCH   1  16
ATOM     16  C   UNL     1      44.121   3.356  11.496  0.00  0.00    +0.000 C 
BRANCH  16  17
ATOM     17  O   UNL     1      43.589   3.261  10.166  0.00  0.00    +0.000 OA
BRANCH  17  18
ATOM     18  C   UNL     1      44.556   2.997   9.222  0.00  0.00    +0.000 A 
ATOM     19  C   UNL     1      44.995   4.048   8.424  0.00  0.00    +0.000 A 
ATOM     20  N   UNL     1      45.974   3.912   7.491  0.00  0.00    +0.000 NA
ATOM     21  C   UNL     1      46.494   2.653   7.399  0.00  0.00    +0.000 A 
ATOM     22  C   UNL     1      46.046   1.601   8.185  0.00  0.00    +0.000 A 
ATOM     23  N   UNL     1      45.067   1.749   9.111  0.00  0.00    +0.000 NA
BRANCH  21  24
ATOM     24  C   UNL     1      47.598   2.421   6.430  0.00  0.00    +0.000 C 
ATOM     25  N   UNL     1      47.520   3.123   5.260  0.00  0.00    +0.000 N 
ATOM     26  O   UNL     1      48.534   1.670   6.672  0.00  0.00    +0.000 OA
ATOM     27  H   UNL     1      46.744   3.763   5.100  0.00  0.00    +0.000 HD
ATOM     28  H   UNL     1      48.258   3.040   4.576  0.00  0.00    +0.000 HD
ENDBRANCH  21  24
ENDBRANCH  17  18
ENDBRANCH  16  17
ENDBRANCH   1  16
TORSDOF 7
ENDMDL
MODEL 2
REMARK VINA RESULT:    -7.533      1.949      2.584
REMARK INTER + INTRA:         -11.566
REMARK INTER:                 -10.613
REMARK INTRA:                  -0.953
REMARK UNBOUND:                -0.950
REMARK  Name = 
REMARK  10 active torsions:
REMARK  status: ('A' for Active; 'I' for Inactive)
REMARK    1  A    between atoms: C_1  and  C_2
REMARK    2  A    between atoms: C_4  and  C_5
REMARK    3  A    between atoms: C_5  and  C_6
REMARK    4  A    between atoms: C_5  and  C_7
REMARK    5  A    between atoms: C_7  and  O_8
REMARK    6  A    between atoms: O_8  and  C_9
REMARK    7  A    between atoms: C_12  and  C_13
REMARK    8  A    between atoms: C_19  and  C_20
REMARK    9  A    between atoms: C_21  and  C_22
REMARK   10  A    between atoms: C_22  and  C_23
REMARK                            x       y       z     vdW  Elec       q    Type
REMARK                         _______ _______ _______ _____ _____    ______ ____
ROOT
ATOM      1  C   UNL     1      43.760   5.087  11.744  0.00  0.00    +0.000 C 
ATOM      2  C   UNL     1      42.856   5.051  12.983  0.00  0.00    +0.000 C 
ENDROOT
BRANCH   1   6
ATOM      3  C   UNL     1      44.953   9.943  11.664  0.00  0.00    +0.000 C 
ATOM      4  C   UNL     1      45.449   8.533  11.855  0.00  0.00    +0.000 A 
ATOM      5  C   UNL     1      44.510   7.499  11.657  0.00  0.00    +0.000 A 
ATOM      6  C   UNL     1      44.832   6.158  11.873  0.00  0.00    +0.000 A 
ATOM      7  C   UNL     1      46.144   5.851  12.243  0.00  0.00    +0.000 A 
ATOM      8  C   UNL     1      47.115   6.854  12.435  0.00  0.00    +0.000 A 
ATOM      9  C   UNL     1      48.481   6.413  12.898  0.00  0.00    +0.000 C 
ATOM     10  C   UNL     1      46.772   8.221  12.258  0.00  0.00    +0.000 A 
BRANCH  10  11
ATOM     11  C   UNL     1      47.782   9.310  12.598  0.00  0.00    +0.000 C 
BRANCH  11  12
ATOM     12  C   UNL     1      48.678   9.693  11.426  0.00  0.00    +0.000 C 
ATOM     13  C   UNL     1      50.176   9.672  11.780  0.00  0.00    +0.000 C 
ATOM     14  O   UNL     1      50.316  11.082  11.516  0.00  0.00    +0.000 OA
ATOM     15  C   UNL     1      48.919  11.185  11.157  0.00  0.00    +0.000 C 
ENDBRANCH  11  12
ENDBRANCH  10  11
ENDBRANCH   1   6
BRANCH   1  16
ATOM     16  C   UNL     1      44.368   3.708  11.443  0.00  0.00    +0.000 C 
BRANCH  16  17
ATOM     17  O   UNL     1      43.766   3.171  10.256  0.00  0.00    +0.000 OA
BRANCH  17  18
ATOM     18  C   UNL     1      44.683   2.929   9.257  0.00  0.00    +0.000 A 
ATOM     19  C   UNL     1      45.070   3.995   8.451  0.00  0.00    +0.000 A 
ATOM     20  N   UNL     1      45.997   3.880   7.465  0.00  0.00    +0.000 NA
ATOM     21  C   UNL     1      46.521   2.626   7.326  0.00  0.00    +0.000 A 
ATOM     22  C   UNL     1      46.125   1.560   8.119  0.00  0.00    +0.000 A 
ATOM     23  N   UNL     1      45.196   1.687   9.100  0.00  0.00    +0.000 NA
BRANCH  21  24
ATOM     24  C   UNL     1      47.571   2.418   6.295  0.00  0.00    +0.000 C 
ATOM     25  N   UNL     1      47.444   3.163   5.156  0.00  0.00    +0.000 N 
ATOM     26  O   UNL     1      48.509   1.648   6.462  0.00  0.00    +0.000 OA
ATOM     27  H   UNL     1      46.670   3.818   5.058  0.00  0.00    +0.000 HD
ATOM     28  H   UNL     1      48.147   3.097   4.434  0.00  0.00    +0.000 HD
ENDBRANCH  21  24
ENDBRANCH  17  18
ENDBRANCH  16  17
ENDBRANCH   1  16
TORSDOF 7
ENDMDL
MODEL 3
REMARK VINA RESULT:    -7.413      0.545      1.785
REMARK INTER + INTRA:         -11.397
REMARK INTER:                 -10.776
REMARK INTRA:                  -0.621
REMARK UNBOUND:                -0.950
REMARK  Name = 
REMARK  10 active torsions:
REMARK  status: ('A' for Active; 'I' for Inactive)
REMARK    1  A    between atoms: C_1  and  C_2
REMARK    2  A    between atoms: C_4  and  C_5
REMARK    3  A    between atoms: C_5  and  C_6
REMARK    4  A    between atoms: C_5  and  C_7
REMARK    5  A    between atoms: C_7  and  O_8
REMARK    6  A    between atoms: O_8  and  C_9
REMARK    7  A    between atoms: C_12  and  C_13
REMARK    8  A    between atoms: C_19  and  C_20
REMARK    9  A    between atoms: C_21  and  C_22
REMARK   10  A    between atoms: C_22  and  C_23
REMARK                            x       y       z     vdW  Elec       q    Type
REMARK                         _______ _______ _______ _____ _____    ______ ____
ROOT
ATOM      1  C   UNL     1      44.426   5.126  11.158  0.00  0.00    +0.000 C 
ATOM      2  C   UNL     1      43.135   5.923  11.386  0.00  0.00    +0.000 C 
ENDROOT
BRANCH   1   6
ATOM      3  C   UNL     1      47.235   4.566  15.257  0.00  0.00    +0.000 C 
ATOM      4  C   UNL     1      46.964   5.392  14.026  0.00  0.00    +0.000 A 
ATOM      5  C   UNL     1      45.866   5.002  13.230  0.00  0.00    +0.000 A 
ATOM      6  C   UNL     1      45.558   5.645  12.030  0.00  0.00    +0.000 A 
ATOM      7  C   UNL     1      46.341   6.739  11.654  0.00  0.00    +0.000 A 
ATOM      8  C   UNL     1      47.437   7.169  12.429  0.00  0.00    +0.000 A 
ATOM      9  C   UNL     1      48.252   8.319  11.893  0.00  0.00    +0.000 C 
ATOM     10  C   UNL     1      47.774   6.485  13.627  0.00  0.00    +0.000 A 
BRANCH  10  11
ATOM     11  C   UNL     1      49.038   6.864  14.390  0.00  0.00    +0.000 C 
BRANCH  11  12
ATOM     12  C   UNL     1      48.791   7.871  15.507  0.00  0.00    +0.000 C 
ATOM     13  C   UNL     1      49.987   8.809  15.749  0.00  0.00    +0.000 C 
ATOM     14  O   UNL     1      50.165   8.327  17.095  0.00  0.00    +0.000 OA
ATOM     15  C   UNL     1      49.045   7.425  16.954  0.00  0.00    +0.000 C 
ENDBRANCH  11  12
ENDBRANCH  10  11
ENDBRANCH   1   6
BRANCH   1  16
ATOM     16  C   UNL     1      44.204   3.617  11.354  0.00  0.00    +0.000 C 
BRANCH  16  17
ATOM     17  O   UNL     1      43.645   3.059  10.155  0.00  0.00    +0.000 OA
BRANCH  17  18
ATOM     18  C   UNL     1      44.592   2.828   9.183  0.00  0.00    +0.000 A 
ATOM     19  C   UNL     1      44.888   3.862   8.300  0.00  0.00    +0.000 A 
ATOM     20  N   UNL     1      45.835   3.760   7.330  0.00  0.00    +0.000 NA
ATOM     21  C   UNL     1      46.474   2.554   7.290  0.00  0.00    +0.000 A 
ATOM     22  C   UNL     1      46.169   1.518   8.160  0.00  0.00    +0.000 A 
ATOM     23  N   UNL     1      45.220   1.632   9.124  0.00  0.00    +0.000 NA
BRANCH  21  24
ATOM     24  C   UNL     1      47.552   2.367   6.284  0.00  0.00    +0.000 C 
ATOM     25  N   UNL     1      47.446   3.124   5.151  0.00  0.00    +0.000 N 
ATOM     26  O   UNL     1      48.492   1.604   6.466  0.00  0.00    +0.000 OA
ATOM     27  H   UNL     1      46.669   3.773   5.041  0.00  0.00    +0.000 HD
ATOM     28  H   UNL     1      48.167   3.073   4.446  0.00  0.00    +0.000 HD
ENDBRANCH  21  24
ENDBRANCH  17  18
ENDBRANCH  16  17
ENDBRANCH   1  16
TORSDOF 7
ENDMDL
MODEL 4
REMARK VINA RESULT:    -7.301      1.995      2.991
REMARK INTER + INTRA:         -11.240
REMARK INTER:                 -10.539
REMARK INTRA:                  -0.701
REMARK UNBOUND:                -0.950
REMARK  Name = 
REMARK  10 active torsions:
REMARK  status: ('A' for Active; 'I' for Inactive)
REMARK    1  A    between atoms: C_1  and  C_2
REMARK    2  A    between atoms: C_4  and  C_5
REMARK    3  A    between atoms: C_5  and  C_6
REMARK    4  A    between atoms: C_5  and  C_7
REMARK    5  A    between atoms: C_7  and  O_8
REMARK    6  A    between atoms: O_8  and  C_9
REMARK    7  A    between atoms: C_12  and  C_13
REMARK    8  A    between atoms: C_19  and  C_20
REMARK    9  A    between atoms: C_21  and  C_22
REMARK   10  A    between atoms: C_22  and  C_23
REMARK                            x       y       z     vdW  Elec       q    Type
REMARK                         _______ _______ _______ _____ _____    ______ ____
ROOT
ATOM      1  C   UNL     1      44.491   4.901  12.258  0.00  0.00    +0.000 C 
ATOM      2  C   UNL     1      45.315   3.630  12.503  0.00  0.00    +0.000 C 
ENDROOT
BRANCH   1   6
ATOM      3  C   UNL     1      48.928   6.904  13.404  0.00  0.00    +0.000 C 
ATOM      4  C   UNL     1      47.495   7.167  13.019  0.00  0.00    +0.000 A 
ATOM      5  C   UNL     1      46.655   6.041  12.893  0.00  0.00    +0.000 A 
ATOM      6  C   UNL     1      45.328   6.152  12.474  0.00  0.00    +0.000 A 
ATOM      7  C   UNL     1      44.823   7.431  12.231  0.00  0.00    +0.000 A 
ATOM      8  C   UNL     1      45.626   8.583  12.360  0.00  0.00    +0.000 A 
ATOM      9  C   UNL     1      44.995   9.907  12.008  0.00  0.00    +0.000 C 
ATOM     10  C   UNL     1      46.988   8.463  12.744  0.00  0.00    +0.000 A 
BRANCH  10  11
ATOM     11  C   UNL     1      47.889   9.692  12.750  0.00  0.00    +0.000 C 
BRANCH  11  12
ATOM     12  C   UNL     1      48.641   9.897  11.441  0.00  0.00    +0.000 C 
ATOM     13  C   UNL     1      50.152  10.110  11.640  0.00  0.00    +0.000 C 
ATOM     14  O   UNL     1      50.098  11.434  11.073  0.00  0.00    +0.000 OA
ATOM     15  C   UNL     1      48.676  11.310  10.840  0.00  0.00    +0.000 C 
ENDBRANCH  11  12
ENDBRANCH  10  11
ENDBRANCH   1   6
BRANCH   1  16
ATOM     16  C   UNL     1      43.832   4.892  10.869  0.00  0.00    +0.000 C 
BRANCH  16  17
ATOM     17  O   UNL     1      43.677   3.536  10.425  0.00  0.00    +0.000 OA
BRANCH  17  18
ATOM     18  C   UNL     1      44.560   3.200   9.423  0.00  0.00    +0.000 A 
ATOM     19  C   UNL     1      45.004   4.210   8.575  0.00  0.00    +0.000 A 
ATOM     20  N   UNL     1      45.907   4.001   7.581  0.00  0.00    +0.000 NA
ATOM     21  C   UNL     1      46.345   2.712   7.480  0.00  0.00    +0.000 A 
ATOM     22  C   UNL     1      45.892   1.701   8.315  0.00  0.00    +0.000 A 
ATOM     23  N   UNL     1      44.989   1.922   9.303  0.00  0.00    +0.000 NA
BRANCH  21  24
ATOM     24  C   UNL     1      47.364   2.399   6.443  0.00  0.00    +0.000 C 
ATOM     25  N   UNL     1      47.366   3.214   5.346  0.00  0.00    +0.000 N 
ATOM     26  O   UNL     1      48.170   1.487   6.572  0.00  0.00    +0.000 OA
ATOM     27  H   UNL     1      46.703   3.984   5.281  0.00  0.00    +0.000 HD
ATOM     28  H   UNL     1      48.059   3.080   4.624  0.00  0.00    +0.000 HD
ENDBRANCH  21  24
ENDBRANCH  17  18
ENDBRANCH  16  17
ENDBRANCH   1  16
TORSDOF 7
ENDMDL
MODEL 5
REMARK VINA RESULT:    -6.978      1.295      2.303
REMARK INTER + INTRA:         -10.785
REMARK INTER:                 -10.090
REMARK INTRA:                  -0.695
REMARK UNBOUND:                -0.950
REMARK  Name = 
REMARK  10 active torsions:
REMARK  status: ('A' for Active; 'I' for Inactive)
REMARK    1  A    between atoms: C_1  and  C_2
REMARK    2  A    between atoms: C_4  and  C_5
REMARK    3  A    between atoms: C_5  and  C_6
REMARK    4  A    between atoms: C_5  and  C_7
REMARK    5  A    between atoms: C_7  and  O_8
REMARK    6  A    between atoms: O_8  and  C_9
REMARK    7  A    between atoms: C_12  and  C_13
REMARK    8  A    between atoms: C_19  and  C_20
REMARK    9  A    between atoms: C_21  and  C_22
REMARK   10  A    between atoms: C_22  and  C_23
REMARK                            x       y       z     vdW  Elec       q    Type
REMARK                         _______ _______ _______ _____ _____    ______ ____
ROOT
ATOM      1  C   UNL     1      45.455   5.346  11.747  0.00  0.00    +0.000 C 
ATOM      2  C   UNL     1      44.383   6.437  11.626  0.00  0.00    +0.000 C 
ENDROOT
BRANCH   1   6
ATOM      3  C   UNL     1      47.328   3.682  16.076  0.00  0.00    +0.000 C 
ATOM      4  C   UNL     1      47.309   4.799  15.064  0.00  0.00    +0.000 A 
ATOM      5  C   UNL     1      46.418   4.658  13.980  0.00  0.00    +0.000 A 
ATOM      6  C   UNL     1      46.360   5.592  12.945  0.00  0.00    +0.000 A 
ATOM      7  C   UNL     1      47.180   6.720  13.033  0.00  0.00    +0.000 A 
ATOM      8  C   UNL     1      48.073   6.905  14.108  0.00  0.00    +0.000 A 
ATOM      9  C   UNL     1      48.957   8.126  14.068  0.00  0.00    +0.000 C 
ATOM     10  C   UNL     1      48.161   5.931  15.138  0.00  0.00    +0.000 A 
BRANCH  10  11
ATOM     11  C   UNL     1      49.221   6.064  16.224  0.00  0.00    +0.000 C 
BRANCH  11  12
ATOM     12  C   UNL     1      48.714   6.760  17.482  0.00  0.00    +0.000 C 
ATOM     13  C   UNL     1      49.834   7.447  18.284  0.00  0.00    +0.000 C 
ATOM     14  O   UNL     1      49.605   6.607  19.432  0.00  0.00    +0.000 OA
ATOM     15  C   UNL     1      48.531   5.918  18.752  0.00  0.00    +0.000 C 
ENDBRANCH  11  12
ENDBRANCH  10  11
ENDBRANCH   1   6
BRANCH   1  16
ATOM     16  C   UNL     1      44.834   3.941  11.785  0.00  0.00    +0.000 C 
BRANCH  16  17
ATOM     17  O   UNL     1      44.070   3.727  10.588  0.00  0.00    +0.000 OA
BRANCH  17  18
ATOM     18  C   UNL     1      44.849   3.343   9.520  0.00  0.00    +0.000 A 
ATOM     19  C   UNL     1      45.227   4.318   8.602  0.00  0.00    +0.000 A 
ATOM     20  N   UNL     1      46.029   4.061   7.535  0.00  0.00    +0.000 NA
ATOM     21  C   UNL     1      46.435   2.761   7.436  0.00  0.00    +0.000 A 
ATOM     22  C   UNL     1      46.047   1.785   8.342  0.00  0.00    +0.000 A 
ATOM     23  N   UNL     1      45.244   2.054   9.402  0.00  0.00    +0.000 NA
BRANCH  21  24
ATOM     24  C   UNL     1      47.346   2.397   6.319  0.00  0.00    +0.000 C 
ATOM     25  N   UNL     1      47.237   3.158   5.189  0.00  0.00    +0.000 N 
ATOM     26  O   UNL     1      48.165   1.491   6.411  0.00  0.00    +0.000 OA
ATOM     27  H   UNL     1      46.567   3.925   5.152  0.00  0.00    +0.000 HD
ATOM     28  H   UNL     1      47.854   2.988   4.408  0.00  0.00    +0.000 HD
ENDBRANCH  21  24
ENDBRANCH  17  18
ENDBRANCH  16  17
ENDBRANCH   1  16
TORSDOF 7
ENDMDL
MODEL 6
REMARK VINA RESULT:    -6.934      1.663      2.207
REMARK INTER + INTRA:         -10.721
REMARK INTER:                 -10.008
REMARK INTRA:                  -0.713
REMARK UNBOUND:                -0.950
REMARK  Name = 
REMARK  10 active torsions:
REMARK  status: ('A' for Active; 'I' for Inactive)
REMARK    1  A    between atoms: C_1  and  C_2
REMARK    2  A    between atoms: C_4  and  C_5
REMARK    3  A    between atoms: C_5  and  C_6
REMARK    4  A    between atoms: C_5  and  C_7
REMARK    5  A    between atoms: C_7  and  O_8
REMARK    6  A    between atoms: O_8  and  C_9
REMARK    7  A    between atoms: C_12  and  C_13
REMARK    8  A    between atoms: C_19  and  C_20
REMARK    9  A    between atoms: C_21  and  C_22
REMARK   10  A    between atoms: C_22  and  C_23
REMARK                            x       y       z     vdW  Elec       q    Type
REMARK                         _______ _______ _______ _____ _____    ______ ____
ROOT
ATOM      1  C   UNL     1      45.871   5.512  11.941  0.00  0.00    +0.000 C 
ATOM      2  C   UNL     1      45.043   6.791  11.763  0.00  0.00    +0.000 C 
ENDROOT
BRANCH   1   6
ATOM      3  C   UNL     1      49.268   7.991  14.649  0.00  0.00    +0.000 C 
ATOM      4  C   UNL     1      48.381   6.775  14.557  0.00  0.00    +0.000 A 
ATOM      5  C   UNL     1      47.634   6.624  13.370  0.00  0.00    +0.000 A 
ATOM      6  C   UNL     1      46.726   5.578  13.197  0.00  0.00    +0.000 A 
ATOM      7  C   UNL     1      46.612   4.634  14.221  0.00  0.00    +0.000 A 
ATOM      8  C   UNL     1      47.352   4.742  15.415  0.00  0.00    +0.000 A 
ATOM      9  C   UNL     1      47.099   3.704  16.480  0.00  0.00    +0.000 C 
ATOM     10  C   UNL     1      48.242   5.832  15.607  0.00  0.00    +0.000 A 
BRANCH  10  11
ATOM     11  C   UNL     1      48.936   6.022  16.950  0.00  0.00    +0.000 C 
BRANCH  11  12
ATOM     12  C   UNL     1      50.216   5.207  17.089  0.00  0.00    +0.000 C 
ATOM     13  C   UNL     1      50.499   4.771  18.538  0.00  0.00    +0.000 C 
ATOM     14  O   UNL     1      51.730   5.518  18.583  0.00  0.00    +0.000 OA
ATOM     15  C   UNL     1      51.546   5.964  17.221  0.00  0.00    +0.000 C 
ENDBRANCH  11  12
ENDBRANCH  10  11
ENDBRANCH   1   6
BRANCH   1  16
ATOM     16  C   UNL     1      44.987   4.255  11.921  0.00  0.00    +0.000 C 
BRANCH  16  17
ATOM     17  O   UNL     1      44.231   4.224  10.702  0.00  0.00    +0.000 OA
BRANCH  17  18
ATOM     18  C   UNL     1      44.944   3.698   9.647  0.00  0.00    +0.000 A 
ATOM     19  C   UNL     1      45.468   4.581   8.707  0.00  0.00    +0.000 A 
ATOM     20  N   UNL     1      46.222   4.177   7.651  0.00  0.00    +0.000 NA
ATOM     21  C   UNL     1      46.423   2.828   7.585  0.00  0.00    +0.000 A 
ATOM     22  C   UNL     1      45.888   1.947   8.512  0.00  0.00    +0.000 A 
ATOM     23  N   UNL     1      45.136   2.362   9.562  0.00  0.00    +0.000 NA
BRANCH  21  24
ATOM     24  C   UNL     1      47.269   2.302   6.481  0.00  0.00    +0.000 C 
ATOM     25  N   UNL     1      47.309   3.061   5.346  0.00  0.00    +0.000 N 
ATOM     26  O   UNL     1      47.914   1.266   6.589  0.00  0.00    +0.000 OA
ATOM     27  H   UNL     1      46.785   3.934   5.298  0.00  0.00    +0.000 HD
ATOM     28  H   UNL     1      47.896   2.779   4.575  0.00  0.00    +0.000 HD
ENDBRANCH  21  24
ENDBRANCH  17  18
ENDBRANCH  16  17
ENDBRANCH   1  16
TORSDOF 7
ENDMDL
MODEL 7
REMARK VINA RESULT:    -6.556      1.233      2.347
REMARK INTER + INTRA:         -10.190
REMARK INTER:                  -9.351
REMARK INTRA:                  -0.839
REMARK UNBOUND:                -0.950
REMARK  Name = 
REMARK  10 active torsions:
REMARK  status: ('A' for Active; 'I' for Inactive)
REMARK    1  A    between atoms: C_1  and  C_2
REMARK    2  A    between atoms: C_4  and  C_5
REMARK    3  A    between atoms: C_5  and  C_6
REMARK    4  A    between atoms: C_5  and  C_7
REMARK    5  A    between atoms: C_7  and  O_8
REMARK    6  A    between atoms: O_8  and  C_9
REMARK    7  A    between atoms: C_12  and  C_13
REMARK    8  A    between atoms: C_19  and  C_20
REMARK    9  A    between atoms: C_21  and  C_22
REMARK   10  A    between atoms: C_22  and  C_23
REMARK                            x       y       z     vdW  Elec       q    Type
REMARK                         _______ _______ _______ _____ _____    ______ ____
ROOT
ATOM      1  C   UNL     1      45.394   5.583  12.387  0.00  0.00    +0.000 C 
ATOM      2  C   UNL     1      45.410   4.107  12.805  0.00  0.00    +0.000 C 
ENDROOT
BRANCH   1   6
ATOM      3  C   UNL     1      48.895   6.207  15.904  0.00  0.00    +0.000 C 
ATOM      4  C   UNL     1      48.396   6.621  14.543  0.00  0.00    +0.000 A 
ATOM      5  C   UNL     1      47.181   6.049  14.112  0.00  0.00    +0.000 A 
ATOM      6  C   UNL     1      46.655   6.301  12.844  0.00  0.00    +0.000 A 
ATOM      7  C   UNL     1      47.341   7.192  12.016  0.00  0.00    +0.000 A 
ATOM      8  C   UNL     1      48.550   7.796  12.416  0.00  0.00    +0.000 A 
ATOM      9  C   UNL     1      49.239   8.690  11.415  0.00  0.00    +0.000 C 
ATOM     10  C   UNL     1      49.106   7.503  13.689  0.00  0.00    +0.000 A 
BRANCH  10  11
ATOM     11  C   UNL     1      50.478   8.048  14.065  0.00  0.00    +0.000 C 
BRANCH  11  12
ATOM     12  C   UNL     1      50.425   9.426  14.715  0.00  0.00    +0.000 C 
ATOM     13  C   UNL     1      50.752   9.396  16.219  0.00  0.00    +0.000 C 
ATOM     14  O   UNL     1      49.444   9.887  16.571  0.00  0.00    +0.000 OA
ATOM     15  C   UNL     1      49.061   9.955  15.179  0.00  0.00    +0.000 C 
ENDBRANCH  11  12
ENDBRANCH  10  11
ENDBRANCH   1   6
BRANCH   1  16
ATOM     16  C   UNL     1      45.166   5.744  10.876  0.00  0.00    +0.000 C 
BRANCH  16  17
ATOM     17  O   UNL     1      44.483   4.587  10.372  0.00  0.00    +0.000 OA
BRANCH  17  18
ATOM     18  C   UNL     1      45.183   3.949   9.371  0.00  0.00    +0.000 A 
ATOM     19  C   UNL     1      45.855   4.735   8.440  0.00  0.00    +0.000 A 
ATOM     20  N   UNL     1      46.611   4.214   7.438  0.00  0.00    +0.000 NA
ATOM     21  C   UNL     1      46.656   2.850   7.417  0.00  0.00    +0.000 A 
ATOM     22  C   UNL     1      45.974   2.065   8.335  0.00  0.00    +0.000 A 
ATOM     23  N   UNL     1      45.221   2.598   9.331  0.00  0.00    +0.000 NA
BRANCH  21  24
ATOM     24  C   UNL     1      47.491   2.194   6.376  0.00  0.00    +0.000 C 
ATOM     25  N   UNL     1      47.830   2.974   5.306  0.00  0.00    +0.000 N 
ATOM     26  O   UNL     1      47.875   1.036   6.479  0.00  0.00    +0.000 OA
ATOM     27  H   UNL     1      47.520   3.943   5.263  0.00  0.00    +0.000 HD
ATOM     28  H   UNL     1      48.428   2.601   4.584  0.00  0.00    +0.000 HD
ENDBRANCH  21  24
ENDBRANCH  17  18
ENDBRANCH  16  17
ENDBRANCH   1  16
TORSDOF 7
ENDMDL
MODEL 8
REMARK VINA RESULT:    -6.020      4.039      8.644
REMARK INTER + INTRA:          -9.434
REMARK INTER:                  -8.525
REMARK INTRA:                  -0.909
REMARK UNBOUND:                -0.950
REMARK  Name = 
REMARK  10 active torsions:
REMARK  status: ('A' for Active; 'I' for Inactive)
REMARK    1  A    between atoms: C_1  and  C_2
REMARK    2  A    between atoms: C_4  and  C_5
REMARK    3  A    between atoms: C_5  and  C_6
REMARK    4  A    between atoms: C_5  and  C_7
REMARK    5  A    between atoms: C_7  and  O_8
REMARK    6  A    between atoms: O_8  and  C_9
REMARK    7  A    between atoms: C_12  and  C_13
REMARK    8  A    between atoms: C_19  and  C_20
REMARK    9  A    between atoms: C_21  and  C_22
REMARK   10  A    between atoms: C_22  and  C_23
REMARK                            x       y       z     vdW  Elec       q    Type
REMARK                         _______ _______ _______ _____ _____    ______ ____
ROOT
ATOM      1  C   UNL     1      49.198   7.945  12.836  0.00  0.00    +0.000 C 
ATOM      2  C   UNL     1      50.138   7.760  11.638  0.00  0.00    +0.000 C 
ENDROOT
BRANCH   1   6
ATOM      3  C   UNL     1      46.295   3.900  13.315  0.00  0.00    +0.000 C 
ATOM      4  C   UNL     1      46.396   5.321  12.821  0.00  0.00    +0.000 A 
ATOM      5  C   UNL     1      47.653   5.948  12.946  0.00  0.00    +0.000 A 
ATOM      6  C   UNL     1      47.851   7.283  12.589  0.00  0.00    +0.000 A 
ATOM      7  C   UNL     1      46.773   7.981  12.042  0.00  0.00    +0.000 A 
ATOM      8  C   UNL     1      45.505   7.385  11.885  0.00  0.00    +0.000 A 
ATOM      9  C   UNL     1      44.396   8.253  11.345  0.00  0.00    +0.000 C 
ATOM     10  C   UNL     1      45.295   6.041  12.291  0.00  0.00    +0.000 A 
BRANCH  10  11
ATOM     11  C   UNL     1      43.894   5.442  12.249  0.00  0.00    +0.000 C 
BRANCH  11  12
ATOM     12  C   UNL     1      43.575   4.741  10.934  0.00  0.00    +0.000 C 
ATOM     13  C   UNL     1      43.564   3.206  11.057  0.00  0.00    +0.000 C 
ATOM     14  O   UNL     1      44.654   3.067  10.125  0.00  0.00    +0.000 OA
ATOM     15  C   UNL     1      44.724   4.500   9.945  0.00  0.00    +0.000 C 
ENDBRANCH  11  12
ENDBRANCH  10  11
ENDBRANCH   1   6
BRANCH   1  16
ATOM     16  C   UNL     1      49.841   7.454  14.143  0.00  0.00    +0.000 C 
BRANCH  16  17
ATOM     17  O   UNL     1      49.064   7.917  15.258  0.00  0.00    +0.000 OA
BRANCH  17  18
ATOM     18  C   UNL     1      49.014   7.005  16.289  0.00  0.00    +0.000 A 
ATOM     19  C   UNL     1      49.198   7.473  17.586  0.00  0.00    +0.000 A 
ATOM     20  N   UNL     1      49.127   6.671  18.680  0.00  0.00    +0.000 NA
ATOM     21  C   UNL     1      48.861   5.361  18.403  0.00  0.00    +0.000 A 
ATOM     22  C   UNL     1      48.692   4.891  17.109  0.00  0.00    +0.000 A 
ATOM     23  N   UNL     1      48.767   5.701  16.024  0.00  0.00    +0.000 NA
BRANCH  21  24
ATOM     24  C   UNL     1      48.728   4.418  19.545  0.00  0.00    +0.000 C 
ATOM     25  N   UNL     1      48.475   3.116  19.216  0.00  0.00    +0.000 N 
ATOM     26  O   UNL     1      48.863   4.776  20.709  0.00  0.00    +0.000 OA
ATOM     27  H   UNL     1      48.397   2.843  18.238  0.00  0.00    +0.000 HD
ATOM     28  H   UNL     1      48.413   2.419  19.943  0.00  0.00    +0.000 HD
ENDBRANCH  21  24
ENDBRANCH  17  18
ENDBRANCH  16  17
ENDBRANCH   1  16
TORSDOF 7
ENDMDL
MODEL 9
REMARK VINA RESULT:    -5.791      4.236      6.566
REMARK INTER + INTRA:          -9.111
REMARK INTER:                  -8.283
REMARK INTRA:                  -0.829
REMARK UNBOUND:                -0.950
REMARK  Name = 
REMARK  10 active torsions:
REMARK  status: ('A' for Active; 'I' for Inactive)
REMARK    1  A    between atoms: C_1  and  C_2
REMARK    2  A    between atoms: C_4  and  C_5
REMARK    3  A    between atoms: C_5  and  C_6
REMARK    4  A    between atoms: C_5  and  C_7
REMARK    5  A    between atoms: C_7  and  O_8
REMARK    6  A    between atoms: O_8  and  C_9
REMARK    7  A    between atoms: C_12  and  C_13
REMARK    8  A    between atoms: C_19  and  C_20
REMARK    9  A    between atoms: C_21  and  C_22
REMARK   10  A    between atoms: C_22  and  C_23
REMARK                            x       y       z     vdW  Elec       q    Type
REMARK                         _______ _______ _______ _____ _____    ______ ____
ROOT
ATOM      1  C   UNL     1      47.960   3.313  16.866  0.00  0.00    +0.000 C 
ATOM      2  C   UNL     1      48.496   2.036  16.206  0.00  0.00    +0.000 C 
ENDROOT
BRANCH   1   6
ATOM      3  C   UNL     1      52.732   3.465  18.353  0.00  0.00    +0.000 C 
ATOM      4  C   UNL     1      51.378   4.125  18.413  0.00  0.00    +0.000 A 
ATOM      5  C   UNL     1      50.322   3.466  17.750  0.00  0.00    +0.000 A 
ATOM      6  C   UNL     1      49.041   4.013  17.676  0.00  0.00    +0.000 A 
ATOM      7  C   UNL     1      48.807   5.224  18.331  0.00  0.00    +0.000 A 
ATOM      8  C   UNL     1      49.832   5.907  19.017  0.00  0.00    +0.000 A 
ATOM      9  C   UNL     1      49.483   7.239  19.632  0.00  0.00    +0.000 C 
ATOM     10  C   UNL     1      51.146   5.369  19.053  0.00  0.00    +0.000 A 
BRANCH  10  11
ATOM     11  C   UNL     1      52.281   6.172  19.676  0.00  0.00    +0.000 C 
BRANCH  11  12
ATOM     12  C   UNL     1      52.440   5.936  21.173  0.00  0.00    +0.000 C 
ATOM     13  C   UNL     1      53.700   5.125  21.525  0.00  0.00    +0.000 C 
ATOM     14  O   UNL     1      52.920   4.052  22.089  0.00  0.00    +0.000 OA
ATOM     15  C   UNL     1      51.689   4.754  21.803  0.00  0.00    +0.000 C 
ENDBRANCH  11  12
ENDBRANCH  10  11
ENDBRANCH   1   6
BRANCH   1  16
ATOM     16  C   UNL     1      47.320   4.259  15.837  0.00  0.00    +0.000 C 
BRANCH  16  17
ATOM     17  O   UNL     1      47.428   3.681  14.528  0.00  0.00    +0.000 OA
BRANCH  17  18
ATOM     18  C   UNL     1      46.372   4.014  13.709  0.00  0.00    +0.000 A 
ATOM     19  C   UNL     1      45.948   5.339  13.695  0.00  0.00    +0.000 A 
ATOM     20  N   UNL     1      44.945   5.788  12.895  0.00  0.00    +0.000 NA
ATOM     21  C   UNL     1      44.383   4.828  12.103  0.00  0.00    +0.000 A 
ATOM     22  C   UNL     1      44.796   3.504  12.127  0.00  0.00    +0.000 A 
ATOM     23  N   UNL     1      45.797   3.068  12.932  0.00  0.00    +0.000 NA
BRANCH  21  24
ATOM     24  C   UNL     1      43.303   5.239  11.167  0.00  0.00    +0.000 C 
ATOM     25  N   UNL     1      42.311   6.010  11.705  0.00  0.00    +0.000 N 
ATOM     26  O   UNL     1      43.312   4.930   9.982  0.00  0.00    +0.000 OA
ATOM     27  H   UNL     1      42.347   6.276  12.687  0.00  0.00    +0.000 HD
ATOM     28  H   UNL     1      41.569   6.354  11.113  0.00  0.00    +0.000 HD
ENDBRANCH  21  24
ENDBRANCH  17  18
ENDBRANCH  16  17
ENDBRANCH   1  16
TORSDOF 7
ENDMDL
