MODEL 1
REMARK VINA RESULT:    -7.979      0.000      0.000
REMARK INTER + INTRA:         -10.941
REMARK INTER:                 -10.311
REMARK INTRA:                  -0.629
REMARK UNBOUND:                -0.629
REMARK  Name = 
REMARK  5 active torsions:
REMARK  status: ('A' for Active; 'I' for Inactive)
REMARK    1  A    between atoms: C_2  and  C_4
REMARK    2  A    between atoms: C_7  and  C_8
REMARK    3  A    between atoms: C_8  and  O_9
REMARK    4  A    between atoms: O_9  and  C_10
REMARK    5  A    between atoms: C_14  and  C_15
REMARK                            x       y       z     vdW  Elec       q    Type
REMARK                         _______ _______ _______ _____ _____    ______ ____
ROOT
ATOM      1  O   UNL     1      44.118   5.381  10.984  0.00  0.00    +0.000 OA
ENDROOT
BRANCH   1   2
ATOM      2  C   UNL     1      45.125   5.375  11.905  0.00  0.00    +0.000 A 
ATOM      3  C   UNL     1      45.003   4.469  12.949  0.00  0.00    +0.000 A 
ATOM      4  N   UNL     1      45.908   4.327  13.942  0.00  0.00    +0.000 NA
ATOM      5  C   UNL     1      46.990   5.142  13.894  0.00  0.00    +0.000 A 
ATOM      6  C   UNL     1      47.222   6.095  12.902  0.00  0.00    +0.000 A 
ATOM      7  C   UNL     1      46.257   6.187  11.888  0.00  0.00    +0.000 A 
BRANCH   6   8
ATOM      8  C   UNL     1      48.426   6.955  12.900  0.00  0.00    +0.000 C 
ATOM      9  C   UNL     1      49.166   7.153  14.009  0.00  0.00    +0.000 C 
ATOM     10  C   UNL     1      50.417   7.980  14.027  0.00  0.00    +0.000 C 
ATOM     11  O   UNL     1      50.912   8.243  12.714  0.00  0.00    +0.000 OA
ATOM     12  C   UNL     1      49.882   8.711  11.845  0.00  0.00    +0.000 C 
ATOM     13  C   UNL     1      48.855   7.603  11.605  0.00  0.00    +0.000 C 
ENDBRANCH   6   8
ENDBRANCH   1   2
BRANCH   1  14
ATOM     14  C   UNL     1      43.677   4.112  10.501  0.00  0.00    +0.000 C 
BRANCH  14  18
ATOM     15  C   UNL     1      46.384   2.729   7.609  0.00  0.00    +0.000 A 
ATOM     16  N   UNL     1      46.120   4.057   7.610  0.00  0.00    +0.000 NA
ATOM     17  C   UNL     1      45.234   4.468   8.537  0.00  0.00    +0.000 A 
ATOM     18  C   UNL     1      44.613   3.626   9.440  0.00  0.00    +0.000 A 
ATOM     19  C   UNL     1      44.977   2.296   9.350  0.00  0.00    +0.000 A 
ATOM     20  N   UNL     1      45.852   1.819   8.447  0.00  0.00    +0.000 NA
BRANCH  15  22
ATOM     21  N   UNL     1      47.470   2.989   5.434  0.00  0.00    +0.000 N 
ATOM     22  C   UNL     1      47.388   2.245   6.590  0.00  0.00    +0.000 C 
ATOM     23  O   UNL     1      48.104   1.267   6.747  0.00  0.00    +0.000 OA
ATOM     24  H   UNL     1      48.145   2.726   4.731  0.00  0.00    +0.000 HD
ATOM     25  H   UNL     1      46.892   3.814   5.317  0.00  0.00    +0.000 HD
ENDBRANCH  15  22
ENDBRANCH  14  18
ENDBRANCH   1  14
TORSDOF 5
ENDMDL
MODEL 2
REMARK VINA RESULT:    -7.905      1.802      2.147
REMARK INTER + INTRA:         -10.846
REMARK INTER:                 -10.172
REMARK INTRA:                  -0.673
REMARK UNBOUND:                -0.629
REMARK  Name = 
REMARK  5 active torsions:
REMARK  status: ('A' for Active; 'I' for Inactive)
REMARK    1  A    between atoms: C_2  and  C_4
REMARK    2  A    between atoms: C_7  and  C_8
REMARK    3  A    between atoms: C_8  and  O_9
REMARK    4  A    between atoms: O_9  and  C_10
REMARK    5  A    between atoms: C_14  and  C_15
REMARK                            x       y       z     vdW  Elec       q    Type
REMARK                         _______ _______ _______ _____ _____    ______ ____
ROOT
ATOM      1  O   UNL     1      44.476   3.199  11.787  0.00  0.00    +0.000 OA
ENDROOT
BRANCH   1   2
ATOM      2  C   UNL     1      45.357   4.090  12.326  0.00  0.00    +0.000 A 
ATOM      3  C   UNL     1      46.332   3.566  13.162  0.00  0.00    +0.000 A 
ATOM      4  N   UNL     1      47.285   4.302  13.776  0.00  0.00    +0.000 NA
ATOM      5  C   UNL     1      47.254   5.638  13.549  0.00  0.00    +0.000 A 
ATOM      6  C   UNL     1      46.322   6.284  12.737  0.00  0.00    +0.000 A 
ATOM      7  C   UNL     1      45.367   5.467  12.112  0.00  0.00    +0.000 A 
BRANCH   6   8
ATOM      8  C   UNL     1      46.341   7.747  12.523  0.00  0.00    +0.000 C 
ATOM      9  C   UNL     1      47.409   8.504  12.846  0.00  0.00    +0.000 C 
ATOM     10  C   UNL     1      47.476   9.982  12.598  0.00  0.00    +0.000 C 
ATOM     11  O   UNL     1      46.461  10.428  11.699  0.00  0.00    +0.000 OA
ATOM     12  C   UNL     1      45.176   9.926  12.063  0.00  0.00    +0.000 C 
ATOM     13  C   UNL     1      45.137   8.407  11.892  0.00  0.00    +0.000 C 
ENDBRANCH   6   8
ENDBRANCH   1   2
BRANCH   1  14
ATOM     14  C   UNL     1      43.857   3.568  10.554  0.00  0.00    +0.000 C 
BRANCH  14  18
ATOM     15  C   UNL     1      46.531   2.689   7.443  0.00  0.00    +0.000 A 
ATOM     16  N   UNL     1      46.173   3.986   7.590  0.00  0.00    +0.000 NA
ATOM     17  C   UNL     1      45.301   4.235   8.584  0.00  0.00    +0.000 A 
ATOM     18  C   UNL     1      44.780   3.262   9.417  0.00  0.00    +0.000 A 
ATOM     19  C   UNL     1      45.233   1.979   9.178  0.00  0.00    +0.000 A 
ATOM     20  N   UNL     1      46.101   1.662   8.201  0.00  0.00    +0.000 NA
BRANCH  15  22
ATOM     21  N   UNL     1      47.338   3.076   5.168  0.00  0.00    +0.000 N 
ATOM     22  C   UNL     1      47.522   2.386   6.345  0.00  0.00    +0.000 C 
ATOM     23  O   UNL     1      48.446   1.592   6.457  0.00  0.00    +0.000 OA
ATOM     24  H   UNL     1      47.989   2.932   4.410  0.00  0.00    +0.000 HD
ATOM     25  H   UNL     1      46.586   3.752   5.086  0.00  0.00    +0.000 HD
ENDBRANCH  15  22
ENDBRANCH  14  18
ENDBRANCH   1  14
TORSDOF 5
ENDMDL
MODEL 3
REMARK VINA RESULT:    -7.678      2.566      3.013
REMARK INTER + INTRA:         -10.551
REMARK INTER:                  -9.880
REMARK INTRA:                  -0.671
REMARK UNBOUND:                -0.629
REMARK  Name = 
REMARK  5 active torsions:
REMARK  status: ('A' for Active; 'I' for Inactive)
REMARK    1  A    between atoms: C_2  and  C_4
REMARK    2  A    between atoms: C_7  and  C_8
REMARK    3  A    between atoms: C_8  and  O_9
REMARK    4  A    between atoms: O_9  and  C_10
REMARK    5  A    between atoms: C_14  and  C_15
REMARK                            x       y       z     vdW  Elec       q    Type
REMARK                         _______ _______ _______ _____ _____    ______ ____
ROOT
ATOM      1  O   UNL     1      44.239   4.453  11.617  0.00  0.00    +0.000 OA
ENDROOT
BRANCH   1   2
ATOM      2  C   UNL     1      45.029   5.472  12.063  0.00  0.00    +0.000 A 
ATOM      3  C   UNL     1      46.108   5.115  12.858  0.00  0.00    +0.000 A 
ATOM      4  N   UNL     1      46.993   5.993  13.380  0.00  0.00    +0.000 NA
ATOM      5  C   UNL     1      46.780   7.302  13.099  0.00  0.00    +0.000 A 
ATOM      6  C   UNL     1      45.729   7.786  12.320  0.00  0.00    +0.000 A 
ATOM      7  C   UNL     1      44.852   6.827  11.791  0.00  0.00    +0.000 A 
BRANCH   6   8
ATOM      8  C   UNL     1      45.550   9.228  12.044  0.00  0.00    +0.000 C 
ATOM      9  C   UNL     1      44.356   9.748  11.696  0.00  0.00    +0.000 C 
ATOM     10  C   UNL     1      44.135  11.212  11.456  0.00  0.00    +0.000 C 
ATOM     11  O   UNL     1      45.207  12.012  11.955  0.00  0.00    +0.000 OA
ATOM     12  C   UNL     1      46.477  11.510  11.542  0.00  0.00    +0.000 C 
ATOM     13  C   UNL     1      46.739  10.149  12.190  0.00  0.00    +0.000 C 
ENDBRANCH   6   8
ENDBRANCH   1   2
BRANCH   1  14
ATOM     14  C   UNL     1      43.750   4.552  10.279  0.00  0.00    +0.000 C 
BRANCH  14  18
ATOM     15  C   UNL     1      46.440   2.541   7.764  0.00  0.00    +0.000 A 
ATOM     16  N   UNL     1      46.394   3.890   7.652  0.00  0.00    +0.000 NA
ATOM     17  C   UNL     1      45.509   4.505   8.459  0.00  0.00    +0.000 A 
ATOM     18  C   UNL     1      44.685   3.844   9.350  0.00  0.00    +0.000 A 
ATOM     19  C   UNL     1      44.836   2.471   9.382  0.00  0.00    +0.000 A 
ATOM     20  N   UNL     1      45.698   1.794   8.603  0.00  0.00    +0.000 NA
BRANCH  15  22
ATOM     21  N   UNL     1      48.518   2.579   6.477  0.00  0.00    +0.000 N 
ATOM     22  C   UNL     1      47.437   1.829   6.882  0.00  0.00    +0.000 C 
ATOM     23  O   UNL     1      47.331   0.661   6.534  0.00  0.00    +0.000 OA
ATOM     24  H   UNL     1      49.230   2.143   5.909  0.00  0.00    +0.000 HD
ATOM     25  H   UNL     1      48.617   3.540   6.787  0.00  0.00    +0.000 HD
ENDBRANCH  15  22
ENDBRANCH  14  18
ENDBRANCH   1  14
TORSDOF 5
ENDMDL
MODEL 4
REMARK VINA RESULT:    -7.584      2.673      7.140
REMARK INTER + INTRA:         -10.431
REMARK INTER:                 -10.443
REMARK INTRA:                   0.012
REMARK UNBOUND:                -0.629
REMARK  Name = 
REMARK  5 active torsions:
REMARK  status: ('A' for Active; 'I' for Inactive)
REMARK    1  A    between atoms: C_2  and  C_4
REMARK    2  A    between atoms: C_7  and  C_8
REMARK    3  A    between atoms: C_8  and  O_9
REMARK    4  A    between atoms: O_9  and  C_10
REMARK    5  A    between atoms: C_14  and  C_15
REMARK                            x       y       z     vdW  Elec       q    Type
REMARK                         _______ _______ _______ _____ _____    ______ ____
ROOT
ATOM      1  O   UNL     1      44.648   6.175  11.008  0.00  0.00    +0.000 OA
ENDROOT
BRANCH   1   2
ATOM      2  C   UNL     1      44.591   4.926  10.462  0.00  0.00    +0.000 A 
ATOM      3  C   UNL     1      43.651   4.058  11.001  0.00  0.00    +0.000 A 
ATOM      4  N   UNL     1      43.457   2.789  10.579  0.00  0.00    +0.000 NA
ATOM      5  C   UNL     1      44.254   2.361   9.568  0.00  0.00    +0.000 A 
ATOM      6  C   UNL     1      45.237   3.134   8.951  0.00  0.00    +0.000 A 
ATOM      7  C   UNL     1      45.382   4.449   9.419  0.00  0.00    +0.000 A 
BRANCH   6   8
ATOM      8  C   UNL     1      46.074   2.612   7.848  0.00  0.00    +0.000 C 
ATOM      9  C   UNL     1      46.375   3.356   6.765  0.00  0.00    +0.000 C 
ATOM     10  C   UNL     1      47.259   2.871   5.654  0.00  0.00    +0.000 C 
ATOM     11  O   UNL     1      48.000   1.706   6.019  0.00  0.00    +0.000 OA
ATOM     12  C   UNL     1      47.164   0.714   6.613  0.00  0.00    +0.000 C 
ATOM     13  C   UNL     1      46.632   1.213   7.958  0.00  0.00    +0.000 C 
ENDBRANCH   6   8
ENDBRANCH   1   2
BRANCH   1  14
ATOM     14  C   UNL     1      45.937   6.655  11.388  0.00  0.00    +0.000 C 
BRANCH  14  18
ATOM     15  C   UNL     1      47.170   4.791  14.939  0.00  0.00    +0.000 A 
ATOM     16  N   UNL     1      45.904   4.540  14.527  0.00  0.00    +0.000 NA
ATOM     17  C   UNL     1      45.532   5.166  13.395  0.00  0.00    +0.000 A 
ATOM     18  C   UNL     1      46.351   6.016  12.676  0.00  0.00    +0.000 A 
ATOM     19  C   UNL     1      47.624   6.179  13.189  0.00  0.00    +0.000 A 
ATOM     20  N   UNL     1      48.059   5.586  14.315  0.00  0.00    +0.000 NA
BRANCH  15  22
ATOM     21  N   UNL     1      47.138   4.610  17.377  0.00  0.00    +0.000 N 
ATOM     22  C   UNL     1      47.617   4.087  16.198  0.00  0.00    +0.000 C 
ATOM     23  O   UNL     1      48.351   3.108  16.210  0.00  0.00    +0.000 OA
ATOM     24  H   UNL     1      47.383   4.160  18.247  0.00  0.00    +0.000 HD
ATOM     25  H   UNL     1      46.509   5.407  17.364  0.00  0.00    +0.000 HD
ENDBRANCH  15  22
ENDBRANCH  14  18
ENDBRANCH   1  14
TORSDOF 5
ENDMDL
MODEL 5
REMARK VINA RESULT:    -7.421      2.017      2.772
REMARK INTER + INTRA:         -10.219
REMARK INTER:                  -9.753
REMARK INTRA:                  -0.466
REMARK UNBOUND:                -0.629
REMARK  Name = 
REMARK  5 active torsions:
REMARK  status: ('A' for Active; 'I' for Inactive)
REMARK    1  A    between atoms: C_2  and  C_4
REMARK    2  A    between atoms: C_7  and  C_8
REMARK    3  A    between atoms: C_8  and  O_9
REMARK    4  A    between atoms: O_9  and  C_10
REMARK    5  A    between atoms: C_14  and  C_15
REMARK                            x       y       z     vdW  Elec       q    Type
REMARK                         _______ _______ _______ _____ _____    ______ ____
ROOT
ATOM      1  O   UNL     1      44.208   3.834  11.754  0.00  0.00    +0.000 OA
ENDROOT
BRANCH   1   2
ATOM      2  C   UNL     1      45.080   4.682  12.372  0.00  0.00    +0.000 A 
ATOM      3  C   UNL     1      45.163   5.968  11.857  0.00  0.00    +0.000 A 
ATOM      4  N   UNL     1      45.970   6.934  12.349  0.00  0.00    +0.000 NA
ATOM      5  C   UNL     1      46.743   6.593  13.408  0.00  0.00    +0.000 A 
ATOM      6  C   UNL     1      46.756   5.334  14.009  0.00  0.00    +0.000 A 
ATOM      7  C   UNL     1      45.885   4.376  13.467  0.00  0.00    +0.000 A 
BRANCH   6   8
ATOM      8  C   UNL     1      47.621   5.021  15.168  0.00  0.00    +0.000 C 
ATOM      9  C   UNL     1      47.581   3.825  15.788  0.00  0.00    +0.000 C 
ATOM     10  C   UNL     1      48.478   3.463  16.934  0.00  0.00    +0.000 C 
ATOM     11  O   UNL     1      49.577   4.365  17.070  0.00  0.00    +0.000 OA
ATOM     12  C   UNL     1      49.150   5.726  17.034  0.00  0.00    +0.000 C 
ATOM     13  C   UNL     1      48.600   6.067  15.647  0.00  0.00    +0.000 C 
ENDBRANCH   6   8
ENDBRANCH   1   2
BRANCH   1  14
ATOM     14  C   UNL     1      43.740   4.218  10.461  0.00  0.00    +0.000 C 
BRANCH  14  18
ATOM     15  C   UNL     1      46.409   2.690   7.606  0.00  0.00    +0.000 A 
ATOM     16  N   UNL     1      46.202   4.029   7.592  0.00  0.00    +0.000 NA
ATOM     17  C   UNL     1      45.328   4.487   8.508  0.00  0.00    +0.000 A 
ATOM     18  C   UNL     1      44.663   3.681   9.413  0.00  0.00    +0.000 A 
ATOM     19  C   UNL     1      44.969   2.336   9.338  0.00  0.00    +0.000 A 
ATOM     20  N   UNL     1      45.830   1.813   8.448  0.00  0.00    +0.000 NA
BRANCH  15  22
ATOM     21  N   UNL     1      47.473   2.843   5.410  0.00  0.00    +0.000 N 
ATOM     22  C   UNL     1      47.398   2.154   6.600  0.00  0.00    +0.000 C 
ATOM     23  O   UNL     1      48.110   1.178   6.794  0.00  0.00    +0.000 OA
ATOM     24  H   UNL     1      48.139   2.543   4.714  0.00  0.00    +0.000 HD
ATOM     25  H   UNL     1      46.900   3.667   5.261  0.00  0.00    +0.000 HD
ENDBRANCH  15  22
ENDBRANCH  14  18
ENDBRANCH   1  14
TORSDOF 5
ENDMDL
MODEL 6
REMARK VINA RESULT:    -7.191      1.473      1.920
REMARK INTER + INTRA:          -9.922
REMARK INTER:                  -9.281
REMARK INTRA:                  -0.641
REMARK UNBOUND:                -0.629
REMARK  Name = 
REMARK  5 active torsions:
REMARK  status: ('A' for Active; 'I' for Inactive)
REMARK    1  A    between atoms: C_2  and  C_4
REMARK    2  A    between atoms: C_7  and  C_8
REMARK    3  A    between atoms: C_8  and  O_9
REMARK    4  A    between atoms: O_9  and  C_10
REMARK    5  A    between atoms: C_14  and  C_15
REMARK                            x       y       z     vdW  Elec       q    Type
REMARK                         _______ _______ _______ _____ _____    ______ ____
ROOT
ATOM      1  O   UNL     1      44.686   4.903  11.562  0.00  0.00    +0.000 OA
ENDROOT
BRANCH   1   2
ATOM      2  C   UNL     1      45.258   6.133  11.711  0.00  0.00    +0.000 A 
ATOM      3  C   UNL     1      44.403   7.224  11.652  0.00  0.00    +0.000 A 
ATOM      4  N   UNL     1      44.799   8.510  11.783  0.00  0.00    +0.000 NA
ATOM      5  C   UNL     1      46.125   8.716  11.973  0.00  0.00    +0.000 A 
ATOM      6  C   UNL     1      47.083   7.705  12.043  0.00  0.00    +0.000 A 
ATOM      7  C   UNL     1      46.612   6.389  11.917  0.00  0.00    +0.000 A 
BRANCH   6   8
ATOM      8  C   UNL     1      48.518   7.992  12.257  0.00  0.00    +0.000 C 
ATOM      9  C   UNL     1      49.459   7.655  11.352  0.00  0.00    +0.000 C 
ATOM     10  C   UNL     1      50.915   7.974  11.520  0.00  0.00    +0.000 C 
ATOM     11  O   UNL     1      51.143   8.944  12.543  0.00  0.00    +0.000 OA
ATOM     12  C   UNL     1      50.445   8.618  13.744  0.00  0.00    +0.000 C 
ATOM     13  C   UNL     1      48.936   8.714  13.517  0.00  0.00    +0.000 C 
ENDBRANCH   6   8
ENDBRANCH   1   2
BRANCH   1  14
ATOM     14  C   UNL     1      43.969   4.666  10.350  0.00  0.00    +0.000 C 
BRANCH  14  18
ATOM     15  C   UNL     1      46.494   2.567   7.738  0.00  0.00    +0.000 A 
ATOM     16  N   UNL     1      46.456   3.913   7.598  0.00  0.00    +0.000 NA
ATOM     17  C   UNL     1      45.624   4.557   8.438  0.00  0.00    +0.000 A 
ATOM     18  C   UNL     1      44.843   3.926   9.387  0.00  0.00    +0.000 A 
ATOM     19  C   UNL     1      44.980   2.552   9.443  0.00  0.00    +0.000 A 
ATOM     20  N   UNL     1      45.791   1.848   8.633  0.00  0.00    +0.000 NA
BRANCH  15  22
ATOM     21  N   UNL     1      48.541   2.525   6.402  0.00  0.00    +0.000 N 
ATOM     22  C   UNL     1      47.432   1.823   6.819  0.00  0.00    +0.000 C 
ATOM     23  O   UNL     1      47.258   0.669   6.451  0.00  0.00    +0.000 OA
ATOM     24  H   UNL     1      49.216   2.065   5.809  0.00  0.00    +0.000 HD
ATOM     25  H   UNL     1      48.696   3.473   6.728  0.00  0.00    +0.000 HD
ENDBRANCH  15  22
ENDBRANCH  14  18
ENDBRANCH   1  14
TORSDOF 5
ENDMDL
MODEL 7
REMARK VINA RESULT:    -6.747      4.324      8.153
REMARK INTER + INTRA:          -9.348
REMARK INTER:                  -8.759
REMARK INTRA:                  -0.589
REMARK UNBOUND:                -0.629
REMARK  Name = 
REMARK  5 active torsions:
REMARK  status: ('A' for Active; 'I' for Inactive)
REMARK    1  A    between atoms: C_2  and  C_4
REMARK    2  A    between atoms: C_7  and  C_8
REMARK    3  A    between atoms: C_8  and  O_9
REMARK    4  A    between atoms: O_9  and  C_10
REMARK    5  A    between atoms: C_14  and  C_15
REMARK                            x       y       z     vdW  Elec       q    Type
REMARK                         _______ _______ _______ _____ _____    ______ ____
ROOT
ATOM      1  O   UNL     1      48.269   5.840  15.913  0.00  0.00    +0.000 OA
ENDROOT
BRANCH   1   2
ATOM      2  C   UNL     1      47.851   6.002  14.624  0.00  0.00    +0.000 A 
ATOM      3  C   UNL     1      48.517   6.960  13.874  0.00  0.00    +0.000 A 
ATOM      4  N   UNL     1      48.236   7.247  12.584  0.00  0.00    +0.000 NA
ATOM      5  C   UNL     1      47.227   6.543  12.015  0.00  0.00    +0.000 A 
ATOM      6  C   UNL     1      46.479   5.562  12.666  0.00  0.00    +0.000 A 
ATOM      7  C   UNL     1      46.827   5.295  13.999  0.00  0.00    +0.000 A 
BRANCH   6   8
ATOM      8  C   UNL     1      45.390   4.823  11.991  0.00  0.00    +0.000 C 
ATOM      9  C   UNL     1      44.742   5.323  10.919  0.00  0.00    +0.000 C 
ATOM     10  C   UNL     1      43.667   4.578  10.186  0.00  0.00    +0.000 C 
ATOM     11  O   UNL     1      43.643   3.190  10.521  0.00  0.00    +0.000 OA
ATOM     12  C   UNL     1      43.673   2.988  11.934  0.00  0.00    +0.000 C 
ATOM     13  C   UNL     1      45.016   3.451  12.501  0.00  0.00    +0.000 C 
ENDBRANCH   6   8
ENDBRANCH   1   2
BRANCH   1  14
ATOM     14  C   UNL     1      47.759   4.710  16.621  0.00  0.00    +0.000 C 
BRANCH  14  18
ATOM     15  C   UNL     1      50.954   2.100  17.385  0.00  0.00    +0.000 A 
ATOM     16  N   UNL     1      49.913   1.599  16.679  0.00  0.00    +0.000 NA
ATOM     17  C   UNL     1      48.896   2.454  16.464  0.00  0.00    +0.000 A 
ATOM     18  C   UNL     1      48.874   3.758  16.920  0.00  0.00    +0.000 A 
ATOM     19  C   UNL     1      49.999   4.158  17.616  0.00  0.00    +0.000 A 
ATOM     20  N   UNL     1      51.048   3.355  17.866  0.00  0.00    +0.000 NA
BRANCH  15  22
ATOM     21  N   UNL     1      51.801  -0.040  18.208  0.00  0.00    +0.000 N 
ATOM     22  C   UNL     1      52.116   1.166  17.624  0.00  0.00    +0.000 C 
ATOM     23  O   UNL     1      53.273   1.424  17.326  0.00  0.00    +0.000 OA
ATOM     24  H   UNL     1      52.537  -0.714  18.364  0.00  0.00    +0.000 HD
ATOM     25  H   UNL     1      50.837  -0.262  18.432  0.00  0.00    +0.000 HD
ENDBRANCH  15  22
ENDBRANCH  14  18
ENDBRANCH   1  14
TORSDOF 5
ENDMDL
MODEL 8
REMARK VINA RESULT:    -5.960      4.532      6.515
REMARK INTER + INTRA:          -8.332
REMARK INTER:                  -7.787
REMARK INTRA:                  -0.545
REMARK UNBOUND:                -0.629
REMARK  Name = 
REMARK  5 active torsions:
REMARK  status: ('A' for Active; 'I' for Inactive)
REMARK    1  A    between atoms: C_2  and  C_4
REMARK    2  A    between atoms: C_7  and  C_8
REMARK    3  A    between atoms: C_8  and  O_9
REMARK    4  A    between atoms: O_9  and  C_10
REMARK    5  A    between atoms: C_14  and  C_15
REMARK                            x       y       z     vdW  Elec       q    Type
REMARK                         _______ _______ _______ _____ _____    ______ ____
ROOT
ATOM      1  O   UNL     1      48.863   6.105  14.573  0.00  0.00    +0.000 OA
ENDROOT
BRANCH   1   2
ATOM      2  C   UNL     1      48.699   6.761  15.758  0.00  0.00    +0.000 A 
ATOM      3  C   UNL     1      48.660   8.147  15.697  0.00  0.00    +0.000 A 
ATOM      4  N   UNL     1      48.500   8.952  16.771  0.00  0.00    +0.000 NA
ATOM      5  C   UNL     1      48.383   8.338  17.973  0.00  0.00    +0.000 A 
ATOM      6  C   UNL     1      48.415   6.957  18.165  0.00  0.00    +0.000 A 
ATOM      7  C   UNL     1      48.566   6.170  17.013  0.00  0.00    +0.000 A 
BRANCH   6   8
ATOM      8  C   UNL     1      48.278   6.343  19.504  0.00  0.00    +0.000 C 
ATOM      9  C   UNL     1      47.702   6.994  20.535  0.00  0.00    +0.000 C 
ATOM     10  C   UNL     1      47.507   6.381  21.889  0.00  0.00    +0.000 C 
ATOM     11  O   UNL     1      47.677   4.963  21.873  0.00  0.00    +0.000 OA
ATOM     12  C   UNL     1      48.875   4.583  21.197  0.00  0.00    +0.000 C 
ATOM     13  C   UNL     1      48.770   4.929  19.710  0.00  0.00    +0.000 C 
ENDBRANCH   6   8
ENDBRANCH   1   2
BRANCH   1  14
ATOM     14  C   UNL     1      48.235   6.676  13.426  0.00  0.00    +0.000 C 
BRANCH  14  18
ATOM     15  C   UNL     1      45.197   4.107  12.094  0.00  0.00    +0.000 A 
ATOM     16  N   UNL     1      45.346   5.274  11.423  0.00  0.00    +0.000 NA
ATOM     17  C   UNL     1      46.317   6.085  11.884  0.00  0.00    +0.000 A 
ATOM     18  C   UNL     1      47.123   5.787  12.966  0.00  0.00    +0.000 A 
ATOM     19  C   UNL     1      46.884   4.562  13.558  0.00  0.00    +0.000 A 
ATOM     20  N   UNL     1      45.931   3.706  13.149  0.00  0.00    +0.000 NA
BRANCH  15  22
ATOM     21  N   UNL     1      43.672   2.237  12.487  0.00  0.00    +0.000 N 
ATOM     22  C   UNL     1      44.126   3.173  11.585  0.00  0.00    +0.000 C 
ATOM     23  O   UNL     1      43.661   3.216  10.454  0.00  0.00    +0.000 OA
ATOM     24  H   UNL     1      42.936   1.605  12.208  0.00  0.00    +0.000 HD
ATOM     25  H   UNL     1      44.042   2.219  13.432  0.00  0.00    +0.000 HD
ENDBRANCH  15  22
ENDBRANCH  14  18
ENDBRANCH   1  14
TORSDOF 5
ENDMDL
MODEL 9
REMARK VINA RESULT:    -5.827      3.807      8.742
REMARK INTER + INTRA:          -8.160
REMARK INTER:                  -7.736
REMARK INTRA:                  -0.423
REMARK UNBOUND:                -0.629
REMARK  Name = 
REMARK  5 active torsions:
REMARK  status: ('A' for Active; 'I' for Inactive)
REMARK    1  A    between atoms: C_2  and  C_4
REMARK    2  A    between atoms: C_7  and  C_8
REMARK    3  A    between atoms: C_8  and  O_9
REMARK    4  A    between atoms: O_9  and  C_10
REMARK    5  A    between atoms: C_14  and  C_15
REMARK                            x       y       z     vdW  Elec       q    Type
REMARK                         _______ _______ _______ _____ _____    ______ ____
ROOT
ATOM      1  O   UNL     1      49.137   6.563  14.012  0.00  0.00    +0.000 OA
ENDROOT
BRANCH   1   2
ATOM      2  C   UNL     1      47.901   6.743  13.463  0.00  0.00    +0.000 A 
ATOM      3  C   UNL     1      47.349   8.011  13.586  0.00  0.00    +0.000 A 
ATOM      4  N   UNL     1      46.139   8.364  13.099  0.00  0.00    +0.000 NA
ATOM      5  C   UNL     1      45.438   7.394  12.462  0.00  0.00    +0.000 A 
ATOM      6  C   UNL     1      45.881   6.084  12.282  0.00  0.00    +0.000 A 
ATOM      7  C   UNL     1      47.151   5.779  12.794  0.00  0.00    +0.000 A 
BRANCH   6   8
ATOM      8  C   UNL     1      45.071   5.068  11.574  0.00  0.00    +0.000 C 
ATOM      9  C   UNL     1      45.074   4.960  10.230  0.00  0.00    +0.000 C 
ATOM     10  C   UNL     1      44.301   3.911   9.488  0.00  0.00    +0.000 C 
ATOM     11  O   UNL     1      43.851   2.861  10.343  0.00  0.00    +0.000 OA
ATOM     12  C   UNL     1      43.219   3.370  11.517  0.00  0.00    +0.000 C 
ATOM     13  C   UNL     1      44.242   4.102  12.388  0.00  0.00    +0.000 C 
ENDBRANCH   6   8
ENDBRANCH   1   2
BRANCH   1  14
ATOM     14  C   UNL     1      49.493   7.418  15.099  0.00  0.00    +0.000 C 
BRANCH  14  18
ATOM     15  C   UNL     1      49.289   5.300  18.715  0.00  0.00    +0.000 A 
ATOM     16  N   UNL     1      50.205   6.294  18.642  0.00  0.00    +0.000 NA
ATOM     17  C   UNL     1      50.259   6.943  17.464  0.00  0.00    +0.000 A 
ATOM     18  C   UNL     1      49.457   6.644  16.379  0.00  0.00    +0.000 A 
ATOM     19  C   UNL     1      48.552   5.620  16.581  0.00  0.00    +0.000 A 
ATOM     20  N   UNL     1      48.447   4.930  17.731  0.00  0.00    +0.000 NA
BRANCH  15  22
ATOM     21  N   UNL     1      48.422   3.429  20.029  0.00  0.00    +0.000 N 
ATOM     22  C   UNL     1      49.196   4.568  20.032  0.00  0.00    +0.000 C 
ATOM     23  O   UNL     1      49.763   4.926  21.055  0.00  0.00    +0.000 OA
ATOM     24  H   UNL     1      48.348   2.886  20.877  0.00  0.00    +0.000 HD
ATOM     25  H   UNL     1      47.973   3.120  19.173  0.00  0.00    +0.000 HD
ENDBRANCH  15  22
ENDBRANCH  14  18
ENDBRANCH   1  14
TORSDOF 5
ENDMDL
