MODEL 1
REMARK VINA RESULT:    -7.656      0.000      0.000
REMARK INTER + INTRA:         -10.452
REMARK INTER:                  -9.670
REMARK INTRA:                  -0.782
REMARK UNBOUND:                -0.782
REMARK  Name = 
REMARK  7 active torsions:
REMARK  status: ('A' for Active; 'I' for Inactive)
REMARK    1  A    between atoms: C_1  and  C_2
REMARK    2  A    between atoms: C_4  and  C_5
REMARK    3  A    between atoms: C_7  and  O_8
REMARK    4  A    between atoms: O_8  and  C_9
REMARK    5  A    between atoms: C_9  and  C_10
REMARK    6  A    between atoms: C_14  and  C_15
REMARK    7  A    between atoms: C_19  and  O_20
REMARK                            x       y       z     vdW  Elec       q    Type
REMARK                         _______ _______ _______ _____ _____    ______ ____
ROOT
ATOM      1  C   UNL     1      45.207   6.079  11.480  0.00  0.00    +0.000 A 
ATOM      2  C   UNL     1      43.831   5.939  11.705  0.00  0.00    +0.000 A 
ATOM      3  C   UNL     1      43.077   5.001  11.000  0.00  0.00    +0.000 A 
ATOM      4  C   UNL     1      43.688   4.190  10.041  0.00  0.00    +0.000 A 
ATOM      5  C   UNL     1      45.064   4.285   9.778  0.00  0.00    +0.000 A 
ATOM      6  C   UNL     1      45.800   5.211  10.539  0.00  0.00    +0.000 A 
ENDROOT
BRANCH   5   7
ATOM      7  C   UNL     1      45.705   3.500   8.697  0.00  0.00    +0.000 A 
ATOM      8  C   UNL     1      46.158   4.101   7.507  0.00  0.00    +0.000 A 
ATOM      9  C   UNL     1      46.715   3.342   6.471  0.00  0.00    +0.000 A 
ATOM     10  C   UNL     1      46.852   1.963   6.608  0.00  0.00    +0.000 A 
ATOM     11  C   UNL     1      46.422   1.357   7.781  0.00  0.00    +0.000 A 
ATOM     12  C   UNL     1      45.846   2.105   8.804  0.00  0.00    +0.000 A 
BRANCH  11  13
ATOM     13  O   UNL     1      46.544   0.012   7.972  0.00  0.00    +0.000 OA
ATOM     14  H   UNL     1      47.340  -0.295   7.510  0.00  0.00    +0.000 HD
ENDBRANCH  11  13
ENDBRANCH   5   7
BRANCH   1  15
ATOM     15  C   UNL     1      46.007   7.175  12.169  0.00  0.00    +0.000 C 
ATOM     16  C   UNL     1      47.059   6.774  13.207  0.00  0.00    +0.000 C 
ATOM     17  C   UNL     1      47.491   7.251  11.864  0.00  0.00    +0.000 C 
BRANCH  15  18
ATOM     18  O   UNL     1      45.269   8.327  12.632  0.00  0.00    +0.000 OA
BRANCH  18  25
ATOM     19  C   UNL     1      46.696  12.790  11.752  0.00  0.00    +0.000 C 
ATOM     20  C   UNL     1      45.808  11.623  11.432  0.00  0.00    +0.000 A 
ATOM     21  C   UNL     1      44.753  11.766  10.551  0.00  0.00    +0.000 A 
ATOM     22  C   UNL     1      43.949  10.659  10.366  0.00  0.00    +0.000 A 
ATOM     23  C   UNL     1      42.754  10.704   9.458  0.00  0.00    +0.000 C 
ATOM     24  N   UNL     1      44.169   9.495  11.005  0.00  0.00    +0.000 NA
ATOM     25  C   UNL     1      45.231   9.445  11.825  0.00  0.00    +0.000 A 
ATOM     26  N   UNL     1      46.070  10.466  12.068  0.00  0.00    +0.000 NA
ENDBRANCH  18  25
ENDBRANCH  15  18
ENDBRANCH   1  15
TORSDOF 5
ENDMDL
MODEL 2
REMARK VINA RESULT:    -7.498      3.523      5.770
REMARK INTER + INTRA:         -10.252
REMARK INTER:                  -9.345
REMARK INTRA:                  -0.907
REMARK UNBOUND:                -0.782
REMARK  Name = 
REMARK  7 active torsions:
REMARK  status: ('A' for Active; 'I' for Inactive)
REMARK    1  A    between atoms: C_1  and  C_2
REMARK    2  A    between atoms: C_4  and  C_5
REMARK    3  A    between atoms: C_7  and  O_8
REMARK    4  A    between atoms: O_8  and  C_9
REMARK    5  A    between atoms: C_9  and  C_10
REMARK    6  A    between atoms: C_14  and  C_15
REMARK    7  A    between atoms: C_19  and  O_20
REMARK                            x       y       z     vdW  Elec       q    Type
REMARK                         _______ _______ _______ _____ _____    ______ ____
ROOT
ATOM      1  C   UNL     1      47.355   7.551  12.980  0.00  0.00    +0.000 A 
ATOM      2  C   UNL     1      46.500   8.660  13.038  0.00  0.00    +0.000 A 
ATOM      3  C   UNL     1      45.240   8.630  12.441  0.00  0.00    +0.000 A 
ATOM      4  C   UNL     1      44.815   7.488  11.759  0.00  0.00    +0.000 A 
ATOM      5  C   UNL     1      45.629   6.347  11.673  0.00  0.00    +0.000 A 
ATOM      6  C   UNL     1      46.875   6.397  12.325  0.00  0.00    +0.000 A 
ENDROOT
BRANCH   5   7
ATOM      7  C   UNL     1      45.231   5.166  10.871  0.00  0.00    +0.000 A 
ATOM      8  C   UNL     1      45.588   5.030   9.517  0.00  0.00    +0.000 A 
ATOM      9  C   UNL     1      45.162   3.934   8.756  0.00  0.00    +0.000 A 
ATOM     10  C   UNL     1      44.386   2.936   9.338  0.00  0.00    +0.000 A 
ATOM     11  C   UNL     1      44.036   3.049  10.676  0.00  0.00    +0.000 A 
ATOM     12  C   UNL     1      44.437   4.148  11.431  0.00  0.00    +0.000 A 
BRANCH  11  13
ATOM     13  O   UNL     1      43.287   2.094  11.299  0.00  0.00    +0.000 OA
ATOM     14  H   UNL     1      43.667   1.224  11.098  0.00  0.00    +0.000 HD
ENDBRANCH  11  13
ENDBRANCH   5   7
BRANCH   1  15
ATOM     15  C   UNL     1      48.770   7.621  13.536  0.00  0.00    +0.000 C 
ATOM     16  C   UNL     1      49.896   8.105  12.619  0.00  0.00    +0.000 C 
ATOM     17  C   UNL     1      49.387   8.997  13.697  0.00  0.00    +0.000 C 
BRANCH  15  18
ATOM     18  O   UNL     1      49.219   6.493  14.319  0.00  0.00    +0.000 OA
BRANCH  18  25
ATOM     19  C   UNL     1      48.751   7.815  18.876  0.00  0.00    +0.000 C 
ATOM     20  C   UNL     1      48.485   6.829  17.775  0.00  0.00    +0.000 A 
ATOM     21  C   UNL     1      47.949   5.588  18.060  0.00  0.00    +0.000 A 
ATOM     22  C   UNL     1      47.800   4.721  16.995  0.00  0.00    +0.000 A 
ATOM     23  C   UNL     1      47.259   3.334  17.187  0.00  0.00    +0.000 C 
ATOM     24  N   UNL     1      48.156   5.054  15.741  0.00  0.00    +0.000 NA
ATOM     25  C   UNL     1      48.647   6.290  15.558  0.00  0.00    +0.000 A 
ATOM     26  N   UNL     1      48.829   7.202  16.528  0.00  0.00    +0.000 NA
ENDBRANCH  18  25
ENDBRANCH  15  18
ENDBRANCH   1  15
TORSDOF 5
ENDMDL
MODEL 3
REMARK VINA RESULT:    -6.566      4.537      7.789
REMARK INTER + INTRA:          -9.076
REMARK INTER:                  -8.358
REMARK INTRA:                  -0.718
REMARK UNBOUND:                -0.782
REMARK  Name = 
REMARK  7 active torsions:
REMARK  status: ('A' for Active; 'I' for Inactive)
REMARK    1  A    between atoms: C_1  and  C_2
REMARK    2  A    between atoms: C_4  and  C_5
REMARK    3  A    between atoms: C_7  and  O_8
REMARK    4  A    between atoms: O_8  and  C_9
REMARK    5  A    between atoms: C_9  and  C_10
REMARK    6  A    between atoms: C_14  and  C_15
REMARK    7  A    between atoms: C_19  and  O_20
REMARK                            x       y       z     vdW  Elec       q    Type
REMARK                         _______ _______ _______ _____ _____    ______ ____
ROOT
ATOM      1  C   UNL     1      48.996   7.421  14.141  0.00  0.00    +0.000 A 
ATOM      2  C   UNL     1      49.865   7.856  13.130  0.00  0.00    +0.000 A 
ATOM      3  C   UNL     1      49.499   7.788  11.786  0.00  0.00    +0.000 A 
ATOM      4  C   UNL     1      48.254   7.269  11.426  0.00  0.00    +0.000 A 
ATOM      5  C   UNL     1      47.343   6.822  12.396  0.00  0.00    +0.000 A 
ATOM      6  C   UNL     1      47.728   6.947  13.743  0.00  0.00    +0.000 A 
ENDROOT
BRANCH   5   7
ATOM      7  C   UNL     1      46.061   6.181  12.022  0.00  0.00    +0.000 A 
ATOM      8  C   UNL     1      45.848   5.628  10.745  0.00  0.00    +0.000 A 
ATOM      9  C   UNL     1      44.615   5.070  10.386  0.00  0.00    +0.000 A 
ATOM     10  C   UNL     1      43.569   5.033  11.304  0.00  0.00    +0.000 A 
ATOM     11  C   UNL     1      43.767   5.562  12.572  0.00  0.00    +0.000 A 
ATOM     12  C   UNL     1      44.983   6.138  12.926  0.00  0.00    +0.000 A 
BRANCH  11  13
ATOM     13  O   UNL     1      42.780   5.540  13.513  0.00  0.00    +0.000 OA
ATOM     14  H   UNL     1      43.154   5.831  14.360  0.00  0.00    +0.000 HD
ENDBRANCH  11  13
ENDBRANCH   5   7
BRANCH   1  15
ATOM     15  C   UNL     1      49.437   7.394  15.597  0.00  0.00    +0.000 C 
ATOM     16  C   UNL     1      49.832   8.711  16.270  0.00  0.00    +0.000 C 
ATOM     17  C   UNL     1      48.533   8.068  16.611  0.00  0.00    +0.000 C 
BRANCH  15  18
ATOM     18  O   UNL     1      50.357   6.348  15.979  0.00  0.00    +0.000 OA
BRANCH  18  25
ATOM     19  C   UNL     1      47.183   3.064  17.346  0.00  0.00    +0.000 C 
ATOM     20  C   UNL     1      48.378   3.920  17.648  0.00  0.00    +0.000 A 
ATOM     21  C   UNL     1      48.866   4.014  18.937  0.00  0.00    +0.000 A 
ATOM     22  C   UNL     1      49.926   4.876  19.135  0.00  0.00    +0.000 A 
ATOM     23  C   UNL     1      50.518   5.085  20.498  0.00  0.00    +0.000 C 
ATOM     24  N   UNL     1      50.466   5.594  18.133  0.00  0.00    +0.000 NA
ATOM     25  C   UNL     1      49.940   5.420  16.910  0.00  0.00    +0.000 A 
ATOM     26  N   UNL     1      48.911   4.606  16.619  0.00  0.00    +0.000 NA
ENDBRANCH  18  25
ENDBRANCH  15  18
ENDBRANCH   1  15
TORSDOF 5
ENDMDL
MODEL 4
REMARK VINA RESULT:    -6.545      3.705      7.357
REMARK INTER + INTRA:          -9.049
REMARK INTER:                  -8.597
REMARK INTRA:                  -0.452
REMARK UNBOUND:                -0.782
REMARK  Name = 
REMARK  7 active torsions:
REMARK  status: ('A' for Active; 'I' for Inactive)
REMARK    1  A    between atoms: C_1  and  C_2
REMARK    2  A    between atoms: C_4  and  C_5
REMARK    3  A    between atoms: C_7  and  O_8
REMARK    4  A    between atoms: O_8  and  C_9
REMARK    5  A    between atoms: C_9  and  C_10
REMARK    6  A    between atoms: C_14  and  C_15
REMARK    7  A    between atoms: C_19  and  O_20
REMARK                            x       y       z     vdW  Elec       q    Type
REMARK                         _______ _______ _______ _____ _____    ______ ____
ROOT
ATOM      1  C   UNL     1      48.281   8.057  14.022  0.00  0.00    +0.000 A 
ATOM      2  C   UNL     1      48.401   9.238  14.767  0.00  0.00    +0.000 A 
ATOM      3  C   UNL     1      48.667   9.203  16.136  0.00  0.00    +0.000 A 
ATOM      4  C   UNL     1      48.807   7.978  16.790  0.00  0.00    +0.000 A 
ATOM      5  C   UNL     1      48.701   6.764  16.093  0.00  0.00    +0.000 A 
ATOM      6  C   UNL     1      48.476   6.839  14.706  0.00  0.00    +0.000 A 
ENDROOT
BRANCH   5   7
ATOM      7  C   UNL     1      48.750   5.459  16.792  0.00  0.00    +0.000 A 
ATOM      8  C   UNL     1      49.954   4.926  17.291  0.00  0.00    +0.000 A 
ATOM      9  C   UNL     1      49.997   3.668  17.905  0.00  0.00    +0.000 A 
ATOM     10  C   UNL     1      48.832   2.920  18.052  0.00  0.00    +0.000 A 
ATOM     11  C   UNL     1      47.634   3.437  17.577  0.00  0.00    +0.000 A 
ATOM     12  C   UNL     1      47.590   4.678  16.946  0.00  0.00    +0.000 A 
BRANCH  11  13
ATOM     13  O   UNL     1      46.462   2.752  17.707  0.00  0.00    +0.000 OA
ATOM     14  H   UNL     1      46.501   2.224  18.520  0.00  0.00    +0.000 HD
ENDBRANCH  11  13
ENDBRANCH   5   7
BRANCH   1  15
ATOM     15  C   UNL     1      47.883   8.092  12.553  0.00  0.00    +0.000 C 
ATOM     16  C   UNL     1      48.598   9.076  11.622  0.00  0.00    +0.000 C 
ATOM     17  C   UNL     1      48.910   7.622  11.542  0.00  0.00    +0.000 C 
BRANCH  15  18
ATOM     18  O   UNL     1      46.468   8.074  12.262  0.00  0.00    +0.000 OA
BRANCH  18  25
ATOM     19  C   UNL     1      45.684   4.746   8.939  0.00  0.00    +0.000 C 
ATOM     20  C   UNL     1      45.405   5.314  10.301  0.00  0.00    +0.000 A 
ATOM     21  C   UNL     1      44.360   4.827  11.062  0.00  0.00    +0.000 A 
ATOM     22  C   UNL     1      44.135   5.453  12.273  0.00  0.00    +0.000 A 
ATOM     23  C   UNL     1      43.008   5.033  13.171  0.00  0.00    +0.000 C 
ATOM     24  N   UNL     1      44.886   6.484  12.700  0.00  0.00    +0.000 NA
ATOM     25  C   UNL     1      45.893   6.873  11.901  0.00  0.00    +0.000 A 
ATOM     26  N   UNL     1      46.191   6.328  10.710  0.00  0.00    +0.000 NA
ENDBRANCH  18  25
ENDBRANCH  15  18
ENDBRANCH   1  15
TORSDOF 5
ENDMDL
MODEL 5
REMARK VINA RESULT:    -6.494      4.491      7.354
REMARK INTER + INTRA:          -8.984
REMARK INTER:                  -8.434
REMARK INTRA:                  -0.550
REMARK UNBOUND:                -0.782
REMARK  Name = 
REMARK  7 active torsions:
REMARK  status: ('A' for Active; 'I' for Inactive)
REMARK    1  A    between atoms: C_1  and  C_2
REMARK    2  A    between atoms: C_4  and  C_5
REMARK    3  A    between atoms: C_7  and  O_8
REMARK    4  A    between atoms: O_8  and  C_9
REMARK    5  A    between atoms: C_9  and  C_10
REMARK    6  A    between atoms: C_14  and  C_15
REMARK    7  A    between atoms: C_19  and  O_20
REMARK                            x       y       z     vdW  Elec       q    Type
REMARK                         _______ _______ _______ _____ _____    ______ ____
ROOT
ATOM      1  C   UNL     1      48.632   7.362  13.902  0.00  0.00    +0.000 A 
ATOM      2  C   UNL     1      49.366   7.832  12.805  0.00  0.00    +0.000 A 
ATOM      3  C   UNL     1      48.903   7.663  11.501  0.00  0.00    +0.000 A 
ATOM      4  C   UNL     1      47.694   7.003  11.269  0.00  0.00    +0.000 A 
ATOM      5  C   UNL     1      46.916   6.515  12.330  0.00  0.00    +0.000 A 
ATOM      6  C   UNL     1      47.393   6.743  13.634  0.00  0.00    +0.000 A 
ENDROOT
BRANCH   5   7
ATOM      7  C   UNL     1      45.682   5.729  12.092  0.00  0.00    +0.000 A 
ATOM      8  C   UNL     1      44.983   5.103  13.141  0.00  0.00    +0.000 A 
ATOM      9  C   UNL     1      43.847   4.322  12.899  0.00  0.00    +0.000 A 
ATOM     10  C   UNL     1      43.370   4.163  11.600  0.00  0.00    +0.000 A 
ATOM     11  C   UNL     1      44.040   4.785  10.556  0.00  0.00    +0.000 A 
ATOM     12  C   UNL     1      45.183   5.544  10.790  0.00  0.00    +0.000 A 
BRANCH  11  13
ATOM     13  O   UNL     1      43.608   4.672   9.266  0.00  0.00    +0.000 OA
ATOM     14  H   UNL     1      44.369   4.791   8.675  0.00  0.00    +0.000 HD
ENDBRANCH  11  13
ENDBRANCH   5   7
BRANCH   1  15
ATOM     15  C   UNL     1      49.189   7.449  15.316  0.00  0.00    +0.000 C 
ATOM     16  C   UNL     1      49.856   8.753  15.763  0.00  0.00    +0.000 C 
ATOM     17  C   UNL     1      48.503   8.401  16.277  0.00  0.00    +0.000 C 
BRANCH  15  18
ATOM     18  O   UNL     1      49.952   6.317  15.786  0.00  0.00    +0.000 OA
BRANCH  18  25
ATOM     19  C   UNL     1      50.649   5.108  20.345  0.00  0.00    +0.000 C 
ATOM     20  C   UNL     1      49.871   4.970  19.069  0.00  0.00    +0.000 A 
ATOM     21  C   UNL     1      48.926   3.972  18.929  0.00  0.00    +0.000 A 
ATOM     22  C   UNL     1      48.306   3.878  17.698  0.00  0.00    +0.000 A 
ATOM     23  C   UNL     1      47.286   2.813  17.418  0.00  0.00    +0.000 C 
ATOM     24  N   UNL     1      48.598   4.707  16.680  0.00  0.00    +0.000 NA
ATOM     25  C   UNL     1      49.514   5.660  16.917  0.00  0.00    +0.000 A 
ATOM     26  N   UNL     1      50.169   5.832  18.078  0.00  0.00    +0.000 NA
ENDBRANCH  18  25
ENDBRANCH  15  18
ENDBRANCH   1  15
TORSDOF 5
ENDMDL
MODEL 6
REMARK VINA RESULT:    -6.082      5.305      7.755
REMARK INTER + INTRA:          -8.464
REMARK INTER:                  -7.833
REMARK INTRA:                  -0.631
REMARK UNBOUND:                -0.782
REMARK  Name = 
REMARK  7 active torsions:
REMARK  status: ('A' for Active; 'I' for Inactive)
REMARK    1  A    between atoms: C_1  and  C_2
REMARK    2  A    between atoms: C_4  and  C_5
REMARK    3  A    between atoms: C_7  and  O_8
REMARK    4  A    between atoms: O_8  and  C_9
REMARK    5  A    between atoms: C_9  and  C_10
REMARK    6  A    between atoms: C_14  and  C_15
REMARK    7  A    between atoms: C_19  and  O_20
REMARK                            x       y       z     vdW  Elec       q    Type
REMARK                         _______ _______ _______ _____ _____    ______ ____
ROOT
ATOM      1  C   UNL     1      47.760   5.042  15.759  0.00  0.00    +0.000 A 
ATOM      2  C   UNL     1      48.608   6.095  15.389  0.00  0.00    +0.000 A 
ATOM      3  C   UNL     1      48.438   6.767  14.179  0.00  0.00    +0.000 A 
ATOM      4  C   UNL     1      47.417   6.387  13.306  0.00  0.00    +0.000 A 
ATOM      5  C   UNL     1      46.536   5.342  13.627  0.00  0.00    +0.000 A 
ATOM      6  C   UNL     1      46.710   4.717  14.875  0.00  0.00    +0.000 A 
ENDROOT
BRANCH   5   7
ATOM      7  C   UNL     1      45.511   4.867  12.668  0.00  0.00    +0.000 A 
ATOM      8  C   UNL     1      45.456   3.527  12.239  0.00  0.00    +0.000 A 
ATOM      9  C   UNL     1      44.516   3.101  11.293  0.00  0.00    +0.000 A 
ATOM     10  C   UNL     1      43.592   4.001  10.768  0.00  0.00    +0.000 A 
ATOM     11  C   UNL     1      43.625   5.323  11.191  0.00  0.00    +0.000 A 
ATOM     12  C   UNL     1      44.573   5.757  12.113  0.00  0.00    +0.000 A 
BRANCH  11  13
ATOM     13  O   UNL     1      42.735   6.243  10.718  0.00  0.00    +0.000 OA
ATOM     14  H   UNL     1      41.905   5.788  10.502  0.00  0.00    +0.000 HD
ENDBRANCH  11  13
ENDBRANCH   5   7
BRANCH   1  15
ATOM     15  C   UNL     1      48.013   4.238  17.026  0.00  0.00    +0.000 C 
ATOM     16  C   UNL     1      48.090   2.712  16.925  0.00  0.00    +0.000 C 
ATOM     17  C   UNL     1      49.335   3.503  17.132  0.00  0.00    +0.000 C 
BRANCH  15  18
ATOM     18  O   UNL     1      47.262   4.619  18.200  0.00  0.00    +0.000 OA
BRANCH  18  25
ATOM     19  C   UNL     1      49.575   5.453  22.284  0.00  0.00    +0.000 C 
ATOM     20  C   UNL     1      48.841   5.965  21.079  0.00  0.00    +0.000 A 
ATOM     21  C   UNL     1      48.466   7.292  20.997  0.00  0.00    +0.000 A 
ATOM     22  C   UNL     1      47.738   7.661  19.884  0.00  0.00    +0.000 A 
ATOM     23  C   UNL     1      47.247   9.067  19.702  0.00  0.00    +0.000 C 
ATOM     24  N   UNL     1      47.404   6.783  18.920  0.00  0.00    +0.000 NA
ATOM     25  C   UNL     1      47.831   5.520  19.075  0.00  0.00    +0.000 A 
ATOM     26  N   UNL     1      48.544   5.067  20.121  0.00  0.00    +0.000 NA
ENDBRANCH  18  25
ENDBRANCH  15  18
ENDBRANCH   1  15
TORSDOF 5
ENDMDL
MODEL 7
REMARK VINA RESULT:    -5.674      5.206      7.567
REMARK INTER + INTRA:          -7.949
REMARK INTER:                  -7.396
REMARK INTRA:                  -0.553
REMARK UNBOUND:                -0.782
REMARK  Name = 
REMARK  7 active torsions:
REMARK  status: ('A' for Active; 'I' for Inactive)
REMARK    1  A    between atoms: C_1  and  C_2
REMARK    2  A    between atoms: C_4  and  C_5
REMARK    3  A    between atoms: C_7  and  O_8
REMARK    4  A    between atoms: O_8  and  C_9
REMARK    5  A    between atoms: C_9  and  C_10
REMARK    6  A    between atoms: C_14  and  C_15
REMARK    7  A    between atoms: C_19  and  O_20
REMARK                            x       y       z     vdW  Elec       q    Type
REMARK                         _______ _______ _______ _____ _____    ______ ____
ROOT
ATOM      1  C   UNL     1      49.224   6.738  15.431  0.00  0.00    +0.000 A 
ATOM      2  C   UNL     1      50.115   7.567  14.735  0.00  0.00    +0.000 A 
ATOM      3  C   UNL     1      49.925   7.855  13.384  0.00  0.00    +0.000 A 
ATOM      4  C   UNL     1      48.841   7.304  12.697  0.00  0.00    +0.000 A 
ATOM      5  C   UNL     1      47.916   6.470  13.345  0.00  0.00    +0.000 A 
ATOM      6  C   UNL     1      48.115   6.238  14.718  0.00  0.00    +0.000 A 
ENDROOT
BRANCH   5   7
ATOM      7  C   UNL     1      46.819   5.803  12.605  0.00  0.00    +0.000 A 
ATOM      8  C   UNL     1      46.126   6.444  11.561  0.00  0.00    +0.000 A 
ATOM      9  C   UNL     1      45.057   5.823  10.904  0.00  0.00    +0.000 A 
ATOM     10  C   UNL     1      44.668   4.535  11.262  0.00  0.00    +0.000 A 
ATOM     11  C   UNL     1      45.350   3.884  12.280  0.00  0.00    +0.000 A 
ATOM     12  C   UNL     1      46.398   4.506  12.952  0.00  0.00    +0.000 A 
BRANCH  11  13
ATOM     13  O   UNL     1      45.018   2.617  12.662  0.00  0.00    +0.000 OA
ATOM     14  H   UNL     1      44.599   2.168  11.911  0.00  0.00    +0.000 HD
ENDBRANCH  11  13
ENDBRANCH   5   7
BRANCH   1  15
ATOM     15  C   UNL     1      49.491   6.336  16.875  0.00  0.00    +0.000 C 
ATOM     16  C   UNL     1      50.777   5.571  17.198  0.00  0.00    +0.000 C 
ATOM     17  C   UNL     1      50.656   7.005  17.580  0.00  0.00    +0.000 C 
BRANCH  15  18
ATOM     18  O   UNL     1      48.382   5.774  17.610  0.00  0.00    +0.000 OA
BRANCH  18  25
ATOM     19  C   UNL     1      47.292   9.969  19.595  0.00  0.00    +0.000 C 
ATOM     20  C   UNL     1      47.456   8.481  19.709  0.00  0.00    +0.000 A 
ATOM     21  C   UNL     1      47.415   7.864  20.944  0.00  0.00    +0.000 A 
ATOM     22  C   UNL     1      47.641   6.502  20.962  0.00  0.00    +0.000 A 
ATOM     23  C   UNL     1      47.654   5.729  22.248  0.00  0.00    +0.000 C 
ATOM     24  N   UNL     1      47.889   5.800  19.841  0.00  0.00    +0.000 NA
ATOM     25  C   UNL     1      47.886   6.482  18.684  0.00  0.00    +0.000 A 
ATOM     26  N   UNL     1      47.677   7.804  18.566  0.00  0.00    +0.000 NA
ENDBRANCH  18  25
ENDBRANCH  15  18
ENDBRANCH   1  15
TORSDOF 5
ENDMDL
MODEL 8
REMARK VINA RESULT:    -5.658      5.257      7.694
REMARK INTER + INTRA:          -7.928
REMARK INTER:                  -7.609
REMARK INTRA:                  -0.319
REMARK UNBOUND:                -0.782
REMARK  Name = 
REMARK  7 active torsions:
REMARK  status: ('A' for Active; 'I' for Inactive)
REMARK    1  A    between atoms: C_1  and  C_2
REMARK    2  A    between atoms: C_4  and  C_5
REMARK    3  A    between atoms: C_7  and  O_8
REMARK    4  A    between atoms: O_8  and  C_9
REMARK    5  A    between atoms: C_9  and  C_10
REMARK    6  A    between atoms: C_14  and  C_15
REMARK    7  A    between atoms: C_19  and  O_20
REMARK                            x       y       z     vdW  Elec       q    Type
REMARK                         _______ _______ _______ _____ _____    ______ ____
ROOT
ATOM      1  C   UNL     1      47.711   5.353  15.327  0.00  0.00    +0.000 A 
ATOM      2  C   UNL     1      48.513   6.417  14.893  0.00  0.00    +0.000 A 
ATOM      3  C   UNL     1      48.374   6.947  13.610  0.00  0.00    +0.000 A 
ATOM      4  C   UNL     1      47.432   6.412  12.730  0.00  0.00    +0.000 A 
ATOM      5  C   UNL     1      46.599   5.349  13.114  0.00  0.00    +0.000 A 
ATOM      6  C   UNL     1      46.737   4.868  14.429  0.00  0.00    +0.000 A 
ENDROOT
BRANCH   5   7
ATOM      7  C   UNL     1      45.665   4.709  12.158  0.00  0.00    +0.000 A 
ATOM      8  C   UNL     1      45.472   5.208  10.856  0.00  0.00    +0.000 A 
ATOM      9  C   UNL     1      44.549   4.626   9.979  0.00  0.00    +0.000 A 
ATOM     10  C   UNL     1      43.809   3.516  10.377  0.00  0.00    +0.000 A 
ATOM     11  C   UNL     1      43.996   3.003  11.654  0.00  0.00    +0.000 A 
ATOM     12  C   UNL     1      44.897   3.593  12.537  0.00  0.00    +0.000 A 
BRANCH  11  13
ATOM     13  O   UNL     1      43.306   1.910  12.090  0.00  0.00    +0.000 OA
ATOM     14  H   UNL     1      43.199   1.977  13.052  0.00  0.00    +0.000 HD
ENDBRANCH  11  13
ENDBRANCH   5   7
BRANCH   1  15
ATOM     15  C   UNL     1      47.937   4.703  16.685  0.00  0.00    +0.000 C 
ATOM     16  C   UNL     1      47.077   3.497  17.074  0.00  0.00    +0.000 C 
ATOM     17  C   UNL     1      48.504   3.297  16.698  0.00  0.00    +0.000 C 
BRANCH  15  18
ATOM     18  O   UNL     1      48.085   5.591  17.815  0.00  0.00    +0.000 OA
BRANCH  18  25
ATOM     19  C   UNL     1      50.722   4.960  21.736  0.00  0.00    +0.000 C 
ATOM     20  C   UNL     1      50.585   5.468  20.330  0.00  0.00    +0.000 A 
ATOM     21  C   UNL     1      51.567   6.265  19.775  0.00  0.00    +0.000 A 
ATOM     22  C   UNL     1      51.328   6.743  18.501  0.00  0.00    +0.000 A 
ATOM     23  C   UNL     1      52.307   7.644  17.808  0.00  0.00    +0.000 C 
ATOM     24  N   UNL     1      50.200   6.454  17.825  0.00  0.00    +0.000 NA
ATOM     25  C   UNL     1      49.313   5.654  18.438  0.00  0.00    +0.000 A 
ATOM     26  N   UNL     1      49.457   5.141  19.672  0.00  0.00    +0.000 NA
ENDBRANCH  18  25
ENDBRANCH  15  18
ENDBRANCH   1  15
TORSDOF 5
ENDMDL
MODEL 9
REMARK VINA RESULT:    -5.507      3.161      4.449
REMARK INTER + INTRA:          -7.737
REMARK INTER:                  -7.344
REMARK INTRA:                  -0.393
REMARK UNBOUND:                -0.782
REMARK  Name = 
REMARK  7 active torsions:
REMARK  status: ('A' for Active; 'I' for Inactive)
REMARK    1  A    between atoms: C_1  and  C_2
REMARK    2  A    between atoms: C_4  and  C_5
REMARK    3  A    between atoms: C_7  and  O_8
REMARK    4  A    between atoms: O_8  and  C_9
REMARK    5  A    between atoms: C_9  and  C_10
REMARK    6  A    between atoms: C_14  and  C_15
REMARK    7  A    between atoms: C_19  and  O_20
REMARK                            x       y       z     vdW  Elec       q    Type
REMARK                         _______ _______ _______ _____ _____    ______ ____
ROOT
ATOM      1  C   UNL     1      47.692   8.860  12.585  0.00  0.00    +0.000 A 
ATOM      2  C   UNL     1      48.560   8.350  13.560  0.00  0.00    +0.000 A 
ATOM      3  C   UNL     1      48.391   7.064  14.073  0.00  0.00    +0.000 A 
ATOM      4  C   UNL     1      47.336   6.266  13.626  0.00  0.00    +0.000 A 
ATOM      5  C   UNL     1      46.439   6.725  12.649  0.00  0.00    +0.000 A 
ATOM      6  C   UNL     1      46.667   8.009  12.122  0.00  0.00    +0.000 A 
ENDROOT
BRANCH   5   7
ATOM      7  C   UNL     1      45.260   5.926  12.238  0.00  0.00    +0.000 A 
ATOM      8  C   UNL     1      44.177   6.498  11.545  0.00  0.00    +0.000 A 
ATOM      9  C   UNL     1      43.046   5.745  11.208  0.00  0.00    +0.000 A 
ATOM     10  C   UNL     1      42.980   4.394  11.537  0.00  0.00    +0.000 A 
ATOM     11  C   UNL     1      44.046   3.811  12.209  0.00  0.00    +0.000 A 
ATOM     12  C   UNL     1      45.163   4.561  12.567  0.00  0.00    +0.000 A 
BRANCH  11  13
ATOM     13  O   UNL     1      44.038   2.489  12.545  0.00  0.00    +0.000 OA
ATOM     14  H   UNL     1      44.770   2.049  12.083  0.00  0.00    +0.000 HD
ENDBRANCH  11  13
ENDBRANCH   5   7
BRANCH   1  15
ATOM     15  C   UNL     1      47.810  10.300  12.105  0.00  0.00    +0.000 C 
ATOM     16  C   UNL     1      49.134  11.039  12.321  0.00  0.00    +0.000 C 
ATOM     17  C   UNL     1      48.761  10.575  10.956  0.00  0.00    +0.000 C 
BRANCH  15  18
ATOM     18  O   UNL     1      46.700  11.177  12.398  0.00  0.00    +0.000 OA
BRANCH  18  25
ATOM     19  C   UNL     1      42.525   9.716  10.620  0.00  0.00    +0.000 C 
ATOM     20  C   UNL     1      43.761  10.560  10.507  0.00  0.00    +0.000 A 
ATOM     21  C   UNL     1      44.053  11.222   9.330  0.00  0.00    +0.000 A 
ATOM     22  C   UNL     1      45.243  11.921   9.293  0.00  0.00    +0.000 A 
ATOM     23  C   UNL     1      45.682  12.652   8.058  0.00  0.00    +0.000 C 
ATOM     24  N   UNL     1      46.085  11.963  10.343  0.00  0.00    +0.000 NA
ATOM     25  C   UNL     1      45.706  11.308  11.451  0.00  0.00    +0.000 A 
ATOM     26  N   UNL     1      44.569  10.602  11.583  0.00  0.00    +0.000 NA
ENDBRANCH  18  25
ENDBRANCH  15  18
ENDBRANCH   1  15
TORSDOF 5
ENDMDL
