MODEL 1
REMARK VINA RESULT:    -8.612      0.000      0.000
REMARK INTER + INTRA:         -13.207
REMARK INTER:                 -12.137
REMARK INTRA:                  -1.070
REMARK UNBOUND:                -1.070
REMARK  Name = 
REMARK  8 active torsions:
REMARK  status: ('A' for Active; 'I' for Inactive)
REMARK    1  A    between atoms: C_1  and  O_2
REMARK    2  A    between atoms: O_2  and  C_3
REMARK    3  A    between atoms: C_5  and  C_6
REMARK    4  A    between atoms: C_6  and  C_7
REMARK    5  A    between atoms: C_7  and  N_8
REMARK    6  A    between atoms: N_8  and  C_9
REMARK    7  A    between atoms: C_12  and  C_13
REMARK    8  A    between atoms: C_19  and  C_20
REMARK                            x       y       z     vdW  Elec       q    Type
REMARK                         _______ _______ _______ _____ _____    ______ ____
ROOT
ATOM      1  C   UNL     1      46.906   4.745  13.991  0.00  0.00    +0.000 A 
ATOM      2  C   UNL     1      45.575   4.525  13.620  0.00  0.00    +0.000 A 
ATOM      3  C   UNL     1      44.924   5.410  12.750  0.00  0.00    +0.000 A 
ATOM      4  C   UNL     1      45.657   6.497  12.244  0.00  0.00    +0.000 A 
ATOM      5  C   UNL     1      46.974   6.777  12.637  0.00  0.00    +0.000 A 
ATOM      6  C   UNL     1      47.591   5.859  13.494  0.00  0.00    +0.000 A 
ENDROOT
BRANCH   5   7
ATOM      7  C   UNL     1      47.625   8.045  12.243  0.00  0.00    +0.000 A 
ATOM      8  C   UNL     1      48.979   8.056  11.834  0.00  0.00    +0.000 A 
ATOM      9  C   UNL     1      49.595   9.220  11.372  0.00  0.00    +0.000 A 
ATOM     10  C   UNL     1      48.861  10.390  11.305  0.00  0.00    +0.000 A 
ATOM     11  F   UNL     1      49.434  11.499  10.823  0.00  0.00    +0.000 F 
ATOM     12  C   UNL     1      47.533  10.427  11.712  0.00  0.00    +0.000 A 
ATOM     13  C   UNL     1      46.922   9.261  12.190  0.00  0.00    +0.000 A 
ENDBRANCH   5   7
BRANCH   1  15
ATOM     14  C   UNL     1      47.343   4.106  16.239  0.00  0.00    +0.000 C 
ATOM     15  O   UNL     1      47.642   3.985  14.857  0.00  0.00    +0.000 OA
ENDBRANCH   1  15
BRANCH   3  16
ATOM     16  C   UNL     1      43.448   5.211  12.433  0.00  0.00    +0.000 C 
BRANCH  16  17
ATOM     17  C   UNL     1      43.202   4.314  11.215  0.00  0.00    +0.000 C 
BRANCH  17  18
ATOM     18  N   UNL     1      43.694   4.875   9.956  0.00  0.00    +0.000 N 
ATOM     19  H   UNL     1      44.028   5.832  10.060  0.00  0.00    +0.000 HD
BRANCH  18  20
ATOM     20  C   UNL     1      44.642   4.071   9.283  0.00  0.00    +0.000 A 
ATOM     21  C   UNL     1      44.671   2.674   9.388  0.00  0.00    +0.000 A 
ATOM     22  C   UNL     1      45.577   1.917   8.650  0.00  0.00    +0.000 A 
ATOM     23  C   UNL     1      46.426   2.578   7.782  0.00  0.00    +0.000 A 
ATOM     24  N   UNL     1      46.428   3.929   7.609  0.00  0.00    +0.000 NA
ATOM     25  C   UNL     1      45.527   4.625   8.351  0.00  0.00    +0.000 A 
BRANCH  23  26
ATOM     26  C   UNL     1      47.379   1.781   6.952  0.00  0.00    +0.000 C 
ATOM     27  N   UNL     1      48.442   2.477   6.442  0.00  0.00    +0.000 N 
ATOM     28  O   UNL     1      47.230   0.583   6.730  0.00  0.00    +0.000 OA
ATOM     29  H   UNL     1      48.515   3.473   6.618  0.00  0.00    +0.000 HD
ATOM     30  H   UNL     1      49.098   2.009   5.836  0.00  0.00    +0.000 HD
ENDBRANCH  23  26
ENDBRANCH  18  20
ENDBRANCH  17  18
ENDBRANCH  16  17
ENDBRANCH   3  16
TORSDOF 7
ENDMDL
MODEL 2
REMARK VINA RESULT:    -8.163      2.162      2.848
REMARK INTER + INTRA:         -12.574
REMARK INTER:                 -11.540
REMARK INTRA:                  -1.035
REMARK UNBOUND:                -1.070
REMARK  Name = 
REMARK  8 active torsions:
REMARK  status: ('A' for Active; 'I' for Inactive)
REMARK    1  A    between atoms: C_1  and  O_2
REMARK    2  A    between atoms: O_2  and  C_3
REMARK    3  A    between atoms: C_5  and  C_6
REMARK    4  A    between atoms: C_6  and  C_7
REMARK    5  A    between atoms: C_7  and  N_8
REMARK    6  A    between atoms: N_8  and  C_9
REMARK    7  A    between atoms: C_12  and  C_13
REMARK    8  A    between atoms: C_19  and  C_20
REMARK                            x       y       z     vdW  Elec       q    Type
REMARK                         _______ _______ _______ _____ _____    ______ ____
ROOT
ATOM      1  C   UNL     1      47.139   6.070  12.662  0.00  0.00    +0.000 A 
ATOM      2  C   UNL     1      46.206   5.046  12.855  0.00  0.00    +0.000 A 
ATOM      3  C   UNL     1      44.850   5.255  12.565  0.00  0.00    +0.000 A 
ATOM      4  C   UNL     1      44.471   6.506  12.048  0.00  0.00    +0.000 A 
ATOM      5  C   UNL     1      45.370   7.571  11.893  0.00  0.00    +0.000 A 
ATOM      6  C   UNL     1      46.716   7.314  12.180  0.00  0.00    +0.000 A 
ENDROOT
BRANCH   5   7
ATOM      7  C   UNL     1      44.885   8.925  11.551  0.00  0.00    +0.000 A 
ATOM      8  C   UNL     1      43.631   9.096  10.917  0.00  0.00    +0.000 A 
ATOM      9  C   UNL     1      43.106  10.363  10.663  0.00  0.00    +0.000 A 
ATOM     10  C   UNL     1      43.825  11.480  11.047  0.00  0.00    +0.000 A 
ATOM     11  F   UNL     1      43.308  12.698  10.843  0.00  0.00    +0.000 F 
ATOM     12  C   UNL     1      45.068  11.358  11.656  0.00  0.00    +0.000 A 
ATOM     13  C   UNL     1      45.600  10.084  11.896  0.00  0.00    +0.000 A 
ENDBRANCH   5   7
BRANCH   1  15
ATOM     14  C   UNL     1      49.241   7.179  12.688  0.00  0.00    +0.000 C 
ATOM     15  O   UNL     1      48.476   6.010  12.939  0.00  0.00    +0.000 OA
ENDBRANCH   1  15
BRANCH   3  16
ATOM     16  C   UNL     1      43.833   4.164  12.871  0.00  0.00    +0.000 C 
BRANCH  16  17
ATOM     17  C   UNL     1      43.667   3.149  11.735  0.00  0.00    +0.000 C 
BRANCH  17  18
ATOM     18  N   UNL     1      43.543   3.756  10.410  0.00  0.00    +0.000 N 
ATOM     19  H   UNL     1      43.436   4.769  10.454  0.00  0.00    +0.000 HD
BRANCH  18  20
ATOM     20  C   UNL     1      44.556   3.387   9.495  0.00  0.00    +0.000 A 
ATOM     21  C   UNL     1      45.003   2.068   9.342  0.00  0.00    +0.000 A 
ATOM     22  C   UNL     1      45.952   1.740   8.377  0.00  0.00    +0.000 A 
ATOM     23  C   UNL     1      46.416   2.744   7.548  0.00  0.00    +0.000 A 
ATOM     24  N   UNL     1      46.000   4.039   7.623  0.00  0.00    +0.000 NA
ATOM     25  C   UNL     1      45.075   4.312   8.581  0.00  0.00    +0.000 A 
BRANCH  23  26
ATOM     26  C   UNL     1      47.406   2.405   6.481  0.00  0.00    +0.000 C 
ATOM     27  N   UNL     1      47.348   3.181   5.355  0.00  0.00    +0.000 N 
ATOM     28  O   UNL     1      48.218   1.491   6.590  0.00  0.00    +0.000 OA
ATOM     29  H   UNL     1      46.642   3.905   5.285  0.00  0.00    +0.000 HD
ATOM     30  H   UNL     1      47.958   2.976   4.578  0.00  0.00    +0.000 HD
ENDBRANCH  23  26
ENDBRANCH  18  20
ENDBRANCH  17  18
ENDBRANCH  16  17
ENDBRANCH   3  16
TORSDOF 7
ENDMDL
MODEL 3
REMARK VINA RESULT:    -7.974      2.788      4.636
REMARK INTER + INTRA:         -12.308
REMARK INTER:                 -11.350
REMARK INTRA:                  -0.958
REMARK UNBOUND:                -1.070
REMARK  Name = 
REMARK  8 active torsions:
REMARK  status: ('A' for Active; 'I' for Inactive)
REMARK    1  A    between atoms: C_1  and  O_2
REMARK    2  A    between atoms: O_2  and  C_3
REMARK    3  A    between atoms: C_5  and  C_6
REMARK    4  A    between atoms: C_6  and  C_7
REMARK    5  A    between atoms: C_7  and  N_8
REMARK    6  A    between atoms: N_8  and  C_9
REMARK    7  A    between atoms: C_12  and  C_13
REMARK    8  A    between atoms: C_19  and  C_20
REMARK                            x       y       z     vdW  Elec       q    Type
REMARK                         _______ _______ _______ _____ _____    ______ ____
ROOT
ATOM      1  C   UNL     1      47.746   6.679  12.628  0.00  0.00    +0.000 A 
ATOM      2  C   UNL     1      46.640   6.093  12.001  0.00  0.00    +0.000 A 
ATOM      3  C   UNL     1      45.859   5.147  12.677  0.00  0.00    +0.000 A 
ATOM      4  C   UNL     1      46.202   4.833  14.004  0.00  0.00    +0.000 A 
ATOM      5  C   UNL     1      47.333   5.360  14.643  0.00  0.00    +0.000 A 
ATOM      6  C   UNL     1      48.077   6.313  13.937  0.00  0.00    +0.000 A 
ENDROOT
BRANCH   5   7
ATOM      7  C   UNL     1      47.770   4.838  15.956  0.00  0.00    +0.000 A 
ATOM      8  C   UNL     1      48.508   5.658  16.841  0.00  0.00    +0.000 A 
ATOM      9  C   UNL     1      48.855   5.226  18.122  0.00  0.00    +0.000 A 
ATOM     10  C   UNL     1      48.462   3.968  18.538  0.00  0.00    +0.000 A 
ATOM     11  F   UNL     1      48.758   3.563  19.779  0.00  0.00    +0.000 F 
ATOM     12  C   UNL     1      47.751   3.123  17.694  0.00  0.00    +0.000 A 
ATOM     13  C   UNL     1      47.417   3.554  16.404  0.00  0.00    +0.000 A 
ENDBRANCH   5   7
BRANCH   1  15
ATOM     14  C   UNL     1      49.616   8.118  12.915  0.00  0.00    +0.000 C 
ATOM     15  O   UNL     1      48.608   7.581  12.071  0.00  0.00    +0.000 OA
ENDBRANCH   1  15
BRANCH   3  16
ATOM     16  C   UNL     1      44.718   4.448  11.950  0.00  0.00    +0.000 C 
BRANCH  16  17
ATOM     17  C   UNL     1      43.990   5.350  10.948  0.00  0.00    +0.000 C 
BRANCH  17  18
ATOM     18  N   UNL     1      43.622   4.678   9.702  0.00  0.00    +0.000 N 
ATOM     19  H   UNL     1      43.154   5.302   9.046  0.00  0.00    +0.000 HD
BRANCH  18  20
ATOM     20  C   UNL     1      44.678   3.975   9.077  0.00  0.00    +0.000 A 
ATOM     21  C   UNL     1      44.773   2.577   9.081  0.00  0.00    +0.000 A 
ATOM     22  C   UNL     1      45.791   1.925   8.391  0.00  0.00    +0.000 A 
ATOM     23  C   UNL     1      46.687   2.692   7.670  0.00  0.00    +0.000 A 
ATOM     24  N   UNL     1      46.633   4.051   7.598  0.00  0.00    +0.000 NA
ATOM     25  C   UNL     1      45.622   4.643   8.289  0.00  0.00    +0.000 A 
BRANCH  23  26
ATOM     26  C   UNL     1      47.764   2.009   6.890  0.00  0.00    +0.000 C 
ATOM     27  N   UNL     1      48.678   2.837   6.297  0.00  0.00    +0.000 N 
ATOM     28  O   UNL     1      47.833   0.789   6.777  0.00  0.00    +0.000 OA
ATOM     29  H   UNL     1      48.570   3.841   6.384  0.00  0.00    +0.000 HD
ATOM     30  H   UNL     1      49.404   2.442   5.719  0.00  0.00    +0.000 HD
ENDBRANCH  23  26
ENDBRANCH  18  20
ENDBRANCH  17  18
ENDBRANCH  16  17
ENDBRANCH   3  16
TORSDOF 7
ENDMDL
MODEL 4
REMARK VINA RESULT:    -7.820      2.223      3.224
REMARK INTER + INTRA:         -12.090
REMARK INTER:                 -11.169
REMARK INTRA:                  -0.921
REMARK UNBOUND:                -1.070
REMARK  Name = 
REMARK  8 active torsions:
REMARK  status: ('A' for Active; 'I' for Inactive)
REMARK    1  A    between atoms: C_1  and  O_2
REMARK    2  A    between atoms: O_2  and  C_3
REMARK    3  A    between atoms: C_5  and  C_6
REMARK    4  A    between atoms: C_6  and  C_7
REMARK    5  A    between atoms: C_7  and  N_8
REMARK    6  A    between atoms: N_8  and  C_9
REMARK    7  A    between atoms: C_12  and  C_13
REMARK    8  A    between atoms: C_19  and  C_20
REMARK                            x       y       z     vdW  Elec       q    Type
REMARK                         _______ _______ _______ _____ _____    ______ ____
ROOT
ATOM      1  C   UNL     1      45.411   8.982  12.175  0.00  0.00    +0.000 A 
ATOM      2  C   UNL     1      44.995   7.650  12.074  0.00  0.00    +0.000 A 
ATOM      3  C   UNL     1      45.933   6.623  11.898  0.00  0.00    +0.000 A 
ATOM      4  C   UNL     1      47.294   6.972  11.861  0.00  0.00    +0.000 A 
ATOM      5  C   UNL     1      47.742   8.300  11.905  0.00  0.00    +0.000 A 
ATOM      6  C   UNL     1      46.773   9.292  12.096  0.00  0.00    +0.000 A 
ENDROOT
BRANCH   5   7
ATOM      7  C   UNL     1      49.161   8.627  11.647  0.00  0.00    +0.000 A 
ATOM      8  C   UNL     1      50.088   7.601  11.347  0.00  0.00    +0.000 A 
ATOM      9  C   UNL     1      51.412   7.885  11.011  0.00  0.00    +0.000 A 
ATOM     10  C   UNL     1      51.826   9.204  10.962  0.00  0.00    +0.000 A 
ATOM     11  F   UNL     1      53.084   9.485  10.601  0.00  0.00    +0.000 F 
ATOM     12  C   UNL     1      50.953  10.241  11.266  0.00  0.00    +0.000 A 
ATOM     13  C   UNL     1      49.629   9.952  11.618  0.00  0.00    +0.000 A 
ENDBRANCH   5   7
BRANCH   1  15
ATOM     14  C   UNL     1      45.051  11.288  11.723  0.00  0.00    +0.000 C 
ATOM     15  O   UNL     1      44.602  10.075  12.309  0.00  0.00    +0.000 OA
ENDBRANCH   1  15
BRANCH   3  16
ATOM     16  C   UNL     1      45.459   5.191  11.693  0.00  0.00    +0.000 C 
BRANCH  16  17
ATOM     17  C   UNL     1      43.987   5.089  11.279  0.00  0.00    +0.000 C 
BRANCH  17  18
ATOM     18  N   UNL     1      43.779   5.034   9.832  0.00  0.00    +0.000 N 
ATOM     19  H   UNL     1      43.853   5.950   9.393  0.00  0.00    +0.000 HD
BRANCH  18  20
ATOM     20  C   UNL     1      44.573   4.077   9.160  0.00  0.00    +0.000 A 
ATOM     21  C   UNL     1      45.596   4.424   8.267  0.00  0.00    +0.000 A 
ATOM     22  C   UNL     1      46.400   3.449   7.683  0.00  0.00    +0.000 A 
ATOM     23  C   UNL     1      46.188   2.129   8.036  0.00  0.00    +0.000 A 
ATOM     24  N   UNL     1      45.234   1.727   8.921  0.00  0.00    +0.000 NA
ATOM     25  C   UNL     1      44.472   2.714   9.463  0.00  0.00    +0.000 A 
BRANCH  23  26
ATOM     26  C   UNL     1      47.067   1.072   7.451  0.00  0.00    +0.000 C 
ATOM     27  N   UNL     1      48.097   1.525   6.672  0.00  0.00    +0.000 N 
ATOM     28  O   UNL     1      46.887  -0.127   7.643  0.00  0.00    +0.000 OA
ATOM     29  H   UNL     1      48.196   2.521   6.508  0.00  0.00    +0.000 HD
ATOM     30  H   UNL     1      48.701   0.862   6.211  0.00  0.00    +0.000 HD
ENDBRANCH  23  26
ENDBRANCH  18  20
ENDBRANCH  17  18
ENDBRANCH  16  17
ENDBRANCH   3  16
TORSDOF 7
ENDMDL
MODEL 5
REMARK VINA RESULT:    -7.300      2.574      3.583
REMARK INTER + INTRA:         -11.358
REMARK INTER:                 -10.664
REMARK INTRA:                  -0.694
REMARK UNBOUND:                -1.070
REMARK  Name = 
REMARK  8 active torsions:
REMARK  status: ('A' for Active; 'I' for Inactive)
REMARK    1  A    between atoms: C_1  and  O_2
REMARK    2  A    between atoms: O_2  and  C_3
REMARK    3  A    between atoms: C_5  and  C_6
REMARK    4  A    between atoms: C_6  and  C_7
REMARK    5  A    between atoms: C_7  and  N_8
REMARK    6  A    between atoms: N_8  and  C_9
REMARK    7  A    between atoms: C_12  and  C_13
REMARK    8  A    between atoms: C_19  and  C_20
REMARK                            x       y       z     vdW  Elec       q    Type
REMARK                         _______ _______ _______ _____ _____    ______ ____
ROOT
ATOM      1  C   UNL     1      45.485   7.944  12.450  0.00  0.00    +0.000 A 
ATOM      2  C   UNL     1      45.064   6.660  12.090  0.00  0.00    +0.000 A 
ATOM      3  C   UNL     1      45.770   5.531  12.528  0.00  0.00    +0.000 A 
ATOM      4  C   UNL     1      46.886   5.732  13.359  0.00  0.00    +0.000 A 
ATOM      5  C   UNL     1      47.367   7.006  13.694  0.00  0.00    +0.000 A 
ATOM      6  C   UNL     1      46.622   8.104  13.248  0.00  0.00    +0.000 A 
ENDROOT
BRANCH   5   7
ATOM      7  C   UNL     1      48.663   7.164  14.389  0.00  0.00    +0.000 A 
ATOM      8  C   UNL     1      48.876   6.557  15.649  0.00  0.00    +0.000 A 
ATOM      9  C   UNL     1      50.115   6.612  16.287  0.00  0.00    +0.000 A 
ATOM     10  C   UNL     1      51.163   7.271  15.670  0.00  0.00    +0.000 A 
ATOM     11  F   UNL     1      52.365   7.293  16.258  0.00  0.00    +0.000 F 
ATOM     12  C   UNL     1      50.991   7.896  14.441  0.00  0.00    +0.000 A 
ATOM     13  C   UNL     1      49.742   7.852  13.809  0.00  0.00    +0.000 A 
ENDBRANCH   5   7
BRANCH   1  15
ATOM     14  C   UNL     1      45.782  10.222  11.836  0.00  0.00    +0.000 C 
ATOM     15  O   UNL     1      44.912   9.123  12.062  0.00  0.00    +0.000 OA
ENDBRANCH   1  15
BRANCH   3  16
ATOM     16  C   UNL     1      45.356   4.146  12.049  0.00  0.00    +0.000 C 
BRANCH  16  17
ATOM     17  C   UNL     1      43.865   4.037  11.715  0.00  0.00    +0.000 C 
BRANCH  17  18
ATOM     18  N   UNL     1      43.554   4.266  10.303  0.00  0.00    +0.000 N 
ATOM     19  H   UNL     1      43.409   5.253  10.092  0.00  0.00    +0.000 HD
BRANCH  18  20
ATOM     20  C   UNL     1      44.464   3.676   9.397  0.00  0.00    +0.000 A 
ATOM     21  C   UNL     1      45.300   4.424   8.557  0.00  0.00    +0.000 A 
ATOM     22  C   UNL     1      46.232   3.800   7.732  0.00  0.00    +0.000 A 
ATOM     23  C   UNL     1      46.338   2.423   7.789  0.00  0.00    +0.000 A 
ATOM     24  N   UNL     1      45.579   1.640   8.605  0.00  0.00    +0.000 NA
ATOM     25  C   UNL     1      44.682   2.293   9.391  0.00  0.00    +0.000 A 
BRANCH  23  26
ATOM     26  C   UNL     1      47.360   1.738   6.941  0.00  0.00    +0.000 C 
ATOM     27  N   UNL     1      48.417   2.514   6.550  0.00  0.00    +0.000 N 
ATOM     28  O   UNL     1      47.268   0.561   6.606  0.00  0.00    +0.000 OA
ATOM     29  H   UNL     1      48.444   3.492   6.818  0.00  0.00    +0.000 HD
ATOM     30  H   UNL     1      49.120   2.125   5.939  0.00  0.00    +0.000 HD
ENDBRANCH  23  26
ENDBRANCH  18  20
ENDBRANCH  17  18
ENDBRANCH  16  17
ENDBRANCH   3  16
TORSDOF 7
ENDMDL
MODEL 6
REMARK VINA RESULT:    -7.291      4.029      7.467
REMARK INTER + INTRA:         -11.345
REMARK INTER:                 -10.089
REMARK INTRA:                  -1.256
REMARK UNBOUND:                -1.070
REMARK  Name = 
REMARK  8 active torsions:
REMARK  status: ('A' for Active; 'I' for Inactive)
REMARK    1  A    between atoms: C_1  and  O_2
REMARK    2  A    between atoms: O_2  and  C_3
REMARK    3  A    between atoms: C_5  and  C_6
REMARK    4  A    between atoms: C_6  and  C_7
REMARK    5  A    between atoms: C_7  and  N_8
REMARK    6  A    between atoms: N_8  and  C_9
REMARK    7  A    between atoms: C_12  and  C_13
REMARK    8  A    between atoms: C_19  and  C_20
REMARK                            x       y       z     vdW  Elec       q    Type
REMARK                         _______ _______ _______ _____ _____    ______ ____
ROOT
ATOM      1  C   UNL     1      43.871   5.561  11.881  0.00  0.00    +0.000 A 
ATOM      2  C   UNL     1      44.745   6.623  12.135  0.00  0.00    +0.000 A 
ATOM      3  C   UNL     1      45.873   6.824  11.328  0.00  0.00    +0.000 A 
ATOM      4  C   UNL     1      46.075   5.949  10.246  0.00  0.00    +0.000 A 
ATOM      5  C   UNL     1      45.250   4.844   9.996  0.00  0.00    +0.000 A 
ATOM      6  C   UNL     1      44.127   4.690  10.817  0.00  0.00    +0.000 A 
ENDROOT
BRANCH   5   7
ATOM      7  C   UNL     1      45.626   3.836   8.980  0.00  0.00    +0.000 A 
ATOM      8  C   UNL     1      46.214   4.238   7.758  0.00  0.00    +0.000 A 
ATOM      9  C   UNL     1      46.661   3.308   6.820  0.00  0.00    +0.000 A 
ATOM     10  C   UNL     1      46.533   1.959   7.095  0.00  0.00    +0.000 A 
ATOM     11  F   UNL     1      46.997   1.061   6.218  0.00  0.00    +0.000 F 
ATOM     12  C   UNL     1      45.946   1.521   8.276  0.00  0.00    +0.000 A 
ATOM     13  C   UNL     1      45.484   2.457   9.209  0.00  0.00    +0.000 A 
ENDBRANCH   5   7
BRANCH   1  15
ATOM     14  C   UNL     1      42.929   4.275  13.644  0.00  0.00    +0.000 C 
ATOM     15  O   UNL     1      42.762   5.232  12.610  0.00  0.00    +0.000 OA
ENDBRANCH   1  15
BRANCH   3  16
ATOM     16  C   UNL     1      46.867   7.924  11.676  0.00  0.00    +0.000 C 
BRANCH  16  17
ATOM     17  C   UNL     1      47.167   8.024  13.175  0.00  0.00    +0.000 C 
BRANCH  17  18
ATOM     18  N   UNL     1      48.311   7.221  13.607  0.00  0.00    +0.000 N 
ATOM     19  H   UNL     1      49.117   7.794  13.855  0.00  0.00    +0.000 HD
BRANCH  18  20
ATOM     20  C   UNL     1      48.021   6.278  14.619  0.00  0.00    +0.000 A 
ATOM     21  C   UNL     1      47.200   5.162  14.411  0.00  0.00    +0.000 A 
ATOM     22  C   UNL     1      47.001   4.220  15.416  0.00  0.00    +0.000 A 
ATOM     23  C   UNL     1      47.664   4.394  16.617  0.00  0.00    +0.000 A 
ATOM     24  N   UNL     1      48.501   5.439  16.873  0.00  0.00    +0.000 NA
ATOM     25  C   UNL     1      48.662   6.333  15.862  0.00  0.00    +0.000 A 
BRANCH  23  26
ATOM     26  C   UNL     1      47.495   3.374  17.695  0.00  0.00    +0.000 C 
ATOM     27  N   UNL     1      48.328   3.510  18.772  0.00  0.00    +0.000 N 
ATOM     28  O   UNL     1      46.672   2.466  17.630  0.00  0.00    +0.000 OA
ATOM     29  H   UNL     1      49.019   4.252  18.776  0.00  0.00    +0.000 HD
ATOM     30  H   UNL     1      48.296   2.828  19.515  0.00  0.00    +0.000 HD
ENDBRANCH  23  26
ENDBRANCH  18  20
ENDBRANCH  17  18
ENDBRANCH  16  17
ENDBRANCH   3  16
TORSDOF 7
ENDMDL
MODEL 7
REMARK VINA RESULT:    -6.922      4.678      7.819
REMARK INTER + INTRA:         -10.825
REMARK INTER:                  -9.593
REMARK INTRA:                  -1.233
REMARK UNBOUND:                -1.070
REMARK  Name = 
REMARK  8 active torsions:
REMARK  status: ('A' for Active; 'I' for Inactive)
REMARK    1  A    between atoms: C_1  and  O_2
REMARK    2  A    between atoms: O_2  and  C_3
REMARK    3  A    between atoms: C_5  and  C_6
REMARK    4  A    between atoms: C_6  and  C_7
REMARK    5  A    between atoms: C_7  and  N_8
REMARK    6  A    between atoms: N_8  and  C_9
REMARK    7  A    between atoms: C_12  and  C_13
REMARK    8  A    between atoms: C_19  and  C_20
REMARK                            x       y       z     vdW  Elec       q    Type
REMARK                         _______ _______ _______ _____ _____    ______ ____
ROOT
ATOM      1  C   UNL     1      45.578   9.588  12.030  0.00  0.00    +0.000 A 
ATOM      2  C   UNL     1      46.973   9.622  12.119  0.00  0.00    +0.000 A 
ATOM      3  C   UNL     1      47.722   8.442  12.006  0.00  0.00    +0.000 A 
ATOM      4  C   UNL     1      47.030   7.241  11.770  0.00  0.00    +0.000 A 
ATOM      5  C   UNL     1      45.631   7.163  11.730  0.00  0.00    +0.000 A 
ATOM      6  C   UNL     1      44.924   8.367  11.832  0.00  0.00    +0.000 A 
ENDROOT
BRANCH   5   7
ATOM      7  C   UNL     1      44.949   5.852  11.695  0.00  0.00    +0.000 A 
ATOM      8  C   UNL     1      45.622   4.685  12.127  0.00  0.00    +0.000 A 
ATOM      9  C   UNL     1      44.977   3.449  12.191  0.00  0.00    +0.000 A 
ATOM     10  C   UNL     1      43.645   3.365  11.830  0.00  0.00    +0.000 A 
ATOM     11  F   UNL     1      43.009   2.191  11.927  0.00  0.00    +0.000 F 
ATOM     12  C   UNL     1      42.951   4.483  11.383  0.00  0.00    +0.000 A 
ATOM     13  C   UNL     1      43.605   5.719  11.306  0.00  0.00    +0.000 A 
ENDBRANCH   5   7
BRANCH   1  15
ATOM     14  C   UNL     1      43.982  11.028  11.014  0.00  0.00    +0.000 C 
ATOM     15  O   UNL     1      44.732  10.653  12.160  0.00  0.00    +0.000 OA
ENDBRANCH   1  15
BRANCH   3  16
ATOM     16  C   UNL     1      49.232   8.482  12.201  0.00  0.00    +0.000 C 
BRANCH  16  17
ATOM     17  C   UNL     1      49.730   7.535  13.298  0.00  0.00    +0.000 C 
BRANCH  17  18
ATOM     18  N   UNL     1      49.232   7.862  14.635  0.00  0.00    +0.000 N 
ATOM     19  H   UNL     1      48.462   8.530  14.611  0.00  0.00    +0.000 HD
BRANCH  18  20
ATOM     20  C   UNL     1      48.915   6.742  15.436  0.00  0.00    +0.000 A 
ATOM     21  C   UNL     1      49.320   6.617  16.771  0.00  0.00    +0.000 A 
ATOM     22  C   UNL     1      48.922   5.529  17.544  0.00  0.00    +0.000 A 
ATOM     23  C   UNL     1      48.085   4.591  16.969  0.00  0.00    +0.000 A 
ATOM     24  N   UNL     1      47.629   4.668  15.688  0.00  0.00    +0.000 NA
ATOM     25  C   UNL     1      48.045   5.747  14.973  0.00  0.00    +0.000 A 
BRANCH  23  26
ATOM     26  C   UNL     1      47.615   3.436  17.794  0.00  0.00    +0.000 C 
ATOM     27  N   UNL     1      48.405   3.116  18.864  0.00  0.00    +0.000 N 
ATOM     28  O   UNL     1      46.594   2.806  17.537  0.00  0.00    +0.000 OA
ATOM     29  H   UNL     1      49.259   3.638  19.027  0.00  0.00    +0.000 HD
ATOM     30  H   UNL     1      48.169   2.319  19.436  0.00  0.00    +0.000 HD
ENDBRANCH  23  26
ENDBRANCH  18  20
ENDBRANCH  17  18
ENDBRANCH  16  17
ENDBRANCH   3  16
TORSDOF 7
ENDMDL
MODEL 8
REMARK VINA RESULT:    -6.571      3.789      6.642
REMARK INTER + INTRA:         -10.330
REMARK INTER:                  -9.129
REMARK INTRA:                  -1.200
REMARK UNBOUND:                -1.070
REMARK  Name = 
REMARK  8 active torsions:
REMARK  status: ('A' for Active; 'I' for Inactive)
REMARK    1  A    between atoms: C_1  and  O_2
REMARK    2  A    between atoms: O_2  and  C_3
REMARK    3  A    between atoms: C_5  and  C_6
REMARK    4  A    between atoms: C_6  and  C_7
REMARK    5  A    between atoms: C_7  and  N_8
REMARK    6  A    between atoms: N_8  and  C_9
REMARK    7  A    between atoms: C_12  and  C_13
REMARK    8  A    between atoms: C_19  and  C_20
REMARK                            x       y       z     vdW  Elec       q    Type
REMARK                         _______ _______ _______ _____ _____    ______ ____
ROOT
ATOM      1  C   UNL     1      45.062   4.518  12.875  0.00  0.00    +0.000 A 
ATOM      2  C   UNL     1      44.316   5.692  12.727  0.00  0.00    +0.000 A 
ATOM      3  C   UNL     1      43.885   6.107  11.460  0.00  0.00    +0.000 A 
ATOM      4  C   UNL     1      44.199   5.293  10.357  0.00  0.00    +0.000 A 
ATOM      5  C   UNL     1      44.990   4.140  10.462  0.00  0.00    +0.000 A 
ATOM      6  C   UNL     1      45.386   3.755  11.748  0.00  0.00    +0.000 A 
ENDROOT
BRANCH   5   7
ATOM      7  C   UNL     1      45.469   3.441   9.250  0.00  0.00    +0.000 A 
ATOM      8  C   UNL     1      45.946   4.179   8.141  0.00  0.00    +0.000 A 
ATOM      9  C   UNL     1      46.487   3.548   7.020  0.00  0.00    +0.000 A 
ATOM     10  C   UNL     1      46.566   2.168   6.996  0.00  0.00    +0.000 A 
ATOM     11  F   UNL     1      47.122   1.559   5.942  0.00  0.00    +0.000 F 
ATOM     12  C   UNL     1      46.094   1.405   8.057  0.00  0.00    +0.000 A 
ATOM     13  C   UNL     1      45.538   2.040   9.174  0.00  0.00    +0.000 A 
ENDBRANCH   5   7
BRANCH   1  15
ATOM     14  C   UNL     1      46.896   4.411  14.384  0.00  0.00    +0.000 C 
ATOM     15  O   UNL     1      45.573   4.025  14.042  0.00  0.00    +0.000 OA
ENDBRANCH   1  15
BRANCH   3  16
ATOM     16  C   UNL     1      43.157   7.435  11.304  0.00  0.00    +0.000 C 
BRANCH  16  17
ATOM     17  C   UNL     1      44.101   8.633  11.149  0.00  0.00    +0.000 C 
BRANCH  17  18
ATOM     18  N   UNL     1      44.843   8.965  12.366  0.00  0.00    +0.000 N 
ATOM     19  H   UNL     1      44.561   8.394  13.162  0.00  0.00    +0.000 HD
BRANCH  18  20
ATOM     20  C   UNL     1      46.248   8.976  12.214  0.00  0.00    +0.000 A 
ATOM     21  C   UNL     1      47.014   7.808  12.103  0.00  0.00    +0.000 A 
ATOM     22  C   UNL     1      48.387   7.868  11.882  0.00  0.00    +0.000 A 
ATOM     23  C   UNL     1      48.972   9.112  11.737  0.00  0.00    +0.000 A 
ATOM     24  N   UNL     1      48.281  10.285  11.802  0.00  0.00    +0.000 NA
ATOM     25  C   UNL     1      46.944  10.175  12.021  0.00  0.00    +0.000 A 
BRANCH  23  26
ATOM     26  C   UNL     1      50.438   9.197  11.459  0.00  0.00    +0.000 C 
ATOM     27  N   UNL     1      50.855  10.342  10.837  0.00  0.00    +0.000 N 
ATOM     28  O   UNL     1      51.226   8.306  11.760  0.00  0.00    +0.000 OA
ATOM     29  H   UNL     1      50.171  11.043  10.574  0.00  0.00    +0.000 HD
ATOM     30  H   UNL     1      51.825  10.444  10.580  0.00  0.00    +0.000 HD
ENDBRANCH  23  26
ENDBRANCH  18  20
ENDBRANCH  17  18
ENDBRANCH  16  17
ENDBRANCH   3  16
TORSDOF 7
ENDMDL
MODEL 9
REMARK VINA RESULT:    -6.538      4.478      7.041
REMARK INTER + INTRA:         -10.284
REMARK INTER:                  -9.536
REMARK INTRA:                  -0.748
REMARK UNBOUND:                -1.070
REMARK  Name = 
REMARK  8 active torsions:
REMARK  status: ('A' for Active; 'I' for Inactive)
REMARK    1  A    between atoms: C_1  and  O_2
REMARK    2  A    between atoms: O_2  and  C_3
REMARK    3  A    between atoms: C_5  and  C_6
REMARK    4  A    between atoms: C_6  and  C_7
REMARK    5  A    between atoms: C_7  and  N_8
REMARK    6  A    between atoms: N_8  and  C_9
REMARK    7  A    between atoms: C_12  and  C_13
REMARK    8  A    between atoms: C_19  and  C_20
REMARK                            x       y       z     vdW  Elec       q    Type
REMARK                         _______ _______ _______ _____ _____    ______ ____
ROOT
ATOM      1  C   UNL     1      44.295   5.171  11.662  0.00  0.00    +0.000 A 
ATOM      2  C   UNL     1      45.313   4.830  12.559  0.00  0.00    +0.000 A 
ATOM      3  C   UNL     1      46.102   5.826  13.150  0.00  0.00    +0.000 A 
ATOM      4  C   UNL     1      45.816   7.167  12.839  0.00  0.00    +0.000 A 
ATOM      5  C   UNL     1      44.840   7.540  11.904  0.00  0.00    +0.000 A 
ATOM      6  C   UNL     1      44.065   6.515  11.349  0.00  0.00    +0.000 A 
ENDROOT
BRANCH   5   7
ATOM      7  C   UNL     1      44.724   8.944  11.454  0.00  0.00    +0.000 A 
ATOM      8  C   UNL     1      45.674   9.908  11.869  0.00  0.00    +0.000 A 
ATOM      9  C   UNL     1      45.644  11.218  11.390  0.00  0.00    +0.000 A 
ATOM     10  C   UNL     1      44.666  11.581  10.482  0.00  0.00    +0.000 A 
ATOM     11  F   UNL     1      44.657  12.825   9.987  0.00  0.00    +0.000 F 
ATOM     12  C   UNL     1      43.704  10.671  10.061  0.00  0.00    +0.000 A 
ATOM     13  C   UNL     1      43.728   9.361  10.556  0.00  0.00    +0.000 A 
ENDBRANCH   5   7
BRANCH   1  15
ATOM     14  C   UNL     1      43.421   2.968  11.475  0.00  0.00    +0.000 C 
ATOM     15  O   UNL     1      43.483   4.301  10.990  0.00  0.00    +0.000 OA
ENDBRANCH   1  15
BRANCH   3  16
ATOM     16  C   UNL     1      47.268   5.435  14.048  0.00  0.00    +0.000 C 
BRANCH  16  17
ATOM     17  C   UNL     1      46.880   4.449  15.156  0.00  0.00    +0.000 C 
BRANCH  17  18
ATOM     18  N   UNL     1      47.517   4.723  16.444  0.00  0.00    +0.000 N 
ATOM     19  H   UNL     1      46.861   4.668  17.222  0.00  0.00    +0.000 HD
BRANCH  18  20
ATOM     20  C   UNL     1      48.681   3.963  16.700  0.00  0.00    +0.000 A 
ATOM     21  C   UNL     1      49.790   4.473  17.388  0.00  0.00    +0.000 A 
ATOM     22  C   UNL     1      50.886   3.665  17.680  0.00  0.00    +0.000 A 
ATOM     23  C   UNL     1      50.837   2.335  17.307  0.00  0.00    +0.000 A 
ATOM     24  N   UNL     1      49.777   1.769  16.664  0.00  0.00    +0.000 NA
ATOM     25  C   UNL     1      48.732   2.597  16.399  0.00  0.00    +0.000 A 
BRANCH  23  26
ATOM     26  C   UNL     1      51.986   1.443  17.647  0.00  0.00    +0.000 C 
ATOM     27  N   UNL     1      51.650   0.201  18.114  0.00  0.00    +0.000 N 
ATOM     28  O   UNL     1      53.157   1.788  17.524  0.00  0.00    +0.000 OA
ATOM     29  H   UNL     1      50.672  -0.038  18.234  0.00  0.00    +0.000 HD
ATOM     30  H   UNL     1      52.378  -0.434  18.404  0.00  0.00    +0.000 HD
ENDBRANCH  23  26
ENDBRANCH  18  20
ENDBRANCH  17  18
ENDBRANCH  16  17
ENDBRANCH   3  16
TORSDOF 7
ENDMDL
