MODEL 1
REMARK VINA RESULT:    -8.248      0.000      0.000
REMARK INTER + INTRA:         -10.129
REMARK INTER:                 -10.177
REMARK INTRA:                   0.048
REMARK UNBOUND:                 0.048
REMARK  Name = 
REMARK  4 active torsions:
REMARK  status: ('A' for Active; 'I' for Inactive)
REMARK    1  A    between atoms: C_2  and  C_4
REMARK    2  A    between atoms: C_8  and  C_9
REMARK    3  A    between atoms: C_9  and  N_10
REMARK    4  A    between atoms: C_15  and  C_16
REMARK                            x       y       z     vdW  Elec       q    Type
REMARK                         _______ _______ _______ _____ _____    ______ ____
ROOT
ATOM      1  N   UNL     1      45.247   2.664  12.267  0.00  0.00    +0.000 N 
ATOM      2  C   UNL     1      45.864   3.770  12.855  0.00  0.00    +0.000 A 
ATOM      3  N   UNL     1      45.880   4.937  12.199  0.00  0.00    +0.000 NA
ATOM      4  C   UNL     1      46.534   5.958  12.768  0.00  0.00    +0.000 A 
ATOM      5  C   UNL     1      47.150   5.870  13.990  0.00  0.00    +0.000 A 
ATOM      6  C   UNL     1      47.081   4.645  14.622  0.00  0.00    +0.000 A 
ATOM      7  N   UNL     1      46.474   3.583  14.036  0.00  0.00    +0.000 NA
ATOM      8  H   UNL     1      46.004   2.116  11.873  0.00  0.00    +0.000 HD
ENDROOT
BRANCH   6   9
ATOM      9  C   UNL     1      47.684   4.420  15.951  0.00  0.00    +0.000 A 
ATOM     10  C   UNL     1      47.702   3.160  16.577  0.00  0.00    +0.000 A 
ATOM     11  C   UNL     1      48.232   3.000  17.856  0.00  0.00    +0.000 A 
ATOM     12  C   UNL     1      48.750   4.116  18.491  0.00  0.00    +0.000 A 
ATOM     13  N   UNL     1      48.782   5.339  17.932  0.00  0.00    +0.000 NA
ATOM     14  C   UNL     1      48.261   5.459  16.683  0.00  0.00    +0.000 A 
ENDBRANCH   6   9
BRANCH   1  15
ATOM     15  C   UNL     1      44.274   3.035  11.239  0.00  0.00    +0.000 C 
BRANCH  15  20
ATOM     16  C   UNL     1      46.202   2.330   8.147  0.00  0.00    +0.000 A 
ATOM     17  C   UNL     1      46.245   3.543   7.478  0.00  0.00    +0.000 A 
ATOM     18  C   UNL     1      45.594   4.630   8.047  0.00  0.00    +0.000 A 
ATOM     19  C   UNL     1      44.935   4.468   9.263  0.00  0.00    +0.000 A 
ATOM     20  C   UNL     1      44.925   3.212   9.874  0.00  0.00    +0.000 A 
ATOM     21  N   UNL     1      45.543   2.128   9.323  0.00  0.00    +0.000 NA
BRANCH  16  23
ATOM     22  N   UNL     1      46.559  -0.068   7.887  0.00  0.00    +0.000 NA
ATOM     23  C   UNL     1      46.936   1.136   7.592  0.00  0.00    +0.000 C 
ATOM     24  N   UNL     1      48.017   1.329   6.774  0.00  0.00    +0.000 N 
ATOM     25  H   UNL     1      47.150  -0.732   7.383  0.00  0.00    +0.000 HD
ATOM     26  H   UNL     1      48.733   0.616   6.799  0.00  0.00    +0.000 HD
ATOM     27  H   UNL     1      48.388   2.278   6.817  0.00  0.00    +0.000 HD
ENDBRANCH  16  23
ENDBRANCH  15  20
ENDBRANCH   1  15
TORSDOF 4
ENDMDL
MODEL 2
REMARK VINA RESULT:    -7.927      2.569      3.608
REMARK INTER + INTRA:          -9.733
REMARK INTER:                  -9.178
REMARK INTRA:                  -0.555
REMARK UNBOUND:                 0.048
REMARK  Name = 
REMARK  4 active torsions:
REMARK  status: ('A' for Active; 'I' for Inactive)
REMARK    1  A    between atoms: C_2  and  C_4
REMARK    2  A    between atoms: C_8  and  C_9
REMARK    3  A    between atoms: C_9  and  N_10
REMARK    4  A    between atoms: C_15  and  C_16
REMARK                            x       y       z     vdW  Elec       q    Type
REMARK                         _______ _______ _______ _____ _____    ______ ____
ROOT
ATOM      1  N   UNL     1      45.074   5.601   9.726  0.00  0.00    +0.000 N 
ATOM      2  C   UNL     1      45.525   5.491  11.042  0.00  0.00    +0.000 A 
ATOM      3  N   UNL     1      44.850   4.721  11.904  0.00  0.00    +0.000 NA
ATOM      4  C   UNL     1      45.278   4.689  13.173  0.00  0.00    +0.000 A 
ATOM      5  C   UNL     1      46.382   5.374  13.612  0.00  0.00    +0.000 A 
ATOM      6  C   UNL     1      47.044   6.134  12.669  0.00  0.00    +0.000 A 
ATOM      7  N   UNL     1      46.593   6.225  11.393  0.00  0.00    +0.000 NA
ATOM      8  H   UNL     1      44.571   6.482   9.690  0.00  0.00    +0.000 HD
ENDROOT
BRANCH   6   9
ATOM      9  C   UNL     1      48.259   6.902  13.004  0.00  0.00    +0.000 A 
ATOM     10  C   UNL     1      48.954   7.680  12.059  0.00  0.00    +0.000 A 
ATOM     11  C   UNL     1      50.129   8.348  12.401  0.00  0.00    +0.000 A 
ATOM     12  C   UNL     1      50.588   8.232  13.703  0.00  0.00    +0.000 A 
ATOM     13  N   UNL     1      49.954   7.524  14.653  0.00  0.00    +0.000 NA
ATOM     14  C   UNL     1      48.810   6.889  14.286  0.00  0.00    +0.000 A 
ENDBRANCH   6   9
BRANCH   1  15
ATOM     15  C   UNL     1      44.213   4.488   9.323  0.00  0.00    +0.000 C 
BRANCH  15  20
ATOM     16  C   UNL     1      46.623   2.481   7.339  0.00  0.00    +0.000 A 
ATOM     17  C   UNL     1      46.380   1.170   7.716  0.00  0.00    +0.000 A 
ATOM     18  C   UNL     1      45.407   0.934   8.678  0.00  0.00    +0.000 A 
ATOM     19  C   UNL     1      44.709   2.010   9.219  0.00  0.00    +0.000 A 
ATOM     20  C   UNL     1      45.016   3.307   8.798  0.00  0.00    +0.000 A 
ATOM     21  N   UNL     1      45.981   3.561   7.868  0.00  0.00    +0.000 NA
BRANCH  16  23
ATOM     22  N   UNL     1      48.867   2.400   6.389  0.00  0.00    +0.000 NA
ATOM     23  C   UNL     1      47.635   2.781   6.263  0.00  0.00    +0.000 C 
ATOM     24  N   UNL     1      47.247   3.471   5.145  0.00  0.00    +0.000 N 
ATOM     25  H   UNL     1      49.380   2.657   5.543  0.00  0.00    +0.000 HD
ATOM     26  H   UNL     1      47.953   4.043   4.702  0.00  0.00    +0.000 HD
ATOM     27  H   UNL     1      46.353   3.946   5.258  0.00  0.00    +0.000 HD
ENDBRANCH  16  23
ENDBRANCH  15  20
ENDBRANCH   1  15
TORSDOF 4
ENDMDL
MODEL 3
REMARK VINA RESULT:    -7.806      1.937      3.914
REMARK INTER + INTRA:          -9.584
REMARK INTER:                  -9.134
REMARK INTRA:                  -0.449
REMARK UNBOUND:                 0.048
REMARK  Name = 
REMARK  4 active torsions:
REMARK  status: ('A' for Active; 'I' for Inactive)
REMARK    1  A    between atoms: C_2  and  C_4
REMARK    2  A    between atoms: C_8  and  C_9
REMARK    3  A    between atoms: C_9  and  N_10
REMARK    4  A    between atoms: C_15  and  C_16
REMARK                            x       y       z     vdW  Elec       q    Type
REMARK                         _______ _______ _______ _____ _____    ______ ____
ROOT
ATOM      1  N   UNL     1      46.372   4.527  14.977  0.00  0.00    +0.000 N 
ATOM      2  C   UNL     1      47.274   4.012  15.910  0.00  0.00    +0.000 A 
ATOM      3  N   UNL     1      47.961   2.902  15.613  0.00  0.00    +0.000 NA
ATOM      4  C   UNL     1      48.772   2.405  16.557  0.00  0.00    +0.000 A 
ATOM      5  C   UNL     1      48.951   2.994  17.782  0.00  0.00    +0.000 A 
ATOM      6  C   UNL     1      48.227   4.145  18.018  0.00  0.00    +0.000 A 
ATOM      7  N   UNL     1      47.358   4.632  17.097  0.00  0.00    +0.000 NA
ATOM      8  H   UNL     1      45.459   4.211  15.289  0.00  0.00    +0.000 HD
ENDROOT
BRANCH   6   9
ATOM      9  C   UNL     1      48.343   4.890  19.287  0.00  0.00    +0.000 A 
ATOM     10  C   UNL     1      48.882   4.324  20.457  0.00  0.00    +0.000 A 
ATOM     11  C   UNL     1      48.923   5.043  21.651  0.00  0.00    +0.000 A 
ATOM     12  C   UNL     1      48.428   6.336  21.650  0.00  0.00    +0.000 A 
ATOM     13  N   UNL     1      47.924   6.937  20.558  0.00  0.00    +0.000 NA
ATOM     14  C   UNL     1      47.902   6.209  19.410  0.00  0.00    +0.000 A 
ENDBRANCH   6   9
BRANCH   1  15
ATOM     15  C   UNL     1      46.646   4.078  13.612  0.00  0.00    +0.000 C 
BRANCH  15  20
ATOM     16  C   UNL     1      44.359   3.598  10.728  0.00  0.00    +0.000 A 
ATOM     17  C   UNL     1      43.217   4.307  11.066  0.00  0.00    +0.000 A 
ATOM     18  C   UNL     1      43.182   4.946  12.298  0.00  0.00    +0.000 A 
ATOM     19  C   UNL     1      44.288   4.862  13.141  0.00  0.00    +0.000 A 
ATOM     20  C   UNL     1      45.401   4.119  12.737  0.00  0.00    +0.000 A 
ATOM     21  N   UNL     1      45.447   3.469  11.539  0.00  0.00    +0.000 NA
BRANCH  16  23
ATOM     22  N   UNL     1      44.682   1.657   9.289  0.00  0.00    +0.000 NA
ATOM     23  C   UNL     1      44.461   2.930   9.381  0.00  0.00    +0.000 C 
ATOM     24  N   UNL     1      44.326   3.681   8.244  0.00  0.00    +0.000 N 
ATOM     25  H   UNL     1      44.673   1.391   8.302  0.00  0.00    +0.000 HD
ATOM     26  H   UNL     1      44.832   3.360   7.430  0.00  0.00    +0.000 HD
ATOM     27  H   UNL     1      44.420   4.682   8.411  0.00  0.00    +0.000 HD
ENDBRANCH  16  23
ENDBRANCH  15  20
ENDBRANCH   1  15
TORSDOF 4
ENDMDL
MODEL 4
REMARK VINA RESULT:    -7.403      3.166      8.209
REMARK INTER + INTRA:          -9.087
REMARK INTER:                  -8.493
REMARK INTRA:                  -0.594
REMARK UNBOUND:                 0.048
REMARK  Name = 
REMARK  4 active torsions:
REMARK  status: ('A' for Active; 'I' for Inactive)
REMARK    1  A    between atoms: C_2  and  C_4
REMARK    2  A    between atoms: C_8  and  C_9
REMARK    3  A    between atoms: C_9  and  N_10
REMARK    4  A    between atoms: C_15  and  C_16
REMARK                            x       y       z     vdW  Elec       q    Type
REMARK                         _______ _______ _______ _____ _____    ______ ____
ROOT
ATOM      1  N   UNL     1      49.058   6.288  16.602  0.00  0.00    +0.000 N 
ATOM      2  C   UNL     1      48.888   6.507  15.233  0.00  0.00    +0.000 A 
ATOM      3  N   UNL     1      49.692   7.371  14.604  0.00  0.00    +0.000 NA
ATOM      4  C   UNL     1      49.460   7.600  13.304  0.00  0.00    +0.000 A 
ATOM      5  C   UNL     1      48.469   6.971  12.595  0.00  0.00    +0.000 A 
ATOM      6  C   UNL     1      47.687   6.077  13.299  0.00  0.00    +0.000 A 
ATOM      7  N   UNL     1      47.870   5.875  14.628  0.00  0.00    +0.000 NA
ATOM      8  H   UNL     1      48.344   6.852  17.051  0.00  0.00    +0.000 HD
ENDROOT
BRANCH   6   9
ATOM      9  C   UNL     1      46.601   5.317  12.651  0.00  0.00    +0.000 A 
ATOM     10  C   UNL     1      45.941   5.766  11.492  0.00  0.00    +0.000 A 
ATOM     11  C   UNL     1      44.882   5.045  10.941  0.00  0.00    +0.000 A 
ATOM     12  C   UNL     1      44.505   3.866  11.563  0.00  0.00    +0.000 A 
ATOM     13  N   UNL     1      45.113   3.376  12.657  0.00  0.00    +0.000 NA
ATOM     14  C   UNL     1      46.143   4.102  13.165  0.00  0.00    +0.000 A 
ENDBRANCH   6   9
BRANCH   1  15
ATOM     15  C   UNL     1      50.393   6.653  17.076  0.00  0.00    +0.000 C 
BRANCH  15  20
ATOM     16  C   UNL     1      51.434   3.122  17.552  0.00  0.00    +0.000 A 
ATOM     17  C   UNL     1      52.588   3.198  18.317  0.00  0.00    +0.000 A 
ATOM     18  C   UNL     1      53.059   4.456  18.669  0.00  0.00    +0.000 A 
ATOM     19  C   UNL     1      52.360   5.586  18.254  0.00  0.00    +0.000 A 
ATOM     20  C   UNL     1      51.210   5.432  17.475  0.00  0.00    +0.000 A 
ATOM     21  N   UNL     1      50.741   4.207  17.103  0.00  0.00    +0.000 NA
BRANCH  16  23
ATOM     22  N   UNL     1      49.931   1.678  16.287  0.00  0.00    +0.000 NA
ATOM     23  C   UNL     1      50.857   1.778  17.187  0.00  0.00    +0.000 C 
ATOM     24  N   UNL     1      51.314   0.654  17.821  0.00  0.00    +0.000 N 
ATOM     25  H   UNL     1      49.706   0.690  16.154  0.00  0.00    +0.000 HD
ATOM     26  H   UNL     1      50.654  -0.104  17.924  0.00  0.00    +0.000 HD
ATOM     27  H   UNL     1      51.833   0.858  18.675  0.00  0.00    +0.000 HD
ENDBRANCH  16  23
ENDBRANCH  15  20
ENDBRANCH   1  15
TORSDOF 4
ENDMDL
MODEL 5
REMARK VINA RESULT:    -7.330      3.264      5.084
REMARK INTER + INTRA:          -8.997
REMARK INTER:                  -8.542
REMARK INTRA:                  -0.455
REMARK UNBOUND:                 0.048
REMARK  Name = 
REMARK  4 active torsions:
REMARK  status: ('A' for Active; 'I' for Inactive)
REMARK    1  A    between atoms: C_2  and  C_4
REMARK    2  A    between atoms: C_8  and  C_9
REMARK    3  A    between atoms: C_9  and  N_10
REMARK    4  A    between atoms: C_15  and  C_16
REMARK                            x       y       z     vdW  Elec       q    Type
REMARK                         _______ _______ _______ _____ _____    ______ ____
ROOT
ATOM      1  N   UNL     1      46.490   4.360  15.189  0.00  0.00    +0.000 N 
ATOM      2  C   UNL     1      47.402   3.983  16.177  0.00  0.00    +0.000 A 
ATOM      3  N   UNL     1      48.232   2.960  15.946  0.00  0.00    +0.000 NA
ATOM      4  C   UNL     1      49.050   2.589  16.941  0.00  0.00    +0.000 A 
ATOM      5  C   UNL     1      49.095   3.226  18.154  0.00  0.00    +0.000 A 
ATOM      6  C   UNL     1      48.226   4.285  18.321  0.00  0.00    +0.000 A 
ATOM      7  N   UNL     1      47.350   4.639  17.348  0.00  0.00    +0.000 NA
ATOM      8  H   UNL     1      45.608   3.942  15.469  0.00  0.00    +0.000 HD
ENDROOT
BRANCH   6   9
ATOM      9  C   UNL     1      48.188   5.070  19.571  0.00  0.00    +0.000 A 
ATOM     10  C   UNL     1      48.702   4.588  20.790  0.00  0.00    +0.000 A 
ATOM     11  C   UNL     1      48.597   5.338  21.961  0.00  0.00    +0.000 A 
ATOM     12  C   UNL     1      47.981   6.576  21.889  0.00  0.00    +0.000 A 
ATOM     13  N   UNL     1      47.494   7.097  20.749  0.00  0.00    +0.000 NA
ATOM     14  C   UNL     1      47.615   6.341  19.626  0.00  0.00    +0.000 A 
ENDBRANCH   6   9
BRANCH   1  15
ATOM     15  C   UNL     1      46.883   3.915  13.852  0.00  0.00    +0.000 C 
BRANCH  15  20
ATOM     16  C   UNL     1      44.563   5.917  11.758  0.00  0.00    +0.000 A 
ATOM     17  C   UNL     1      43.869   4.979  11.010  0.00  0.00    +0.000 A 
ATOM     18  C   UNL     1      44.191   3.638  11.178  0.00  0.00    +0.000 A 
ATOM     19  C   UNL     1      45.183   3.285  12.089  0.00  0.00    +0.000 A 
ATOM     20  C   UNL     1      45.848   4.287  12.799  0.00  0.00    +0.000 A 
ATOM     21  N   UNL     1      45.560   5.610  12.636  0.00  0.00    +0.000 NA
BRANCH  16  23
ATOM     22  N   UNL     1      44.934   8.278  12.239  0.00  0.00    +0.000 NA
ATOM     23  C   UNL     1      44.214   7.379  11.646  0.00  0.00    +0.000 C 
ATOM     24  N   UNL     1      43.119   7.757  10.916  0.00  0.00    +0.000 N 
ATOM     25  H   UNL     1      44.564   9.203  12.008  0.00  0.00    +0.000 HD
ATOM     26  H   UNL     1      42.647   8.600  11.216  0.00  0.00    +0.000 HD
ATOM     27  H   UNL     1      42.483   6.985  10.718  0.00  0.00    +0.000 HD
ENDBRANCH  16  23
ENDBRANCH  15  20
ENDBRANCH   1  15
TORSDOF 4
ENDMDL
MODEL 6
REMARK VINA RESULT:    -7.157      2.265      4.112
REMARK INTER + INTRA:          -8.783
REMARK INTER:                  -8.348
REMARK INTRA:                  -0.435
REMARK UNBOUND:                 0.048
REMARK  Name = 
REMARK  4 active torsions:
REMARK  status: ('A' for Active; 'I' for Inactive)
REMARK    1  A    between atoms: C_2  and  C_4
REMARK    2  A    between atoms: C_8  and  C_9
REMARK    3  A    between atoms: C_9  and  N_10
REMARK    4  A    between atoms: C_15  and  C_16
REMARK                            x       y       z     vdW  Elec       q    Type
REMARK                         _______ _______ _______ _____ _____    ______ ____
ROOT
ATOM      1  N   UNL     1      47.042   5.203  14.748  0.00  0.00    +0.000 N 
ATOM      2  C   UNL     1      47.593   4.524  15.837  0.00  0.00    +0.000 A 
ATOM      3  N   UNL     1      46.876   3.571  16.445  0.00  0.00    +0.000 NA
ATOM      4  C   UNL     1      47.414   2.985  17.523  0.00  0.00    +0.000 A 
ATOM      5  C   UNL     1      48.661   3.292  18.003  0.00  0.00    +0.000 A 
ATOM      6  C   UNL     1      49.355   4.270  17.320  0.00  0.00    +0.000 A 
ATOM      7  N   UNL     1      48.805   4.916  16.261  0.00  0.00    +0.000 NA
ATOM      8  H   UNL     1      46.707   6.084  15.126  0.00  0.00    +0.000 HD
ENDROOT
BRANCH   6   9
ATOM      9  C   UNL     1      50.716   4.680  17.718  0.00  0.00    +0.000 A 
ATOM     10  C   UNL     1      51.277   5.918  17.353  0.00  0.00    +0.000 A 
ATOM     11  C   UNL     1      52.586   6.246  17.703  0.00  0.00    +0.000 A 
ATOM     12  C   UNL     1      53.317   5.321  18.430  0.00  0.00    +0.000 A 
ATOM     13  N   UNL     1      52.825   4.134  18.828  0.00  0.00    +0.000 NA
ATOM     14  C   UNL     1      51.545   3.849  18.472  0.00  0.00    +0.000 A 
ENDBRANCH   6   9
BRANCH   1  15
ATOM     15  C   UNL     1      45.959   4.461  14.103  0.00  0.00    +0.000 C 
BRANCH  15  20
ATOM     16  C   UNL     1      45.126   4.292  10.490  0.00  0.00    +0.000 A 
ATOM     17  C   UNL     1      45.600   5.485   9.966  0.00  0.00    +0.000 A 
ATOM     18  C   UNL     1      46.193   6.392  10.833  0.00  0.00    +0.000 A 
ATOM     19  C   UNL     1      46.298   6.074  12.185  0.00  0.00    +0.000 A 
ATOM     20  C   UNL     1      45.787   4.857  12.643  0.00  0.00    +0.000 A 
ATOM     21  N   UNL     1      45.184   3.960  11.811  0.00  0.00    +0.000 NA
BRANCH  16  23
ATOM     22  N   UNL     1      44.283   3.528   8.334  0.00  0.00    +0.000 NA
ATOM     23  C   UNL     1      44.520   3.256   9.578  0.00  0.00    +0.000 C 
ATOM     24  N   UNL     1      44.211   2.018  10.075  0.00  0.00    +0.000 N 
ATOM     25  H   UNL     1      43.916   2.689   7.877  0.00  0.00    +0.000 HD
ATOM     26  H   UNL     1      43.433   1.540   9.641  0.00  0.00    +0.000 HD
ATOM     27  H   UNL     1      44.185   1.990  11.094  0.00  0.00    +0.000 HD
ENDBRANCH  16  23
ENDBRANCH  15  20
ENDBRANCH   1  15
TORSDOF 4
ENDMDL
MODEL 7
REMARK VINA RESULT:    -6.984      6.050      9.158
REMARK INTER + INTRA:          -8.570
REMARK INTER:                  -7.993
REMARK INTRA:                  -0.577
REMARK UNBOUND:                 0.048
REMARK  Name = 
REMARK  4 active torsions:
REMARK  status: ('A' for Active; 'I' for Inactive)
REMARK    1  A    between atoms: C_2  and  C_4
REMARK    2  A    between atoms: C_8  and  C_9
REMARK    3  A    between atoms: C_9  and  N_10
REMARK    4  A    between atoms: C_15  and  C_16
REMARK                            x       y       z     vdW  Elec       q    Type
REMARK                         _______ _______ _______ _____ _____    ______ ____
ROOT
ATOM      1  N   UNL     1      44.461   9.772  12.541  0.00  0.00    +0.000 N 
ATOM      2  C   UNL     1      43.794  10.271  11.420  0.00  0.00    +0.000 A 
ATOM      3  N   UNL     1      44.505  10.661  10.355  0.00  0.00    +0.000 NA
ATOM      4  C   UNL     1      43.834  11.191   9.323  0.00  0.00    +0.000 A 
ATOM      5  C   UNL     1      42.469  11.318   9.298  0.00  0.00    +0.000 A 
ATOM      6  C   UNL     1      41.795  10.880  10.420  0.00  0.00    +0.000 A 
ATOM      7  N   UNL     1      42.460  10.394  11.498  0.00  0.00    +0.000 NA
ATOM      8  H   UNL     1      44.496  10.547  13.195  0.00  0.00    +0.000 HD
ENDROOT
BRANCH   6   9
ATOM      9  C   UNL     1      40.323  10.940  10.515  0.00  0.00    +0.000 A 
ATOM     10  C   UNL     1      39.589  10.204  11.464  0.00  0.00    +0.000 A 
ATOM     11  C   UNL     1      38.196  10.245  11.486  0.00  0.00    +0.000 A 
ATOM     12  C   UNL     1      37.553  11.041  10.552  0.00  0.00    +0.000 A 
ATOM     13  N   UNL     1      38.202  11.784   9.639  0.00  0.00    +0.000 NA
ATOM     14  C   UNL     1      39.560  11.723   9.648  0.00  0.00    +0.000 A 
ENDBRANCH   6   9
BRANCH   1  15
ATOM     15  C   UNL     1      45.804   9.280  12.232  0.00  0.00    +0.000 C 
BRANCH  15  20
ATOM     16  C   UNL     1      45.017   5.740  13.023  0.00  0.00    +0.000 A 
ATOM     17  C   UNL     1      46.227   5.195  13.425  0.00  0.00    +0.000 A 
ATOM     18  C   UNL     1      47.351   6.010  13.412  0.00  0.00    +0.000 A 
ATOM     19  C   UNL     1      47.225   7.337  13.008  0.00  0.00    +0.000 A 
ATOM     20  C   UNL     1      45.974   7.814  12.606  0.00  0.00    +0.000 A 
ATOM     21  N   UNL     1      44.863   7.025  12.594  0.00  0.00    +0.000 NA
BRANCH  16  23
ATOM     22  N   UNL     1      42.601   5.468  13.200  0.00  0.00    +0.000 NA
ATOM     23  C   UNL     1      43.762   4.907  13.069  0.00  0.00    +0.000 C 
ATOM     24  N   UNL     1      43.853   3.544  12.978  0.00  0.00    +0.000 N 
ATOM     25  H   UNL     1      41.880   4.744  13.166  0.00  0.00    +0.000 HD
ATOM     26  H   UNL     1      43.138   3.013  13.455  0.00  0.00    +0.000 HD
ATOM     27  H   UNL     1      44.796   3.194  13.143  0.00  0.00    +0.000 HD
ENDBRANCH  16  23
ENDBRANCH  15  20
ENDBRANCH   1  15
TORSDOF 4
ENDMDL
MODEL 8
REMARK VINA RESULT:    -6.832      2.182      8.466
REMARK INTER + INTRA:          -8.382
REMARK INTER:                  -7.936
REMARK INTRA:                  -0.446
REMARK UNBOUND:                 0.048
REMARK  Name = 
REMARK  4 active torsions:
REMARK  status: ('A' for Active; 'I' for Inactive)
REMARK    1  A    between atoms: C_2  and  C_4
REMARK    2  A    between atoms: C_8  and  C_9
REMARK    3  A    between atoms: C_9  and  N_10
REMARK    4  A    between atoms: C_15  and  C_16
REMARK                            x       y       z     vdW  Elec       q    Type
REMARK                         _______ _______ _______ _____ _____    ______ ____
ROOT
ATOM      1  N   UNL     1      47.869   5.958  14.311  0.00  0.00    +0.000 N 
ATOM      2  C   UNL     1      47.000   6.402  13.314  0.00  0.00    +0.000 A 
ATOM      3  N   UNL     1      46.583   7.674  13.327  0.00  0.00    +0.000 NA
ATOM      4  C   UNL     1      45.701   8.046  12.389  0.00  0.00    +0.000 A 
ATOM      5  C   UNL     1      45.240   7.202  11.412  0.00  0.00    +0.000 A 
ATOM      6  C   UNL     1      45.723   5.909  11.444  0.00  0.00    +0.000 A 
ATOM      7  N   UNL     1      46.571   5.497  12.419  0.00  0.00    +0.000 NA
ATOM      8  H   UNL     1      47.281   5.468  14.978  0.00  0.00    +0.000 HD
ENDROOT
BRANCH   6   9
ATOM      9  C   UNL     1      45.324   4.905  10.438  0.00  0.00    +0.000 A 
ATOM     10  C   UNL     1      44.631   3.726  10.770  0.00  0.00    +0.000 A 
ATOM     11  C   UNL     1      44.321   2.776   9.798  0.00  0.00    +0.000 A 
ATOM     12  C   UNL     1      44.705   3.031   8.492  0.00  0.00    +0.000 A 
ATOM     13  N   UNL     1      45.347   4.150   8.113  0.00  0.00    +0.000 NA
ATOM     14  C   UNL     1      45.631   5.056   9.085  0.00  0.00    +0.000 A 
ENDBRANCH   6   9
BRANCH   1  15
ATOM     15  C   UNL     1      48.601   7.048  14.956  0.00  0.00    +0.000 C 
BRANCH  15  20
ATOM     16  C   UNL     1      49.042   5.271  18.184  0.00  0.00    +0.000 A 
ATOM     17  C   UNL     1      49.076   6.278  19.136  0.00  0.00    +0.000 A 
ATOM     18  C   UNL     1      48.976   7.594  18.703  0.00  0.00    +0.000 A 
ATOM     19  C   UNL     1      48.839   7.854  17.342  0.00  0.00    +0.000 A 
ATOM     20  C   UNL     1      48.825   6.787  16.440  0.00  0.00    +0.000 A 
ATOM     21  N   UNL     1      48.939   5.489  16.843  0.00  0.00    +0.000 NA
BRANCH  16  23
ATOM     22  N   UNL     1      49.728   2.949  17.899  0.00  0.00    +0.000 NA
ATOM     23  C   UNL     1      49.096   3.827  18.612  0.00  0.00    +0.000 C 
ATOM     24  N   UNL     1      48.464   3.440  19.763  0.00  0.00    +0.000 N 
ATOM     25  H   UNL     1      49.686   2.045  18.375  0.00  0.00    +0.000 HD
ATOM     26  H   UNL     1      48.116   2.491  19.789  0.00  0.00    +0.000 HD
ATOM     27  H   UNL     1      47.790   4.127  20.101  0.00  0.00    +0.000 HD
ENDBRANCH  16  23
ENDBRANCH  15  20
ENDBRANCH   1  15
TORSDOF 4
ENDMDL
MODEL 9
REMARK VINA RESULT:    -6.785      2.668      3.879
REMARK INTER + INTRA:          -8.325
REMARK INTER:                  -7.791
REMARK INTRA:                  -0.533
REMARK UNBOUND:                 0.048
REMARK  Name = 
REMARK  4 active torsions:
REMARK  status: ('A' for Active; 'I' for Inactive)
REMARK    1  A    between atoms: C_2  and  C_4
REMARK    2  A    between atoms: C_8  and  C_9
REMARK    3  A    between atoms: C_9  and  N_10
REMARK    4  A    between atoms: C_15  and  C_16
REMARK                            x       y       z     vdW  Elec       q    Type
REMARK                         _______ _______ _______ _____ _____    ______ ____
ROOT
ATOM      1  N   UNL     1      47.672   5.961  12.637  0.00  0.00    +0.000 N 
ATOM      2  C   UNL     1      48.050   6.743  13.731  0.00  0.00    +0.000 A 
ATOM      3  N   UNL     1      48.073   8.076  13.606  0.00  0.00    +0.000 NA
ATOM      4  C   UNL     1      48.499   8.789  14.657  0.00  0.00    +0.000 A 
ATOM      5  C   UNL     1      48.874   8.222  15.849  0.00  0.00    +0.000 A 
ATOM      6  C   UNL     1      48.809   6.845  15.917  0.00  0.00    +0.000 A 
ATOM      7  N   UNL     1      48.436   6.102  14.845  0.00  0.00    +0.000 NA
ATOM      8  H   UNL     1      48.543   5.631  12.234  0.00  0.00    +0.000 HD
ENDROOT
BRANCH   6   9
ATOM      9  C   UNL     1      49.164   6.110  17.148  0.00  0.00    +0.000 A 
ATOM     10  C   UNL     1      49.794   6.723  18.247  0.00  0.00    +0.000 A 
ATOM     11  C   UNL     1      50.162   5.983  19.369  0.00  0.00    +0.000 A 
ATOM     12  C   UNL     1      49.881   4.627  19.376  0.00  0.00    +0.000 A 
ATOM     13  N   UNL     1      49.260   3.993  18.366  0.00  0.00    +0.000 NA
ATOM     14  C   UNL     1      48.912   4.745  17.289  0.00  0.00    +0.000 A 
ENDBRANCH   6   9
BRANCH   1  15
ATOM     15  C   UNL     1      46.883   6.702  11.653  0.00  0.00    +0.000 C 
BRANCH  15  20
ATOM     16  C   UNL     1      44.014   4.388  11.219  0.00  0.00    +0.000 A 
ATOM     17  C   UNL     1      42.899   5.212  11.208  0.00  0.00    +0.000 A 
ATOM     18  C   UNL     1      43.091   6.577  11.375  0.00  0.00    +0.000 A 
ATOM     19  C   UNL     1      44.384   7.068  11.538  0.00  0.00    +0.000 A 
ATOM     20  C   UNL     1      45.459   6.175  11.550  0.00  0.00    +0.000 A 
ATOM     21  N   UNL     1      45.290   4.830  11.406  0.00  0.00    +0.000 NA
BRANCH  16  23
ATOM     22  N   UNL     1      43.050   2.206  11.722  0.00  0.00    +0.000 NA
ATOM     23  C   UNL     1      43.859   2.906  10.991  0.00  0.00    +0.000 C 
ATOM     24  N   UNL     1      44.588   2.295  10.007  0.00  0.00    +0.000 N 
ATOM     25  H   UNL     1      43.054   1.240  11.386  0.00  0.00    +0.000 HD
ATOM     26  H   UNL     1      44.831   1.326  10.162  0.00  0.00    +0.000 HD
ATOM     27  H   UNL     1      45.369   2.860   9.677  0.00  0.00    +0.000 HD
ENDBRANCH  16  23
ENDBRANCH  15  20
ENDBRANCH   1  15
TORSDOF 4
ENDMDL
