MODEL 1
REMARK VINA RESULT:    -8.223      0.000      0.000
REMARK INTER + INTRA:         -10.144
REMARK INTER:                  -9.665
REMARK INTRA:                  -0.479
REMARK UNBOUND:                -0.479
REMARK  Name = 
REMARK  4 active torsions:
REMARK  status: ('A' for Active; 'I' for Inactive)
REMARK    1  A    between atoms: C_1  and  C_2
REMARK    2  A    between atoms: N_8  and  C_9
REMARK    3  A    between atoms: C_9  and  C_10
REMARK    4  A    between atoms: C_14  and  C_15
REMARK                            x       y       z     vdW  Elec       q    Type
REMARK                         _______ _______ _______ _____ _____    ______ ____
ROOT
ATOM      1  C   UNL     1      43.698   5.393  11.733  0.00  0.00    +0.000 C 
ATOM      2  C   UNL     1      42.275   5.941  11.702  0.00  0.00    +0.000 C 
ATOM      3  C   UNL     1      42.810   5.341  12.959  0.00  0.00    +0.000 C 
ENDROOT
BRANCH   1  11
ATOM      4  C   UNL     1      49.360   7.494  11.404  0.00  0.00    +0.000 C 
ATOM      5  C   UNL     1      48.239   6.846  12.159  0.00  0.00    +0.000 A 
ATOM      6  C   UNL     1      48.447   6.254  13.379  0.00  0.00    +0.000 A 
ATOM      7  C   UNL     1      47.334   5.680  13.939  0.00  0.00    +0.000 A 
ATOM      8 CL   UNL     1      47.427   4.930  15.482  0.00  0.00    +0.000 Cl
ATOM      9  N   UNL     1      46.114   5.655  13.384  0.00  0.00    +0.000 NA
ATOM     10  C   UNL     1      45.997   6.277  12.211  0.00  0.00    +0.000 A 
ATOM     11  N   UNL     1      44.761   6.395  11.575  0.00  0.00    +0.000 N 
ATOM     12  N   UNL     1      47.022   6.867  11.574  0.00  0.00    +0.000 NA
ATOM     13  H   UNL     1      44.951   6.758  10.647  0.00  0.00    +0.000 HD
ENDBRANCH   1  11
BRANCH   1  14
ATOM     14  C   UNL     1      43.968   4.088  11.004  0.00  0.00    +0.000 A 
ATOM     15  C   UNL     1      43.361   2.895  11.372  0.00  0.00    +0.000 A 
ATOM     16  N   UNL     1      43.552   1.729  10.719  0.00  0.00    +0.000 NA
ATOM     17  N   UNL     1      44.387   1.696   9.636  0.00  0.00    +0.000 NA
ATOM     18  C   UNL     1      45.034   2.815   9.235  0.00  0.00    +0.000 A 
ATOM     19  C   UNL     1      44.839   4.015   9.909  0.00  0.00    +0.000 A 
BRANCH  18  20
ATOM     20  C   UNL     1      45.922   2.682   8.063  0.00  0.00    +0.000 A 
ATOM     21  C   UNL     1      46.644   1.498   7.831  0.00  0.00    +0.000 A 
ATOM     22  C   UNL     1      47.486   1.363   6.723  0.00  0.00    +0.000 A 
ATOM     23  C   UNL     1      47.627   2.414   5.822  0.00  0.00    +0.000 A 
ATOM     24  C   UNL     1      46.925   3.597   6.027  0.00  0.00    +0.000 A 
ATOM     25  C   UNL     1      46.084   3.730   7.136  0.00  0.00    +0.000 A 
ENDBRANCH  18  20
ENDBRANCH   1  14
TORSDOF 3
ENDMDL
MODEL 2
REMARK VINA RESULT:    -7.888      3.148      4.136
REMARK INTER + INTRA:          -9.750
REMARK INTER:                 -10.346
REMARK INTRA:                   0.596
REMARK UNBOUND:                -0.479
REMARK  Name = 
REMARK  4 active torsions:
REMARK  status: ('A' for Active; 'I' for Inactive)
REMARK    1  A    between atoms: C_1  and  C_2
REMARK    2  A    between atoms: N_8  and  C_9
REMARK    3  A    between atoms: C_9  and  C_10
REMARK    4  A    between atoms: C_14  and  C_15
REMARK                            x       y       z     vdW  Elec       q    Type
REMARK                         _______ _______ _______ _____ _____    ______ ____
ROOT
ATOM      1  C   UNL     1      44.798   6.700  11.568  0.00  0.00    +0.000 C 
ATOM      2  C   UNL     1      45.526   6.773  12.906  0.00  0.00    +0.000 C 
ATOM      3  C   UNL     1      46.241   7.153  11.654  0.00  0.00    +0.000 C 
ENDROOT
BRANCH   1  11
ATOM      4  C   UNL     1      41.867  11.517   9.383  0.00  0.00    +0.000 C 
ATOM      5  C   UNL     1      42.992  10.903  10.157  0.00  0.00    +0.000 A 
ATOM      6  C   UNL     1      44.074  11.646  10.558  0.00  0.00    +0.000 A 
ATOM      7  C   UNL     1      45.037  10.944  11.237  0.00  0.00    +0.000 A 
ATOM      8 CL   UNL     1      46.436  11.742  11.834  0.00  0.00    +0.000 Cl
ATOM      9  N   UNL     1      44.991   9.631  11.509  0.00  0.00    +0.000 NA
ATOM     10  C   UNL     1      43.892   8.994  11.106  0.00  0.00    +0.000 A 
ATOM     11  N   UNL     1      43.686   7.646  11.406  0.00  0.00    +0.000 N 
ATOM     12  N   UNL     1      42.891   9.585  10.432  0.00  0.00    +0.000 NA
ATOM     13  H   UNL     1      42.876   7.355  10.869  0.00  0.00    +0.000 HD
ENDBRANCH   1  11
BRANCH   1  14
ATOM     14  C   UNL     1      44.526   5.323  10.986  0.00  0.00    +0.000 A 
ATOM     15  C   UNL     1      43.488   4.520  11.437  0.00  0.00    +0.000 A 
ATOM     16  N   UNL     1      43.200   3.310  10.912  0.00  0.00    +0.000 NA
ATOM     17  N   UNL     1      43.962   2.827   9.883  0.00  0.00    +0.000 NA
ATOM     18  C   UNL     1      45.008   3.543   9.409  0.00  0.00    +0.000 A 
ATOM     19  C   UNL     1      45.305   4.789   9.952  0.00  0.00    +0.000 A 
BRANCH  18  20
ATOM     20  C   UNL     1      45.778   2.939   8.305  0.00  0.00    +0.000 A 
ATOM     21  C   UNL     1      46.145   3.697   7.179  0.00  0.00    +0.000 A 
ATOM     22  C   UNL     1      46.876   3.133   6.128  0.00  0.00    +0.000 A 
ATOM     23  C   UNL     1      47.255   1.795   6.180  0.00  0.00    +0.000 A 
ATOM     24  C   UNL     1      46.905   1.022   7.282  0.00  0.00    +0.000 A 
ATOM     25  C   UNL     1      46.173   1.587   8.331  0.00  0.00    +0.000 A 
ENDBRANCH  18  20
ENDBRANCH   1  14
TORSDOF 3
ENDMDL
MODEL 3
REMARK VINA RESULT:    -7.583      2.253      3.104
REMARK INTER + INTRA:          -9.392
REMARK INTER:                  -9.268
REMARK INTRA:                  -0.124
REMARK UNBOUND:                -0.479
REMARK  Name = 
REMARK  4 active torsions:
REMARK  status: ('A' for Active; 'I' for Inactive)
REMARK    1  A    between atoms: C_1  and  C_2
REMARK    2  A    between atoms: N_8  and  C_9
REMARK    3  A    between atoms: C_9  and  C_10
REMARK    4  A    between atoms: C_14  and  C_15
REMARK                            x       y       z     vdW  Elec       q    Type
REMARK                         _______ _______ _______ _____ _____    ______ ____
ROOT
ATOM      1  C   UNL     1      45.733   5.287  13.099  0.00  0.00    +0.000 C 
ATOM      2  C   UNL     1      46.170   4.630  14.404  0.00  0.00    +0.000 C 
ATOM      3  C   UNL     1      47.197   5.043  13.404  0.00  0.00    +0.000 C 
ENDROOT
BRANCH   1  11
ATOM      4  C   UNL     1      44.312  10.957  11.548  0.00  0.00    +0.000 C 
ATOM      5  C   UNL     1      45.314   9.908  11.923  0.00  0.00    +0.000 A 
ATOM      6  C   UNL     1      46.662  10.128  11.794  0.00  0.00    +0.000 A 
ATOM      7  C   UNL     1      47.457   9.070  12.152  0.00  0.00    +0.000 A 
ATOM      8 CL   UNL     1      49.168   9.203  12.079  0.00  0.00    +0.000 Cl
ATOM      9  N   UNL     1      47.014   7.882  12.590  0.00  0.00    +0.000 NA
ATOM     10  C   UNL     1      45.691   7.765  12.710  0.00  0.00    +0.000 A 
ATOM     11  N   UNL     1      45.112   6.610  13.238  0.00  0.00    +0.000 N 
ATOM     12  N   UNL     1      44.824   8.738  12.384  0.00  0.00    +0.000 NA
ATOM     13  H   UNL     1      44.113   6.696  13.082  0.00  0.00    +0.000 HD
ENDBRANCH   1  11
BRANCH   1  14
ATOM     14  C   UNL     1      45.078   4.405  12.049  0.00  0.00    +0.000 A 
ATOM     15  C   UNL     1      43.788   3.915  12.194  0.00  0.00    +0.000 A 
ATOM     16  N   UNL     1      43.167   3.162  11.261  0.00  0.00    +0.000 NA
ATOM     17  N   UNL     1      43.828   2.848  10.106  0.00  0.00    +0.000 NA
ATOM     18  C   UNL     1      45.099   3.268   9.906  0.00  0.00    +0.000 A 
ATOM     19  C   UNL     1      45.738   4.042  10.868  0.00  0.00    +0.000 A 
BRANCH  18  20
ATOM     20  C   UNL     1      45.735   2.873   8.634  0.00  0.00    +0.000 A 
ATOM     21  C   UNL     1      45.956   3.815   7.612  0.00  0.00    +0.000 A 
ATOM     22  C   UNL     1      46.559   3.450   6.404  0.00  0.00    +0.000 A 
ATOM     23  C   UNL     1      46.953   2.133   6.190  0.00  0.00    +0.000 A 
ATOM     24  C   UNL     1      46.746   1.181   7.183  0.00  0.00    +0.000 A 
ATOM     25  C   UNL     1      46.142   1.547   8.390  0.00  0.00    +0.000 A 
ENDBRANCH  18  20
ENDBRANCH   1  14
TORSDOF 3
ENDMDL
MODEL 4
REMARK VINA RESULT:    -7.024      3.714      5.274
REMARK INTER + INTRA:          -8.735
REMARK INTER:                  -8.123
REMARK INTRA:                  -0.613
REMARK UNBOUND:                -0.479
REMARK  Name = 
REMARK  4 active torsions:
REMARK  status: ('A' for Active; 'I' for Inactive)
REMARK    1  A    between atoms: C_1  and  C_2
REMARK    2  A    between atoms: N_8  and  C_9
REMARK    3  A    between atoms: C_9  and  C_10
REMARK    4  A    between atoms: C_14  and  C_15
REMARK                            x       y       z     vdW  Elec       q    Type
REMARK                         _______ _______ _______ _____ _____    ______ ____
ROOT
ATOM      1  C   UNL     1      45.694   8.493  12.405  0.00  0.00    +0.000 C 
ATOM      2  C   UNL     1      46.903   8.487  13.335  0.00  0.00    +0.000 C 
ATOM      3  C   UNL     1      47.093   8.736  11.876  0.00  0.00    +0.000 C 
ENDROOT
BRANCH   1  11
ATOM      4  C   UNL     1      40.648  11.720  11.572  0.00  0.00    +0.000 C 
ATOM      5  C   UNL     1      41.952  11.169  11.082  0.00  0.00    +0.000 A 
ATOM      6  C   UNL     1      42.299  11.224   9.756  0.00  0.00    +0.000 A 
ATOM      7  C   UNL     1      43.511  10.658   9.452  0.00  0.00    +0.000 A 
ATOM      8 CL   UNL     1      44.100  10.679   7.839  0.00  0.00    +0.000 Cl
ATOM      9  N   UNL     1      44.333  10.070  10.333  0.00  0.00    +0.000 NA
ATOM     10  C   UNL     1      43.930  10.086  11.604  0.00  0.00    +0.000 A 
ATOM     11  N   UNL     1      44.736   9.584  12.626  0.00  0.00    +0.000 N 
ATOM     12  N   UNL     1      42.761  10.610  12.008  0.00  0.00    +0.000 NA
ATOM     13  H   UNL     1      44.159   9.562  13.459  0.00  0.00    +0.000 HD
ENDBRANCH   1  11
BRANCH   1  14
ATOM     14  C   UNL     1      45.044   7.157  12.084  0.00  0.00    +0.000 A 
ATOM     15  C   UNL     1      43.947   6.679  12.787  0.00  0.00    +0.000 A 
ATOM     16  N   UNL     1      43.327   5.516  12.499  0.00  0.00    +0.000 NA
ATOM     17  N   UNL     1      43.789   4.747  11.466  0.00  0.00    +0.000 NA
ATOM     18  C   UNL     1      44.871   5.136  10.753  0.00  0.00    +0.000 A 
ATOM     19  C   UNL     1      45.511   6.334  11.052  0.00  0.00    +0.000 A 
BRANCH  18  20
ATOM     20  C   UNL     1      45.304   4.239   9.664  0.00  0.00    +0.000 A 
ATOM     21  C   UNL     1      45.080   2.853   9.735  0.00  0.00    +0.000 A 
ATOM     22  C   UNL     1      45.486   1.995   8.707  0.00  0.00    +0.000 A 
ATOM     23  C   UNL     1      46.128   2.507   7.584  0.00  0.00    +0.000 A 
ATOM     24  C   UNL     1      46.364   3.875   7.488  0.00  0.00    +0.000 A 
ATOM     25  C   UNL     1      45.957   4.730   8.517  0.00  0.00    +0.000 A 
ENDBRANCH  18  20
ENDBRANCH   1  14
TORSDOF 3
ENDMDL
MODEL 5
REMARK VINA RESULT:    -6.795      2.801      5.168
REMARK INTER + INTRA:          -8.466
REMARK INTER:                  -7.975
REMARK INTRA:                  -0.491
REMARK UNBOUND:                -0.479
REMARK  Name = 
REMARK  4 active torsions:
REMARK  status: ('A' for Active; 'I' for Inactive)
REMARK    1  A    between atoms: C_1  and  C_2
REMARK    2  A    between atoms: N_8  and  C_9
REMARK    3  A    between atoms: C_9  and  C_10
REMARK    4  A    between atoms: C_14  and  C_15
REMARK                            x       y       z     vdW  Elec       q    Type
REMARK                         _______ _______ _______ _____ _____    ______ ____
ROOT
ATOM      1  C   UNL     1      48.898   8.070  12.574  0.00  0.00    +0.000 C 
ATOM      2  C   UNL     1      49.774   8.500  11.402  0.00  0.00    +0.000 C 
ATOM      3  C   UNL     1      49.280   9.522  12.370  0.00  0.00    +0.000 C 
ENDROOT
BRANCH   1  11
ATOM      4  C   UNL     1      49.400   4.795  17.633  0.00  0.00    +0.000 C 
ATOM      5  C   UNL     1      49.184   6.098  16.927  0.00  0.00    +0.000 A 
ATOM      6  C   UNL     1      48.752   7.214  17.599  0.00  0.00    +0.000 A 
ATOM      7  C   UNL     1      48.576   8.327  16.817  0.00  0.00    +0.000 A 
ATOM      8 CL   UNL     1      48.071   9.811  17.519  0.00  0.00    +0.000 Cl
ATOM      9  N   UNL     1      48.780   8.383  15.493  0.00  0.00    +0.000 NA
ATOM     10  C   UNL     1      49.224   7.262  14.926  0.00  0.00    +0.000 A 
ATOM     11  N   UNL     1      49.557   7.217  13.572  0.00  0.00    +0.000 N 
ATOM     12  N   UNL     1      49.428   6.116  15.599  0.00  0.00    +0.000 NA
ATOM     13  H   UNL     1      49.713   6.241  13.348  0.00  0.00    +0.000 HD
ENDBRANCH   1  11
BRANCH   1  14
ATOM     14  C   UNL     1      47.463   7.671  12.273  0.00  0.00    +0.000 A 
ATOM     15  C   UNL     1      46.378   8.397  12.747  0.00  0.00    +0.000 A 
ATOM     16  N   UNL     1      45.095   8.089  12.464  0.00  0.00    +0.000 NA
ATOM     17  N   UNL     1      44.825   7.005  11.673  0.00  0.00    +0.000 NA
ATOM     18  C   UNL     1      45.830   6.235  11.197  0.00  0.00    +0.000 A 
ATOM     19  C   UNL     1      47.152   6.552  11.491  0.00  0.00    +0.000 A 
BRANCH  18  20
ATOM     20  C   UNL     1      45.444   5.083  10.361  0.00  0.00    +0.000 A 
ATOM     21  C   UNL     1      44.713   4.009  10.901  0.00  0.00    +0.000 A 
ATOM     22  C   UNL     1      44.341   2.913  10.116  0.00  0.00    +0.000 A 
ATOM     23  C   UNL     1      44.694   2.866   8.771  0.00  0.00    +0.000 A 
ATOM     24  C   UNL     1      45.418   3.914   8.210  0.00  0.00    +0.000 A 
ATOM     25  C   UNL     1      45.789   5.009   8.997  0.00  0.00    +0.000 A 
ENDBRANCH  18  20
ENDBRANCH   1  14
TORSDOF 3
ENDMDL
MODEL 6
REMARK VINA RESULT:    -6.456      5.854      8.843
REMARK INTER + INTRA:          -8.068
REMARK INTER:                  -7.407
REMARK INTRA:                  -0.661
REMARK UNBOUND:                -0.479
REMARK  Name = 
REMARK  4 active torsions:
REMARK  status: ('A' for Active; 'I' for Inactive)
REMARK    1  A    between atoms: C_1  and  C_2
REMARK    2  A    between atoms: N_8  and  C_9
REMARK    3  A    between atoms: C_9  and  C_10
REMARK    4  A    between atoms: C_14  and  C_15
REMARK                            x       y       z     vdW  Elec       q    Type
REMARK                         _______ _______ _______ _____ _____    ______ ____
ROOT
ATOM      1  C   UNL     1      48.382   5.364  17.593  0.00  0.00    +0.000 C 
ATOM      2  C   UNL     1      47.435   5.403  18.788  0.00  0.00    +0.000 C 
ATOM      3  C   UNL     1      48.786   6.028  18.894  0.00  0.00    +0.000 C 
ENDROOT
BRANCH   1  11
ATOM      4  C   UNL     1      48.663   7.573  11.971  0.00  0.00    +0.000 C 
ATOM      5  C   UNL     1      49.197   7.456  13.365  0.00  0.00    +0.000 A 
ATOM      6  C   UNL     1      50.440   7.932  13.698  0.00  0.00    +0.000 A 
ATOM      7  C   UNL     1      50.804   7.733  15.005  0.00  0.00    +0.000 A 
ATOM      8 CL   UNL     1      52.317   8.304  15.583  0.00  0.00    +0.000 Cl
ATOM      9  N   UNL     1      50.056   7.116  15.932  0.00  0.00    +0.000 NA
ATOM     10  C   UNL     1      48.852   6.709  15.529  0.00  0.00    +0.000 A 
ATOM     11  N   UNL     1      47.946   6.133  16.420  0.00  0.00    +0.000 N 
ATOM     12  N   UNL     1      48.399   6.852  14.272  0.00  0.00    +0.000 NA
ATOM     13  H   UNL     1      47.184   5.771  15.858  0.00  0.00    +0.000 HD
ENDBRANCH   1  11
BRANCH   1  14
ATOM     14  C   UNL     1      49.033   4.034  17.251  0.00  0.00    +0.000 A 
ATOM     15  C   UNL     1      48.412   3.091  16.444  0.00  0.00    +0.000 A 
ATOM     16  N   UNL     1      48.982   1.919  16.093  0.00  0.00    +0.000 NA
ATOM     17  N   UNL     1      50.236   1.621  16.550  0.00  0.00    +0.000 NA
ATOM     18  C   UNL     1      50.893   2.480  17.363  0.00  0.00    +0.000 A 
ATOM     19  C   UNL     1      50.304   3.686  17.726  0.00  0.00    +0.000 A 
BRANCH  18  20
ATOM     20  C   UNL     1      52.237   2.070  17.813  0.00  0.00    +0.000 A 
ATOM     21  C   UNL     1      53.056   2.951  18.542  0.00  0.00    +0.000 A 
ATOM     22  C   UNL     1      54.331   2.571  18.974  0.00  0.00    +0.000 A 
ATOM     23  C   UNL     1      54.816   1.299  18.684  0.00  0.00    +0.000 A 
ATOM     24  C   UNL     1      54.027   0.408  17.964  0.00  0.00    +0.000 A 
ATOM     25  C   UNL     1      52.753   0.790  17.533  0.00  0.00    +0.000 A 
ENDBRANCH  18  20
ENDBRANCH   1  14
TORSDOF 3
ENDMDL
MODEL 7
REMARK VINA RESULT:    -6.337      4.200      6.580
REMARK INTER + INTRA:          -7.928
REMARK INTER:                  -7.289
REMARK INTRA:                  -0.638
REMARK UNBOUND:                -0.479
REMARK  Name = 
REMARK  4 active torsions:
REMARK  status: ('A' for Active; 'I' for Inactive)
REMARK    1  A    between atoms: C_1  and  C_2
REMARK    2  A    between atoms: N_8  and  C_9
REMARK    3  A    between atoms: C_9  and  C_10
REMARK    4  A    between atoms: C_14  and  C_15
REMARK                            x       y       z     vdW  Elec       q    Type
REMARK                         _______ _______ _______ _____ _____    ______ ____
ROOT
ATOM      1  C   UNL     1      48.413   5.524  17.892  0.00  0.00    +0.000 C 
ATOM      2  C   UNL     1      47.297   5.777  18.901  0.00  0.00    +0.000 C 
ATOM      3  C   UNL     1      48.412   4.849  19.249  0.00  0.00    +0.000 C 
ENDROOT
BRANCH   1  11
ATOM      4  C   UNL     1      52.766   8.652  15.095  0.00  0.00    +0.000 C 
ATOM      5  C   UNL     1      52.313   7.522  15.966  0.00  0.00    +0.000 A 
ATOM      6  C   UNL     1      53.162   6.501  16.314  0.00  0.00    +0.000 A 
ATOM      7  C   UNL     1      52.601   5.524  17.095  0.00  0.00    +0.000 A 
ATOM      8 CL   UNL     1      53.546   4.197  17.640  0.00  0.00    +0.000 Cl
ATOM      9  N   UNL     1      51.326   5.502  17.511  0.00  0.00    +0.000 NA
ATOM     10  C   UNL     1      50.580   6.545  17.149  0.00  0.00    +0.000 A 
ATOM     11  N   UNL     1      49.263   6.682  17.592  0.00  0.00    +0.000 N 
ATOM     12  N   UNL     1      51.029   7.554  16.384  0.00  0.00    +0.000 NA
ATOM     13  H   UNL     1      48.865   7.453  17.067  0.00  0.00    +0.000 HD
ENDBRANCH   1  11
BRANCH   1  14
ATOM     14  C   UNL     1      48.087   4.666  16.681  0.00  0.00    +0.000 A 
ATOM     15  C   UNL     1      48.328   3.299  16.655  0.00  0.00    +0.000 A 
ATOM     16  N   UNL     1      48.013   2.507  15.608  0.00  0.00    +0.000 NA
ATOM     17  N   UNL     1      47.430   3.060  14.501  0.00  0.00    +0.000 NA
ATOM     18  C   UNL     1      47.189   4.390  14.444  0.00  0.00    +0.000 A 
ATOM     19  C   UNL     1      47.515   5.206  15.522  0.00  0.00    +0.000 A 
BRANCH  18  20
ATOM     20  C   UNL     1      46.565   4.898  13.207  0.00  0.00    +0.000 A 
ATOM     21  C   UNL     1      45.454   4.250  12.637  0.00  0.00    +0.000 A 
ATOM     22  C   UNL     1      44.856   4.725  11.466  0.00  0.00    +0.000 A 
ATOM     23  C   UNL     1      45.358   5.860  10.836  0.00  0.00    +0.000 A 
ATOM     24  C   UNL     1      46.457   6.520  11.377  0.00  0.00    +0.000 A 
ATOM     25  C   UNL     1      47.054   6.043  12.548  0.00  0.00    +0.000 A 
ENDBRANCH  18  20
ENDBRANCH   1  14
TORSDOF 3
ENDMDL
MODEL 8
REMARK VINA RESULT:    -6.286      4.903      7.386
REMARK INTER + INTRA:          -7.868
REMARK INTER:                  -7.998
REMARK INTRA:                   0.130
REMARK UNBOUND:                -0.479
REMARK  Name = 
REMARK  4 active torsions:
REMARK  status: ('A' for Active; 'I' for Inactive)
REMARK    1  A    between atoms: C_1  and  C_2
REMARK    2  A    between atoms: N_8  and  C_9
REMARK    3  A    between atoms: C_9  and  C_10
REMARK    4  A    between atoms: C_14  and  C_15
REMARK                            x       y       z     vdW  Elec       q    Type
REMARK                         _______ _______ _______ _____ _____    ______ ____
ROOT
ATOM      1  C   UNL     1      47.722   4.185  17.626  0.00  0.00    +0.000 C 
ATOM      2  C   UNL     1      47.299   2.720  17.585  0.00  0.00    +0.000 C 
ATOM      3  C   UNL     1      48.706   3.074  17.931  0.00  0.00    +0.000 C 
ENDROOT
BRANCH   1  11
ATOM      4  C   UNL     1      47.310   8.559  21.781  0.00  0.00    +0.000 C 
ATOM      5  C   UNL     1      47.928   7.301  21.254  0.00  0.00    +0.000 A 
ATOM      6  C   UNL     1      49.082   6.790  21.793  0.00  0.00    +0.000 A 
ATOM      7  C   UNL     1      49.544   5.647  21.192  0.00  0.00    +0.000 A 
ATOM      8 CL   UNL     1      50.959   4.869  21.776  0.00  0.00    +0.000 Cl
ATOM      9  N   UNL     1      48.967   5.034  20.148  0.00  0.00    +0.000 NA
ATOM     10  C   UNL     1      47.836   5.583  19.705  0.00  0.00    +0.000 A 
ATOM     11  N   UNL     1      47.095   4.990  18.682  0.00  0.00    +0.000 N 
ATOM     12  N   UNL     1      47.299   6.703  20.220  0.00  0.00    +0.000 NA
ATOM     13  H   UNL     1      46.382   5.662  18.421  0.00  0.00    +0.000 HD
ENDBRANCH   1  11
BRANCH   1  14
ATOM     14  C   UNL     1      47.872   4.913  16.301  0.00  0.00    +0.000 A 
ATOM     15  C   UNL     1      48.850   5.876  16.092  0.00  0.00    +0.000 A 
ATOM     16  N   UNL     1      49.031   6.510  14.915  0.00  0.00    +0.000 NA
ATOM     17  N   UNL     1      48.217   6.208  13.858  0.00  0.00    +0.000 NA
ATOM     18  C   UNL     1      47.225   5.298  13.995  0.00  0.00    +0.000 A 
ATOM     19  C   UNL     1      47.037   4.647  15.209  0.00  0.00    +0.000 A 
BRANCH  18  20
ATOM     20  C   UNL     1      46.391   5.043  12.804  0.00  0.00    +0.000 A 
ATOM     21  C   UNL     1      46.314   5.981  11.759  0.00  0.00    +0.000 A 
ATOM     22  C   UNL     1      45.528   5.747  10.627  0.00  0.00    +0.000 A 
ATOM     23  C   UNL     1      44.797   4.568  10.516  0.00  0.00    +0.000 A 
ATOM     24  C   UNL     1      44.854   3.623  11.535  0.00  0.00    +0.000 A 
ATOM     25  C   UNL     1      45.641   3.859  12.666  0.00  0.00    +0.000 A 
ENDBRANCH  18  20
ENDBRANCH   1  14
TORSDOF 3
ENDMDL
MODEL 9
REMARK VINA RESULT:    -6.050      4.137      6.947
REMARK INTER + INTRA:          -7.590
REMARK INTER:                  -7.514
REMARK INTRA:                  -0.076
REMARK UNBOUND:                -0.479
REMARK  Name = 
REMARK  4 active torsions:
REMARK  status: ('A' for Active; 'I' for Inactive)
REMARK    1  A    between atoms: C_1  and  C_2
REMARK    2  A    between atoms: N_8  and  C_9
REMARK    3  A    between atoms: C_9  and  C_10
REMARK    4  A    between atoms: C_14  and  C_15
REMARK                            x       y       z     vdW  Elec       q    Type
REMARK                         _______ _______ _______ _____ _____    ______ ____
ROOT
ATOM      1  C   UNL     1      46.619  10.613  11.994  0.00  0.00    +0.000 C 
ATOM      2  C   UNL     1      47.816  11.534  12.211  0.00  0.00    +0.000 C 
ATOM      3  C   UNL     1      47.496  11.049  10.837  0.00  0.00    +0.000 C 
ENDROOT
BRANCH   1  11
ATOM      4  C   UNL     1      40.595  11.109  11.836  0.00  0.00    +0.000 C 
ATOM      5  C   UNL     1      41.928  11.060  11.155  0.00  0.00    +0.000 A 
ATOM      6  C   UNL     1      42.031  10.938   9.793  0.00  0.00    +0.000 A 
ATOM      7  C   UNL     1      43.315  10.882   9.313  0.00  0.00    +0.000 A 
ATOM      8 CL   UNL     1      43.609  10.763   7.625  0.00  0.00    +0.000 Cl
ATOM      9  N   UNL     1      44.425  10.925  10.065  0.00  0.00    +0.000 NA
ATOM     10  C   UNL     1      44.232  11.071  11.376  0.00  0.00    +0.000 A 
ATOM     11  N   UNL     1      45.306  11.217  12.254  0.00  0.00    +0.000 N 
ATOM     12  N   UNL     1      43.018  11.134  11.949  0.00  0.00    +0.000 NA
ATOM     13  H   UNL     1      44.921  11.153  13.190  0.00  0.00    +0.000 HD
ENDBRANCH   1  11
BRANCH   1  14
ATOM     14  C   UNL     1      46.742   9.174  12.465  0.00  0.00    +0.000 A 
ATOM     15  C   UNL     1      47.717   8.770  13.367  0.00  0.00    +0.000 A 
ATOM     16  N   UNL     1      47.824   7.508  13.833  0.00  0.00    +0.000 NA
ATOM     17  N   UNL     1      46.940   6.558  13.402  0.00  0.00    +0.000 NA
ATOM     18  C   UNL     1      45.979   6.871  12.503  0.00  0.00    +0.000 A 
ATOM     19  C   UNL     1      45.870   8.172  12.022  0.00  0.00    +0.000 A 
BRANCH  18  20
ATOM     20  C   UNL     1      45.076   5.780  12.090  0.00  0.00    +0.000 A 
ATOM     21  C   UNL     1      44.306   5.080  13.036  0.00  0.00    +0.000 A 
ATOM     22  C   UNL     1      43.446   4.044  12.653  0.00  0.00    +0.000 A 
ATOM     23  C   UNL     1      43.341   3.684  11.314  0.00  0.00    +0.000 A 
ATOM     24  C   UNL     1      44.092   4.359  10.356  0.00  0.00    +0.000 A 
ATOM     25  C   UNL     1      44.951   5.393  10.741  0.00  0.00    +0.000 A 
ENDBRANCH  18  20
ENDBRANCH   1  14
TORSDOF 3
ENDMDL
