MODEL 1
REMARK VINA RESULT:    -7.996      0.000      0.000
REMARK INTER + INTRA:         -11.673
REMARK INTER:                 -10.801
REMARK INTRA:                  -0.871
REMARK UNBOUND:                -0.871
REMARK  Name = 
REMARK  7 active torsions:
REMARK  status: ('A' for Active; 'I' for Inactive)
REMARK    1  A    between atoms: C_1  and  N_2
REMARK    2  A    between atoms: C_4  and  C_5
REMARK    3  A    between atoms: N_7  and  C_8
REMARK    4  A    between atoms: C_8  and  C_9
REMARK    5  A    between atoms: C_12  and  N_13
REMARK    6  A    between atoms: N_13  and  C_14
REMARK    7  A    between atoms: C_14  and  C_15
REMARK                            x       y       z     vdW  Elec       q    Type
REMARK                         _______ _______ _______ _____ _____    ______ ____
ROOT
ATOM      1  C   UNL     1      45.962   4.654  14.804  0.00  0.00    +0.000 C 
ENDROOT
BRANCH   1   2
ATOM      2  C   UNL     1      45.838   4.705  13.309  0.00  0.00    +0.000 A 
ATOM      3  C   UNL     1      46.340   5.803  12.603  0.00  0.00    +0.000 A 
ATOM      4  C   UNL     1      46.224   5.869  11.212  0.00  0.00    +0.000 A 
ATOM      5  C   UNL     1      45.626   4.835  10.490  0.00  0.00    +0.000 A 
ATOM      6  C   UNL     1      45.130   3.737  11.204  0.00  0.00    +0.000 A 
ATOM      7  C   UNL     1      45.231   3.668  12.596  0.00  0.00    +0.000 A 
BRANCH   5   8
ATOM      8  N   UNL     1      45.380   4.887   9.131  0.00  0.00    +0.000 N 
ATOM      9  H   UNL     1      45.414   5.818   8.731  0.00  0.00    +0.000 HD
BRANCH   8  10
ATOM     10  C   UNL     1      44.570   3.906   8.433  0.00  0.00    +0.000 C 
BRANCH  10  11
ATOM     11  C   UNL     1      45.488   2.995   7.610  0.00  0.00    +0.000 C 
ATOM     12  C   UNL     1      45.852   1.726   8.388  0.00  0.00    +0.000 C 
ATOM     13  C   UNL     1      46.839   0.882   7.591  0.00  0.00    +0.000 C 
ATOM     14  O   UNL     1      48.002   1.638   7.260  0.00  0.00    +0.000 OA
ATOM     15  C   UNL     1      47.699   2.770   6.448  0.00  0.00    +0.000 C 
ATOM     16  C   UNL     1      46.772   3.723   7.183  0.00  0.00    +0.000 C 
ENDBRANCH  10  11
ENDBRANCH   8  10
ENDBRANCH   5   8
ENDBRANCH   1   2
BRANCH   1  19
ATOM     17  C   UNL     1      47.476   3.766  16.483  0.00  0.00    +0.000 C 
ATOM     18  O   UNL     1      46.512   3.442  17.167  0.00  0.00    +0.000 OA
ATOM     19  N   UNL     1      47.302   4.388  15.263  0.00  0.00    +0.000 N 
ATOM     20  H   UNL     1      48.127   4.627  14.722  0.00  0.00    +0.000 HD
BRANCH  17  24
ATOM     21  C   UNL     1      51.595   1.329  17.306  0.00  0.00    +0.000 C 
ATOM     22  N   UNL     1      50.679   2.441  17.235  0.00  0.00    +0.000 N 
ATOM     23  N   UNL     1      49.408   2.274  16.805  0.00  0.00    +0.000 NA
ATOM     24  C   UNL     1      48.873   3.519  16.881  0.00  0.00    +0.000 A 
ATOM     25  C   UNL     1      49.827   4.469  17.363  0.00  0.00    +0.000 A 
ATOM     26  C   UNL     1      49.958   5.820  17.668  0.00  0.00    +0.000 A 
ATOM     27 CL   UNL     1      48.689   6.924  17.494  0.00  0.00    +0.000 Cl
ATOM     28  N   UNL     1      51.112   6.335  18.127  0.00  0.00    +0.000 NA
ATOM     29  C   UNL     1      52.141   5.493  18.281  0.00  0.00    +0.000 A 
ATOM     30  N   UNL     1      52.163   4.175  18.032  0.00  0.00    +0.000 NA
ATOM     31  C   UNL     1      50.976   3.724  17.574  0.00  0.00    +0.000 A 
ENDBRANCH  17  24
ENDBRANCH   1  19
TORSDOF 6
ENDMDL
MODEL 2
REMARK VINA RESULT:    -7.858      2.106      3.138
REMARK INTER + INTRA:         -11.485
REMARK INTER:                 -10.376
REMARK INTRA:                  -1.109
REMARK UNBOUND:                -0.871
REMARK  Name = 
REMARK  7 active torsions:
REMARK  status: ('A' for Active; 'I' for Inactive)
REMARK    1  A    between atoms: C_1  and  N_2
REMARK    2  A    between atoms: C_4  and  C_5
REMARK    3  A    between atoms: N_7  and  C_8
REMARK    4  A    between atoms: C_8  and  C_9
REMARK    5  A    between atoms: C_12  and  N_13
REMARK    6  A    between atoms: N_13  and  C_14
REMARK    7  A    between atoms: C_14  and  C_15
REMARK                            x       y       z     vdW  Elec       q    Type
REMARK                         _______ _______ _______ _____ _____    ______ ____
ROOT
ATOM      1  C   UNL     1      46.973   8.021  13.139  0.00  0.00    +0.000 C 
ENDROOT
BRANCH   1   2
ATOM      2  C   UNL     1      46.369   6.925  12.311  0.00  0.00    +0.000 A 
ATOM      3  C   UNL     1      45.533   5.977  12.909  0.00  0.00    +0.000 A 
ATOM      4  C   UNL     1      44.971   4.944  12.151  0.00  0.00    +0.000 A 
ATOM      5  C   UNL     1      45.209   4.846  10.780  0.00  0.00    +0.000 A 
ATOM      6  C   UNL     1      46.043   5.803  10.188  0.00  0.00    +0.000 A 
ATOM      7  C   UNL     1      46.620   6.830  10.939  0.00  0.00    +0.000 A 
BRANCH   5   8
ATOM      8  N   UNL     1      44.777   3.793   9.997  0.00  0.00    +0.000 N 
ATOM      9  H   UNL     1      45.109   2.882  10.295  0.00  0.00    +0.000 HD
BRANCH   8  10
ATOM     10  C   UNL     1      44.430   3.935   8.595  0.00  0.00    +0.000 C 
BRANCH  10  11
ATOM     11  C   UNL     1      45.298   2.981   7.767  0.00  0.00    +0.000 C 
ATOM     12  C   UNL     1      45.729   1.764   8.595  0.00  0.00    +0.000 C 
ATOM     13  C   UNL     1      46.667   0.879   7.783  0.00  0.00    +0.000 C 
ATOM     14  O   UNL     1      47.796   1.620   7.327  0.00  0.00    +0.000 OA
ATOM     15  C   UNL     1      47.426   2.697   6.469  0.00  0.00    +0.000 C 
ATOM     16  C   UNL     1      46.542   3.689   7.208  0.00  0.00    +0.000 C 
ENDBRANCH  10  11
ENDBRANCH   8  10
ENDBRANCH   5   8
ENDBRANCH   1   2
BRANCH   1  19
ATOM     17  C   UNL     1      48.568   6.911  14.596  0.00  0.00    +0.000 C 
ATOM     18  O   UNL     1      49.274   6.669  13.623  0.00  0.00    +0.000 OA
ATOM     19  N   UNL     1      47.377   7.594  14.455  0.00  0.00    +0.000 N 
ATOM     20  H   UNL     1      46.830   7.785  15.288  0.00  0.00    +0.000 HD
BRANCH  17  24
ATOM     21  C   UNL     1      50.432   7.219  19.070  0.00  0.00    +0.000 C 
ATOM     22  N   UNL     1      49.737   6.662  17.936  0.00  0.00    +0.000 N 
ATOM     23  N   UNL     1      49.618   7.351  16.779  0.00  0.00    +0.000 NA
ATOM     24  C   UNL     1      48.919   6.515  15.971  0.00  0.00    +0.000 A 
ATOM     25  C   UNL     1      48.600   5.290  16.638  0.00  0.00    +0.000 A 
ATOM     26  C   UNL     1      47.954   4.076  16.432  0.00  0.00    +0.000 A 
ATOM     27 CL   UNL     1      47.213   3.671  14.967  0.00  0.00    +0.000 Cl
ATOM     28  N   UNL     1      47.881   3.139  17.394  0.00  0.00    +0.000 NA
ATOM     29  C   UNL     1      48.458   3.420  18.569  0.00  0.00    +0.000 A 
ATOM     30  N   UNL     1      49.112   4.539  18.911  0.00  0.00    +0.000 NA
ATOM     31  C   UNL     1      49.148   5.436  17.903  0.00  0.00    +0.000 A 
ENDBRANCH  17  24
ENDBRANCH   1  19
TORSDOF 6
ENDMDL
MODEL 3
REMARK VINA RESULT:    -7.657      1.948      2.469
REMARK INTER + INTRA:         -11.215
REMARK INTER:                 -10.315
REMARK INTRA:                  -0.900
REMARK UNBOUND:                -0.871
REMARK  Name = 
REMARK  7 active torsions:
REMARK  status: ('A' for Active; 'I' for Inactive)
REMARK    1  A    between atoms: C_1  and  N_2
REMARK    2  A    between atoms: C_4  and  C_5
REMARK    3  A    between atoms: N_7  and  C_8
REMARK    4  A    between atoms: C_8  and  C_9
REMARK    5  A    between atoms: C_12  and  N_13
REMARK    6  A    between atoms: N_13  and  C_14
REMARK    7  A    between atoms: C_14  and  C_15
REMARK                            x       y       z     vdW  Elec       q    Type
REMARK                         _______ _______ _______ _____ _____    ______ ____
ROOT
ATOM      1  C   UNL     1      47.582   7.008  13.706  0.00  0.00    +0.000 C 
ENDROOT
BRANCH   1   2
ATOM      2  C   UNL     1      46.734   6.179  12.786  0.00  0.00    +0.000 A 
ATOM      3  C   UNL     1      46.281   4.922  13.196  0.00  0.00    +0.000 A 
ATOM      4  C   UNL     1      45.499   4.134  12.346  0.00  0.00    +0.000 A 
ATOM      5  C   UNL     1      45.131   4.590  11.080  0.00  0.00    +0.000 A 
ATOM      6  C   UNL     1      45.585   5.852  10.678  0.00  0.00    +0.000 A 
ATOM      7  C   UNL     1      46.377   6.641  11.516  0.00  0.00    +0.000 A 
BRANCH   5   8
ATOM      8  N   UNL     1      44.456   3.820  10.151  0.00  0.00    +0.000 N 
ATOM      9  H   UNL     1      44.412   2.832  10.374  0.00  0.00    +0.000 HD
BRANCH   8  10
ATOM     10  C   UNL     1      44.351   4.178   8.748  0.00  0.00    +0.000 C 
BRANCH  10  11
ATOM     11  C   UNL     1      45.148   3.167   7.915  0.00  0.00    +0.000 C 
ATOM     12  C   UNL     1      45.551   1.950   8.756  0.00  0.00    +0.000 C 
ATOM     13  C   UNL     1      46.421   1.006   7.936  0.00  0.00    +0.000 C 
ATOM     14  O   UNL     1      47.568   1.685   7.428  0.00  0.00    +0.000 OA
ATOM     15  C   UNL     1      47.218   2.760   6.558  0.00  0.00    +0.000 C 
ATOM     16  C   UNL     1      46.404   3.806   7.302  0.00  0.00    +0.000 C 
ENDBRANCH  10  11
ENDBRANCH   8  10
ENDBRANCH   5   8
ENDBRANCH   1   2
BRANCH   1  19
ATOM     17  C   UNL     1      48.866   6.940  15.767  0.00  0.00    +0.000 C 
ATOM     18  O   UNL     1      49.096   8.138  15.651  0.00  0.00    +0.000 OA
ATOM     19  N   UNL     1      48.104   6.272  14.829  0.00  0.00    +0.000 N 
ATOM     20  H   UNL     1      47.926   5.283  14.970  0.00  0.00    +0.000 HD
BRANCH  17  24
ATOM     21  C   UNL     1      51.287   3.449  18.120  0.00  0.00    +0.000 C 
ATOM     22  N   UNL     1      50.427   4.589  17.916  0.00  0.00    +0.000 N 
ATOM     23  N   UNL     1      50.193   5.077  16.676  0.00  0.00    +0.000 NA
ATOM     24  C   UNL     1      49.357   6.124  16.891  0.00  0.00    +0.000 A 
ATOM     25  C   UNL     1      49.070   6.287  18.282  0.00  0.00    +0.000 A 
ATOM     26  C   UNL     1      48.345   7.089  19.157  0.00  0.00    +0.000 A 
ATOM     27 CL   UNL     1      47.393   8.385  18.633  0.00  0.00    +0.000 Cl
ATOM     28  N   UNL     1      48.355   6.881  20.485  0.00  0.00    +0.000 NA
ATOM     29  C   UNL     1      49.095   5.862  20.941  0.00  0.00    +0.000 A 
ATOM     30  N   UNL     1      49.840   5.009  20.223  0.00  0.00    +0.000 NA
ATOM     31  C   UNL     1      49.786   5.275  18.901  0.00  0.00    +0.000 A 
ENDBRANCH  17  24
ENDBRANCH   1  19
TORSDOF 6
ENDMDL
MODEL 4
REMARK VINA RESULT:    -7.588      2.462      3.707
REMARK INTER + INTRA:         -11.120
REMARK INTER:                 -10.227
REMARK INTRA:                  -0.894
REMARK UNBOUND:                -0.871
REMARK  Name = 
REMARK  7 active torsions:
REMARK  status: ('A' for Active; 'I' for Inactive)
REMARK    1  A    between atoms: C_1  and  N_2
REMARK    2  A    between atoms: C_4  and  C_5
REMARK    3  A    between atoms: N_7  and  C_8
REMARK    4  A    between atoms: C_8  and  C_9
REMARK    5  A    between atoms: C_12  and  N_13
REMARK    6  A    between atoms: N_13  and  C_14
REMARK    7  A    between atoms: C_14  and  C_15
REMARK                            x       y       z     vdW  Elec       q    Type
REMARK                         _______ _______ _______ _____ _____    ______ ____
ROOT
ATOM      1  C   UNL     1      48.236   6.710  13.458  0.00  0.00    +0.000 C 
ENDROOT
BRANCH   1   2
ATOM      2  C   UNL     1      47.132   6.033  12.701  0.00  0.00    +0.000 A 
ATOM      3  C   UNL     1      46.542   4.873  13.212  0.00  0.00    +0.000 A 
ATOM      4  C   UNL     1      45.519   4.226  12.513  0.00  0.00    +0.000 A 
ATOM      5  C   UNL     1      45.045   4.730  11.301  0.00  0.00    +0.000 A 
ATOM      6  C   UNL     1      45.637   5.895  10.798  0.00  0.00    +0.000 A 
ATOM      7  C   UNL     1      46.669   6.541  11.483  0.00  0.00    +0.000 A 
BRANCH   5   8
ATOM      8  N   UNL     1      44.117   4.082  10.508  0.00  0.00    +0.000 N 
ATOM      9  H   UNL     1      43.159   4.384  10.647  0.00  0.00    +0.000 HD
BRANCH   8  10
ATOM     10  C   UNL     1      44.310   2.737   9.998  0.00  0.00    +0.000 C 
BRANCH  10  11
ATOM     11  C   UNL     1      45.518   2.730   9.055  0.00  0.00    +0.000 C 
ATOM     12  C   UNL     1      45.322   3.713   7.895  0.00  0.00    +0.000 C 
ATOM     13  C   UNL     1      46.489   3.620   6.920  0.00  0.00    +0.000 C 
ATOM     14  O   UNL     1      46.650   2.285   6.445  0.00  0.00    +0.000 OA
ATOM     15  C   UNL     1      46.936   1.367   7.498  0.00  0.00    +0.000 C 
ATOM     16  C   UNL     1      45.792   1.324   8.497  0.00  0.00    +0.000 C 
ENDBRANCH  10  11
ENDBRANCH   8  10
ENDBRANCH   5   8
ENDBRANCH   1   2
BRANCH   1  19
ATOM     17  C   UNL     1      48.953   6.767  15.778  0.00  0.00    +0.000 C 
ATOM     18  O   UNL     1      50.088   6.472  15.424  0.00  0.00    +0.000 OA
ATOM     19  N   UNL     1      47.938   6.912  14.854  0.00  0.00    +0.000 N 
ATOM     20  H   UNL     1      47.015   7.171  15.188  0.00  0.00    +0.000 HD
BRANCH  17  24
ATOM     21  C   UNL     1      47.392   9.124  19.726  0.00  0.00    +0.000 C 
ATOM     22  N   UNL     1      47.884   8.041  18.911  0.00  0.00    +0.000 N 
ATOM     23  N   UNL     1      48.137   8.215  17.594  0.00  0.00    +0.000 NA
ATOM     24  C   UNL     1      48.575   6.999  17.183  0.00  0.00    +0.000 A 
ATOM     25  C   UNL     1      48.593   6.058  18.261  0.00  0.00    +0.000 A 
ATOM     26  C   UNL     1      48.904   4.732  18.542  0.00  0.00    +0.000 A 
ATOM     27 CL   UNL     1      49.483   3.660  17.370  0.00  0.00    +0.000 Cl
ATOM     28  N   UNL     1      48.765   4.217  19.777  0.00  0.00    +0.000 NA
ATOM     29  C   UNL     1      48.311   5.035  20.735  0.00  0.00    +0.000 A 
ATOM     30  N   UNL     1      47.974   6.327  20.614  0.00  0.00    +0.000 NA
ATOM     31  C   UNL     1      48.136   6.779  19.353  0.00  0.00    +0.000 A 
ENDBRANCH  17  24
ENDBRANCH   1  19
TORSDOF 6
ENDMDL
MODEL 5
REMARK VINA RESULT:    -7.526      3.606      5.042
REMARK INTER + INTRA:         -11.038
REMARK INTER:                  -9.940
REMARK INTRA:                  -1.098
REMARK UNBOUND:                -0.871
REMARK  Name = 
REMARK  7 active torsions:
REMARK  status: ('A' for Active; 'I' for Inactive)
REMARK    1  A    between atoms: C_1  and  N_2
REMARK    2  A    between atoms: C_4  and  C_5
REMARK    3  A    between atoms: N_7  and  C_8
REMARK    4  A    between atoms: C_8  and  C_9
REMARK    5  A    between atoms: C_12  and  N_13
REMARK    6  A    between atoms: N_13  and  C_14
REMARK    7  A    between atoms: C_14  and  C_15
REMARK                            x       y       z     vdW  Elec       q    Type
REMARK                         _______ _______ _______ _____ _____    ______ ____
ROOT
ATOM      1  C   UNL     1      46.557   5.135  14.109  0.00  0.00    +0.000 C 
ENDROOT
BRANCH   1   2
ATOM      2  C   UNL     1      45.903   4.717  12.824  0.00  0.00    +0.000 A 
ATOM      3  C   UNL     1      45.482   3.395  12.651  0.00  0.00    +0.000 A 
ATOM      4  C   UNL     1      44.881   2.989  11.456  0.00  0.00    +0.000 A 
ATOM      5  C   UNL     1      44.665   3.894  10.416  0.00  0.00    +0.000 A 
ATOM      6  C   UNL     1      45.085   5.218  10.599  0.00  0.00    +0.000 A 
ATOM      7  C   UNL     1      45.698   5.629  11.785  0.00  0.00    +0.000 A 
BRANCH   5   8
ATOM      8  N   UNL     1      44.179   3.536   9.173  0.00  0.00    +0.000 N 
ATOM      9  H   UNL     1      43.626   2.686   9.165  0.00  0.00    +0.000 HD
BRANCH   8  10
ATOM     10  C   UNL     1      44.832   3.902   7.929  0.00  0.00    +0.000 C 
BRANCH  10  11
ATOM     11  C   UNL     1      46.062   3.009   7.731  0.00  0.00    +0.000 C 
ATOM     12  C   UNL     1      46.597   3.113   6.298  0.00  0.00    +0.000 C 
ATOM     13  C   UNL     1      47.759   2.148   6.096  0.00  0.00    +0.000 C 
ATOM     14  O   UNL     1      47.368   0.812   6.407  0.00  0.00    +0.000 OA
ATOM     15  C   UNL     1      46.963   0.668   7.766  0.00  0.00    +0.000 C 
ATOM     16  C   UNL     1      45.753   1.540   8.059  0.00  0.00    +0.000 C 
ENDBRANCH  10  11
ENDBRANCH   8  10
ENDBRANCH   5   8
ENDBRANCH   1   2
BRANCH   1  19
ATOM     17  C   UNL     1      48.229   6.810  14.653  0.00  0.00    +0.000 C 
ATOM     18  O   UNL     1      48.943   5.930  15.122  0.00  0.00    +0.000 OA
ATOM     19  N   UNL     1      46.996   6.507  14.113  0.00  0.00    +0.000 N 
ATOM     20  H   UNL     1      46.442   7.264  13.723  0.00  0.00    +0.000 HD
BRANCH  17  24
ATOM     21  C   UNL     1      49.324  11.259  16.261  0.00  0.00    +0.000 C 
ATOM     22  N   UNL     1      49.097  10.182  15.329  0.00  0.00    +0.000 N 
ATOM     23  N   UNL     1      48.729   8.953  15.757  0.00  0.00    +0.000 NA
ATOM     24  C   UNL     1      48.613   8.232  14.613  0.00  0.00    +0.000 A 
ATOM     25  C   UNL     1      48.915   9.025  13.462  0.00  0.00    +0.000 A 
ATOM     26  C   UNL     1      48.993   8.945  12.076  0.00  0.00    +0.000 A 
ATOM     27 CL   UNL     1      48.658   7.525  11.221  0.00  0.00    +0.000 Cl
ATOM     28  N   UNL     1      49.340  10.003  11.322  0.00  0.00    +0.000 NA
ATOM     29  C   UNL     1      49.611  11.149  11.960  0.00  0.00    +0.000 A 
ATOM     30  N   UNL     1      49.577  11.375  13.282  0.00  0.00    +0.000 NA
ATOM     31  C   UNL     1      49.224  10.274  13.978  0.00  0.00    +0.000 A 
ENDBRANCH  17  24
ENDBRANCH   1  19
TORSDOF 6
ENDMDL
MODEL 6
REMARK VINA RESULT:    -7.232      1.778      2.810
REMARK INTER + INTRA:         -10.640
REMARK INTER:                  -9.523
REMARK INTRA:                  -1.117
REMARK UNBOUND:                -0.871
REMARK  Name = 
REMARK  7 active torsions:
REMARK  status: ('A' for Active; 'I' for Inactive)
REMARK    1  A    between atoms: C_1  and  N_2
REMARK    2  A    between atoms: C_4  and  C_5
REMARK    3  A    between atoms: N_7  and  C_8
REMARK    4  A    between atoms: C_8  and  C_9
REMARK    5  A    between atoms: C_12  and  N_13
REMARK    6  A    between atoms: N_13  and  C_14
REMARK    7  A    between atoms: C_14  and  C_15
REMARK                            x       y       z     vdW  Elec       q    Type
REMARK                         _______ _______ _______ _____ _____    ______ ____
ROOT
ATOM      1  C   UNL     1      48.249   6.865  15.206  0.00  0.00    +0.000 C 
ENDROOT
BRANCH   1   2
ATOM      2  C   UNL     1      47.405   6.127  14.208  0.00  0.00    +0.000 A 
ATOM      3  C   UNL     1      47.059   6.737  12.999  0.00  0.00    +0.000 A 
ATOM      4  C   UNL     1      46.265   6.065  12.064  0.00  0.00    +0.000 A 
ATOM      5  C   UNL     1      45.818   4.765  12.302  0.00  0.00    +0.000 A 
ATOM      6  C   UNL     1      46.173   4.160  13.514  0.00  0.00    +0.000 A 
ATOM      7  C   UNL     1      46.955   4.828  14.459  0.00  0.00    +0.000 A 
BRANCH   5   8
ATOM      8  N   UNL     1      44.943   4.088  11.473  0.00  0.00    +0.000 N 
ATOM      9  H   UNL     1      45.030   3.078  11.503  0.00  0.00    +0.000 HD
BRANCH   8  10
ATOM     10  C   UNL     1      44.400   4.661  10.255  0.00  0.00    +0.000 C 
BRANCH  10  11
ATOM     11  C   UNL     1      44.816   3.790   9.065  0.00  0.00    +0.000 C 
ATOM     12  C   UNL     1      45.233   2.387   9.523  0.00  0.00    +0.000 C 
ATOM     13  C   UNL     1      45.733   1.571   8.338  0.00  0.00    +0.000 C 
ATOM     14  O   UNL     1      46.806   2.240   7.677  0.00  0.00    +0.000 OA
ATOM     15  C   UNL     1      46.412   3.505   7.151  0.00  0.00    +0.000 C 
ATOM     16  C   UNL     1      45.962   4.432   8.268  0.00  0.00    +0.000 C 
ENDBRANCH  10  11
ENDBRANCH   8  10
ENDBRANCH   5   8
ENDBRANCH   1   2
BRANCH   1  19
ATOM     17  C   UNL     1      49.505   5.804  16.994  0.00  0.00    +0.000 C 
ATOM     18  O   UNL     1      48.642   6.149  17.792  0.00  0.00    +0.000 OA
ATOM     19  N   UNL     1      49.398   6.119  15.654  0.00  0.00    +0.000 N 
ATOM     20  H   UNL     1      50.128   5.803  15.025  0.00  0.00    +0.000 HD
BRANCH  17  24
ATOM     21  C   UNL     1      54.027   4.904  18.519  0.00  0.00    +0.000 C 
ATOM     22  N   UNL     1      52.688   4.647  18.050  0.00  0.00    +0.000 N 
ATOM     23  N   UNL     1      51.832   5.660  17.784  0.00  0.00    +0.000 NA
ATOM     24  C   UNL     1      50.701   5.032  17.374  0.00  0.00    +0.000 A 
ATOM     25  C   UNL     1      50.859   3.611  17.387  0.00  0.00    +0.000 A 
ATOM     26  C   UNL     1      50.166   2.437  17.111  0.00  0.00    +0.000 A 
ATOM     27 CL   UNL     1      48.570   2.427  16.552  0.00  0.00    +0.000 Cl
ATOM     28  N   UNL     1      50.728   1.226  17.271  0.00  0.00    +0.000 NA
ATOM     29  C   UNL     1      51.993   1.190  17.710  0.00  0.00    +0.000 A 
ATOM     30  N   UNL     1      52.781   2.232  18.014  0.00  0.00    +0.000 NA
ATOM     31  C   UNL     1      52.156   3.413  17.833  0.00  0.00    +0.000 A 
ENDBRANCH  17  24
ENDBRANCH   1  19
TORSDOF 6
ENDMDL
MODEL 7
REMARK VINA RESULT:    -7.128      3.218      4.411
REMARK INTER + INTRA:         -10.499
REMARK INTER:                  -9.585
REMARK INTRA:                  -0.913
REMARK UNBOUND:                -0.871
REMARK  Name = 
REMARK  7 active torsions:
REMARK  status: ('A' for Active; 'I' for Inactive)
REMARK    1  A    between atoms: C_1  and  N_2
REMARK    2  A    between atoms: C_4  and  C_5
REMARK    3  A    between atoms: N_7  and  C_8
REMARK    4  A    between atoms: C_8  and  C_9
REMARK    5  A    between atoms: C_12  and  N_13
REMARK    6  A    between atoms: N_13  and  C_14
REMARK    7  A    between atoms: C_14  and  C_15
REMARK                            x       y       z     vdW  Elec       q    Type
REMARK                         _______ _______ _______ _____ _____    ______ ____
ROOT
ATOM      1  C   UNL     1      47.242   5.097  14.421  0.00  0.00    +0.000 C 
ENDROOT
BRANCH   1   2
ATOM      2  C   UNL     1      46.465   4.776  13.178  0.00  0.00    +0.000 A 
ATOM      3  C   UNL     1      46.225   5.772  12.227  0.00  0.00    +0.000 A 
ATOM      4  C   UNL     1      45.494   5.490  11.068  0.00  0.00    +0.000 A 
ATOM      5  C   UNL     1      45.006   4.206  10.821  0.00  0.00    +0.000 A 
ATOM      6  C   UNL     1      45.255   3.213  11.776  0.00  0.00    +0.000 A 
ATOM      7  C   UNL     1      45.973   3.489  12.942  0.00  0.00    +0.000 A 
BRANCH   5   8
ATOM      8  N   UNL     1      44.185   3.887   9.755  0.00  0.00    +0.000 N 
ATOM      9  H   UNL     1      43.467   3.204   9.965  0.00  0.00    +0.000 HD
BRANCH   8  10
ATOM     10  C   UNL     1      44.610   3.983   8.370  0.00  0.00    +0.000 C 
BRANCH  10  11
ATOM     11  C   UNL     1      45.839   3.091   8.162  0.00  0.00    +0.000 C 
ATOM     12  C   UNL     1      46.544   3.418   6.841  0.00  0.00    +0.000 C 
ATOM     13  C   UNL     1      47.704   2.458   6.609  0.00  0.00    +0.000 C 
ATOM     14  O   UNL     1      47.256   1.104   6.636  0.00  0.00    +0.000 OA
ATOM     15  C   UNL     1      46.689   0.747   7.894  0.00  0.00    +0.000 C 
ATOM     16  C   UNL     1      45.467   1.600   8.192  0.00  0.00    +0.000 C 
ENDBRANCH  10  11
ENDBRANCH   8  10
ENDBRANCH   5   8
ENDBRANCH   1   2
BRANCH   1  19
ATOM     17  C   UNL     1      48.600   6.889  15.340  0.00  0.00    +0.000 C 
ATOM     18  O   UNL     1      49.332   6.055  15.858  0.00  0.00    +0.000 OA
ATOM     19  N   UNL     1      47.509   6.503  14.587  0.00  0.00    +0.000 N 
ATOM     20  H   UNL     1      46.936   7.226  14.164  0.00  0.00    +0.000 HD
BRANCH  17  24
ATOM     21  C   UNL     1      49.816  11.413  14.061  0.00  0.00    +0.000 C 
ATOM     22  N   UNL     1      49.346  10.327  14.885  0.00  0.00    +0.000 N 
ATOM     23  N   UNL     1      49.297   9.061  14.413  0.00  0.00    +0.000 NA
ATOM     24  C   UNL     1      48.813   8.342  15.457  0.00  0.00    +0.000 A 
ATOM     25  C   UNL     1      48.559   9.175  16.591  0.00  0.00    +0.000 A 
ATOM     26  C   UNL     1      48.095   9.118  17.901  0.00  0.00    +0.000 A 
ATOM     27 CL   UNL     1      47.605   7.675  18.636  0.00  0.00    +0.000 Cl
ATOM     28  N   UNL     1      48.010  10.215  18.673  0.00  0.00    +0.000 NA
ATOM     29  C   UNL     1      48.391  11.378  18.130  0.00  0.00    +0.000 A 
ATOM     30  N   UNL     1      48.857  11.586  16.890  0.00  0.00    +0.000 NA
ATOM     31  C   UNL     1      48.916  10.447  16.170  0.00  0.00    +0.000 A 
ENDBRANCH  17  24
ENDBRANCH   1  19
TORSDOF 6
ENDMDL
MODEL 8
REMARK VINA RESULT:    -6.702      2.985      3.600
REMARK INTER + INTRA:          -9.924
REMARK INTER:                  -9.249
REMARK INTRA:                  -0.674
REMARK UNBOUND:                -0.871
REMARK  Name = 
REMARK  7 active torsions:
REMARK  status: ('A' for Active; 'I' for Inactive)
REMARK    1  A    between atoms: C_1  and  N_2
REMARK    2  A    between atoms: C_4  and  C_5
REMARK    3  A    between atoms: N_7  and  C_8
REMARK    4  A    between atoms: C_8  and  C_9
REMARK    5  A    between atoms: C_12  and  N_13
REMARK    6  A    between atoms: N_13  and  C_14
REMARK    7  A    between atoms: C_14  and  C_15
REMARK                            x       y       z     vdW  Elec       q    Type
REMARK                         _______ _______ _______ _____ _____    ______ ____
ROOT
ATOM      1  C   UNL     1      46.274   5.609  14.067  0.00  0.00    +0.000 C 
ENDROOT
BRANCH   1   2
ATOM      2  C   UNL     1      45.806   5.017  12.770  0.00  0.00    +0.000 A 
ATOM      3  C   UNL     1      45.641   5.834  11.648  0.00  0.00    +0.000 A 
ATOM      4  C   UNL     1      45.197   5.298  10.435  0.00  0.00    +0.000 A 
ATOM      5  C   UNL     1      44.929   3.935  10.307  0.00  0.00    +0.000 A 
ATOM      6  C   UNL     1      45.102   3.122  11.435  0.00  0.00    +0.000 A 
ATOM      7  C   UNL     1      45.533   3.651  12.654  0.00  0.00    +0.000 A 
BRANCH   5   8
ATOM      8  N   UNL     1      44.384   3.361   9.174  0.00  0.00    +0.000 N 
ATOM      9  H   UNL     1      44.091   2.397   9.288  0.00  0.00    +0.000 HD
BRANCH   8  10
ATOM     10  C   UNL     1      44.723   3.784   7.828  0.00  0.00    +0.000 C 
BRANCH  10  11
ATOM     11  C   UNL     1      45.643   2.736   7.192  0.00  0.00    +0.000 C 
ATOM     12  C   UNL     1      45.926   1.585   8.164  0.00  0.00    +0.000 C 
ATOM     13  C   UNL     1      46.916   0.604   7.547  0.00  0.00    +0.000 C 
ATOM     14  O   UNL     1      48.120   1.269   7.167  0.00  0.00    +0.000 OA
ATOM     15  C   UNL     1      47.894   2.277   6.185  0.00  0.00    +0.000 C 
ATOM     16  C   UNL     1      46.970   3.356   6.727  0.00  0.00    +0.000 C 
ENDBRANCH  10  11
ENDBRANCH   8  10
ENDBRANCH   5   8
ENDBRANCH   1   2
BRANCH   1  19
ATOM     17  C   UNL     1      48.461   6.421  14.743  0.00  0.00    +0.000 C 
ATOM     18  O   UNL     1      48.516   5.538  15.591  0.00  0.00    +0.000 OA
ATOM     19  N   UNL     1      47.362   6.542  13.917  0.00  0.00    +0.000 N 
ATOM     20  H   UNL     1      47.363   7.279  13.219  0.00  0.00    +0.000 HD
BRANCH  17  24
ATOM     21  C   UNL     1      51.721   9.123  12.365  0.00  0.00    +0.000 C 
ATOM     22  N   UNL     1      50.963   8.590  13.469  0.00  0.00    +0.000 N 
ATOM     23  N   UNL     1      50.015   7.644  13.277  0.00  0.00    +0.000 NA
ATOM     24  C   UNL     1      49.537   7.404  14.523  0.00  0.00    +0.000 A 
ATOM     25  C   UNL     1      50.197   8.213  15.501  0.00  0.00    +0.000 A 
ATOM     26  C   UNL     1      50.214   8.469  16.868  0.00  0.00    +0.000 A 
ATOM     27 CL   UNL     1      49.198   7.675  17.961  0.00  0.00    +0.000 Cl
ATOM     28  N   UNL     1      51.051   9.372  17.410  0.00  0.00    +0.000 NA
ATOM     29  C   UNL     1      51.875  10.021  16.579  0.00  0.00    +0.000 A 
ATOM     30  N   UNL     1      51.972   9.879  15.249  0.00  0.00    +0.000 NA
ATOM     31  C   UNL     1      51.106   8.961  14.771  0.00  0.00    +0.000 A 
ENDBRANCH  17  24
ENDBRANCH   1  19
TORSDOF 6
ENDMDL
MODEL 9
REMARK VINA RESULT:    -6.533      3.657     10.020
REMARK INTER + INTRA:          -9.696
REMARK INTER:                  -8.663
REMARK INTRA:                  -1.032
REMARK UNBOUND:                -0.871
REMARK  Name = 
REMARK  7 active torsions:
REMARK  status: ('A' for Active; 'I' for Inactive)
REMARK    1  A    between atoms: C_1  and  N_2
REMARK    2  A    between atoms: C_4  and  C_5
REMARK    3  A    between atoms: N_7  and  C_8
REMARK    4  A    between atoms: C_8  and  C_9
REMARK    5  A    between atoms: C_12  and  N_13
REMARK    6  A    between atoms: N_13  and  C_14
REMARK    7  A    between atoms: C_14  and  C_15
REMARK                            x       y       z     vdW  Elec       q    Type
REMARK                         _______ _______ _______ _____ _____    ______ ____
ROOT
ATOM      1  C   UNL     1      47.390   3.332  16.713  0.00  0.00    +0.000 C 
ENDROOT
BRANCH   1   2
ATOM      2  C   UNL     1      48.853   3.384  17.041  0.00  0.00    +0.000 A 
ATOM      3  C   UNL     1      49.616   2.212  17.024  0.00  0.00    +0.000 A 
ATOM      4  C   UNL     1      50.978   2.243  17.337  0.00  0.00    +0.000 A 
ATOM      5  C   UNL     1      51.616   3.444  17.653  0.00  0.00    +0.000 A 
ATOM      6  C   UNL     1      50.846   4.613  17.664  0.00  0.00    +0.000 A 
ATOM      7  C   UNL     1      49.482   4.590  17.364  0.00  0.00    +0.000 A 
BRANCH   5   8
ATOM      8  N   UNL     1      52.928   3.529  18.078  0.00  0.00    +0.000 N 
ATOM      9  H   UNL     1      53.613   3.563  17.331  0.00  0.00    +0.000 HD
BRANCH   8  10
ATOM     10  C   UNL     1      53.383   3.014  19.357  0.00  0.00    +0.000 C 
BRANCH  10  11
ATOM     11  C   UNL     1      53.638   4.191  20.306  0.00  0.00    +0.000 C 
ATOM     12  C   UNL     1      52.384   4.529  21.119  0.00  0.00    +0.000 C 
ATOM     13  C   UNL     1      52.630   5.759  21.984  0.00  0.00    +0.000 C 
ATOM     14  O   UNL     1      53.044   6.866  21.186  0.00  0.00    +0.000 OA
ATOM     15  C   UNL     1      54.267   6.612  20.499  0.00  0.00    +0.000 C 
ATOM     16  C   UNL     1      54.110   5.440  19.544  0.00  0.00    +0.000 C 
ENDBRANCH  10  11
ENDBRANCH   8  10
ENDBRANCH   5   8
ENDBRANCH   1   2
BRANCH   1  19
ATOM     17  C   UNL     1      46.908   4.202  14.497  0.00  0.00    +0.000 C 
ATOM     18  O   UNL     1      47.234   3.124  14.013  0.00  0.00    +0.000 OA
ATOM     19  N   UNL     1      46.952   4.409  15.861  0.00  0.00    +0.000 N 
ATOM     20  H   UNL     1      46.660   5.312  16.221  0.00  0.00    +0.000 HD
BRANCH  17  24
ATOM     21  C   UNL     1      46.859   8.634  12.513  0.00  0.00    +0.000 C 
ATOM     22  N   UNL     1      46.430   7.292  12.822  0.00  0.00    +0.000 N 
ATOM     23  N   UNL     1      47.149   6.501  13.650  0.00  0.00    +0.000 NA
ATOM     24  C   UNL     1      46.441   5.345  13.692  0.00  0.00    +0.000 A 
ATOM     25  C   UNL     1      45.268   5.421  12.878  0.00  0.00    +0.000 A 
ATOM     26  C   UNL     1      44.167   4.668  12.482  0.00  0.00    +0.000 A 
ATOM     27 CL   UNL     1      43.902   3.085  13.016  0.00  0.00    +0.000 Cl
ATOM     28  N   UNL     1      43.236   5.157  11.645  0.00  0.00    +0.000 NA
ATOM     29  C   UNL     1      43.407   6.408  11.200  0.00  0.00    +0.000 A 
ATOM     30  N   UNL     1      44.410   7.249  11.494  0.00  0.00    +0.000 NA
ATOM     31  C   UNL     1      45.308   6.696  12.336  0.00  0.00    +0.000 A 
ENDBRANCH  17  24
ENDBRANCH   1  19
TORSDOF 6
ENDMDL
