MODEL 1
REMARK VINA RESULT:    -7.844      0.000      0.000
REMARK INTER + INTRA:         -10.634
REMARK INTER:                  -9.908
REMARK INTRA:                  -0.726
REMARK UNBOUND:                -0.726
REMARK  Name = 
REMARK  5 active torsions:
REMARK  status: ('A' for Active; 'I' for Inactive)
REMARK    1  A    between atoms: N_1  and  C_2
REMARK    2  A    between atoms: C_7  and  C_8
REMARK    3  A    between atoms: C_8  and  C_9
REMARK    4  A    between atoms: C_9  and  C_10
REMARK    5  A    between atoms: C_14  and  C_15
REMARK                            x       y       z     vdW  Elec       q    Type
REMARK                         _______ _______ _______ _____ _____    ______ ____
ROOT
ATOM      1  C   UNL     1      45.143   4.882  10.938  0.00  0.00    +0.000 A 
ATOM      2  C   UNL     1      43.969   4.263  11.369  0.00  0.00    +0.000 A 
ATOM      3  C   UNL     1      43.833   3.957  12.716  0.00  0.00    +0.000 A 
ATOM      4  N   UNL     1      44.772   4.215  13.653  0.00  0.00    +0.000 NA
ATOM      5  C   UNL     1      45.916   4.815  13.246  0.00  0.00    +0.000 A 
ATOM      6  C   UNL     1      46.128   5.139  11.902  0.00  0.00    +0.000 A 
ENDROOT
BRANCH   5   7
ATOM      7  C   UNL     1      46.915   5.088  14.291  0.00  0.00    +0.000 A 
ATOM      8  C   UNL     1      47.006   4.325  15.468  0.00  0.00    +0.000 A 
ATOM      9  C   UNL     1      47.954   4.630  16.443  0.00  0.00    +0.000 A 
ATOM     10  C   UNL     1      48.803   5.697  16.221  0.00  0.00    +0.000 A 
ATOM     11  N   UNL     1      48.769   6.456  15.107  0.00  0.00    +0.000 NA
ATOM     12  C   UNL     1      47.835   6.129  14.174  0.00  0.00    +0.000 A 
ENDBRANCH   5   7
BRANCH   1  13
ATOM     13  C   UNL     1      45.446   5.200   9.489  0.00  0.00    +0.000 C 
BRANCH  13  14
ATOM     14  C   UNL     1      44.792   4.283   8.452  0.00  0.00    +0.000 C 
BRANCH  14  20
ATOM     15  C   UNL     1      45.633   1.865   8.449  0.00  0.00    +0.000 A 
ATOM     16  N   UNL     1      46.484   0.897   8.059  0.00  0.00    +0.000 NA
ATOM     17  C   UNL     1      47.445   1.226   7.168  0.00  0.00    +0.000 A 
ATOM     18  C   UNL     1      47.579   2.482   6.613  0.00  0.00    +0.000 A 
ATOM     19  C   UNL     1      46.693   3.471   7.025  0.00  0.00    +0.000 A 
ATOM     20  C   UNL     1      45.712   3.181   7.984  0.00  0.00    +0.000 A 
BRANCH  15  21
ATOM     21  N   UNL     1      44.640   1.446   9.328  0.00  0.00    +0.000 N 
ATOM     22  H   UNL     1      43.786   1.903   9.018  0.00  0.00    +0.000 HD
ATOM     23  H   UNL     1      44.538   0.439   9.323  0.00  0.00    +0.000 HD
ENDBRANCH  15  21
ENDBRANCH  14  20
ENDBRANCH  13  14
ENDBRANCH   1  13
TORSDOF 5
ENDMDL
MODEL 2
REMARK VINA RESULT:    -7.826      1.510      2.263
REMARK INTER + INTRA:         -10.611
REMARK INTER:                  -9.852
REMARK INTRA:                  -0.760
REMARK UNBOUND:                -0.726
REMARK  Name = 
REMARK  5 active torsions:
REMARK  status: ('A' for Active; 'I' for Inactive)
REMARK    1  A    between atoms: N_1  and  C_2
REMARK    2  A    between atoms: C_7  and  C_8
REMARK    3  A    between atoms: C_8  and  C_9
REMARK    4  A    between atoms: C_9  and  C_10
REMARK    5  A    between atoms: C_14  and  C_15
REMARK                            x       y       z     vdW  Elec       q    Type
REMARK                         _______ _______ _______ _____ _____    ______ ____
ROOT
ATOM      1  C   UNL     1      44.233   3.855  10.540  0.00  0.00    +0.000 A 
ATOM      2  C   UNL     1      43.150   3.921  11.416  0.00  0.00    +0.000 A 
ATOM      3  C   UNL     1      43.296   4.622  12.604  0.00  0.00    +0.000 A 
ATOM      4  N   UNL     1      44.430   5.251  12.982  0.00  0.00    +0.000 NA
ATOM      5  C   UNL     1      45.489   5.194  12.139  0.00  0.00    +0.000 A 
ATOM      6  C   UNL     1      45.419   4.493  10.931  0.00  0.00    +0.000 A 
ENDROOT
BRANCH   5   7
ATOM      7  C   UNL     1      46.707   5.895  12.576  0.00  0.00    +0.000 A 
ATOM      8  C   UNL     1      47.334   6.881  11.795  0.00  0.00    +0.000 A 
ATOM      9  C   UNL     1      48.498   7.506  12.237  0.00  0.00    +0.000 A 
ATOM     10  C   UNL     1      49.018   7.134  13.462  0.00  0.00    +0.000 A 
ATOM     11  N   UNL     1      48.455   6.203  14.258  0.00  0.00    +0.000 NA
ATOM     12  C   UNL     1      47.317   5.616  13.799  0.00  0.00    +0.000 A 
ENDBRANCH   5   7
BRANCH   1  13
ATOM     13  C   UNL     1      44.229   3.063   9.250  0.00  0.00    +0.000 C 
BRANCH  13  14
ATOM     14  C   UNL     1      45.306   1.982   9.125  0.00  0.00    +0.000 C 
BRANCH  14  20
ATOM     15  C   UNL     1      46.908   1.106   7.330  0.00  0.00    +0.000 A 
ATOM     16  N   UNL     1      47.697   1.269   6.251  0.00  0.00    +0.000 NA
ATOM     17  C   UNL     1      47.741   2.494   5.683  0.00  0.00    +0.000 A 
ATOM     18  C   UNL     1      47.001   3.571   6.126  0.00  0.00    +0.000 A 
ATOM     19  C   UNL     1      46.193   3.389   7.241  0.00  0.00    +0.000 A 
ATOM     20  C   UNL     1      46.156   2.144   7.887  0.00  0.00    +0.000 A 
BRANCH  15  21
ATOM     21  N   UNL     1      46.871  -0.191   7.832  0.00  0.00    +0.000 N 
ATOM     22  H   UNL     1      47.679  -0.274   8.445  0.00  0.00    +0.000 HD
ATOM     23  H   UNL     1      46.012  -0.371   8.335  0.00  0.00    +0.000 HD
ENDBRANCH  15  21
ENDBRANCH  14  20
ENDBRANCH  13  14
ENDBRANCH   1  13
TORSDOF 5
ENDMDL
MODEL 3
REMARK VINA RESULT:    -7.757      1.606      6.631
REMARK INTER + INTRA:         -10.524
REMARK INTER:                  -9.635
REMARK INTRA:                  -0.889
REMARK UNBOUND:                -0.726
REMARK  Name = 
REMARK  5 active torsions:
REMARK  status: ('A' for Active; 'I' for Inactive)
REMARK    1  A    between atoms: N_1  and  C_2
REMARK    2  A    between atoms: C_7  and  C_8
REMARK    3  A    between atoms: C_8  and  C_9
REMARK    4  A    between atoms: C_9  and  C_10
REMARK    5  A    between atoms: C_14  and  C_15
REMARK                            x       y       z     vdW  Elec       q    Type
REMARK                         _______ _______ _______ _____ _____    ______ ____
ROOT
ATOM      1  C   UNL     1      44.347   5.056  10.959  0.00  0.00    +0.000 A 
ATOM      2  C   UNL     1      43.559   4.101  11.600  0.00  0.00    +0.000 A 
ATOM      3  C   UNL     1      43.573   2.798  11.123  0.00  0.00    +0.000 A 
ATOM      4  N   UNL     1      44.302   2.383  10.064  0.00  0.00    +0.000 NA
ATOM      5  C   UNL     1      45.072   3.302   9.434  0.00  0.00    +0.000 A 
ATOM      6  C   UNL     1      45.097   4.638   9.851  0.00  0.00    +0.000 A 
ENDROOT
BRANCH   5   7
ATOM      7  C   UNL     1      45.859   2.818   8.289  0.00  0.00    +0.000 A 
ATOM      8  C   UNL     1      46.240   3.654   7.226  0.00  0.00    +0.000 A 
ATOM      9  C   UNL     1      46.968   3.150   6.150  0.00  0.00    +0.000 A 
ATOM     10  C   UNL     1      47.309   1.811   6.157  0.00  0.00    +0.000 A 
ATOM     11  N   UNL     1      46.980   0.965   7.155  0.00  0.00    +0.000 NA
ATOM     12  C   UNL     1      46.274   1.490   8.192  0.00  0.00    +0.000 A 
ENDBRANCH   5   7
BRANCH   1  13
ATOM     13  C   UNL     1      44.366   6.524  11.333  0.00  0.00    +0.000 C 
BRANCH  13  14
ATOM     14  C   UNL     1      44.945   6.855  12.712  0.00  0.00    +0.000 C 
BRANCH  14  20
ATOM     15  C   UNL     1      47.212   6.053  13.590  0.00  0.00    +0.000 A 
ATOM     16  N   UNL     1      48.558   6.086  13.627  0.00  0.00    +0.000 NA
ATOM     17  C   UNL     1      49.191   6.923  12.777  0.00  0.00    +0.000 A 
ATOM     18  C   UNL     1      48.539   7.716  11.854  0.00  0.00    +0.000 A 
ATOM     19  C   UNL     1      47.150   7.672  11.827  0.00  0.00    +0.000 A 
ATOM     20  C   UNL     1      46.455   6.850  12.727  0.00  0.00    +0.000 A 
BRANCH  15  21
ATOM     21  N   UNL     1      46.629   5.134  14.456  0.00  0.00    +0.000 N 
ATOM     22  H   UNL     1      46.579   4.259  13.938  0.00  0.00    +0.000 HD
ATOM     23  H   UNL     1      47.169   5.026  15.304  0.00  0.00    +0.000 HD
ENDBRANCH  15  21
ENDBRANCH  14  20
ENDBRANCH  13  14
ENDBRANCH   1  13
TORSDOF 5
ENDMDL
MODEL 4
REMARK VINA RESULT:    -7.361      2.645      7.122
REMARK INTER + INTRA:         -10.023
REMARK INTER:                  -9.385
REMARK INTRA:                  -0.638
REMARK UNBOUND:                -0.726
REMARK  Name = 
REMARK  5 active torsions:
REMARK  status: ('A' for Active; 'I' for Inactive)
REMARK    1  A    between atoms: N_1  and  C_2
REMARK    2  A    between atoms: C_7  and  C_8
REMARK    3  A    between atoms: C_8  and  C_9
REMARK    4  A    between atoms: C_9  and  C_10
REMARK    5  A    between atoms: C_14  and  C_15
REMARK                            x       y       z     vdW  Elec       q    Type
REMARK                         _______ _______ _______ _____ _____    ______ ____
ROOT
ATOM      1  C   UNL     1      44.223   5.144  11.035  0.00  0.00    +0.000 A 
ATOM      2  C   UNL     1      43.373   4.231  11.658  0.00  0.00    +0.000 A 
ATOM      3  C   UNL     1      43.334   2.927  11.184  0.00  0.00    +0.000 A 
ATOM      4  N   UNL     1      44.067   2.474  10.144  0.00  0.00    +0.000 NA
ATOM      5  C   UNL     1      44.896   3.352   9.531  0.00  0.00    +0.000 A 
ATOM      6  C   UNL     1      44.977   4.686   9.945  0.00  0.00    +0.000 A 
ENDROOT
BRANCH   5   7
ATOM      7  C   UNL     1      45.685   2.826   8.406  0.00  0.00    +0.000 A 
ATOM      8  C   UNL     1      46.051   3.617   7.304  0.00  0.00    +0.000 A 
ATOM      9  C   UNL     1      46.783   3.074   6.249  0.00  0.00    +0.000 A 
ATOM     10  C   UNL     1      47.141   1.742   6.316  0.00  0.00    +0.000 A 
ATOM     11  N   UNL     1      46.826   0.938   7.353  0.00  0.00    +0.000 NA
ATOM     12  C   UNL     1      46.117   1.501   8.367  0.00  0.00    +0.000 A 
ENDBRANCH   5   7
BRANCH   1  13
ATOM     13  C   UNL     1      44.305   6.610  11.406  0.00  0.00    +0.000 C 
BRANCH  13  14
ATOM     14  C   UNL     1      45.139   6.939  12.648  0.00  0.00    +0.000 C 
BRANCH  14  20
ATOM     15  C   UNL     1      45.954   9.350  12.365  0.00  0.00    +0.000 A 
ATOM     16  N   UNL     1      46.900  10.265  12.081  0.00  0.00    +0.000 NA
ATOM     17  C   UNL     1      48.146   9.819  11.813  0.00  0.00    +0.000 A 
ATOM     18  C   UNL     1      48.508   8.487  11.846  0.00  0.00    +0.000 A 
ATOM     19  C   UNL     1      47.521   7.554  12.140  0.00  0.00    +0.000 A 
ATOM     20  C   UNL     1      46.205   7.975  12.378  0.00  0.00    +0.000 A 
BRANCH  15  21
ATOM     21  N   UNL     1      44.708   9.881  12.681  0.00  0.00    +0.000 N 
ATOM     22  H   UNL     1      44.850  10.440  13.519  0.00  0.00    +0.000 HD
ATOM     23  H   UNL     1      44.339  10.443  11.925  0.00  0.00    +0.000 HD
ENDBRANCH  15  21
ENDBRANCH  14  20
ENDBRANCH  13  14
ENDBRANCH   1  13
TORSDOF 5
ENDMDL
MODEL 5
REMARK VINA RESULT:    -7.107      1.562      2.029
REMARK INTER + INTRA:          -9.702
REMARK INTER:                  -9.021
REMARK INTRA:                  -0.681
REMARK UNBOUND:                -0.726
REMARK  Name = 
REMARK  5 active torsions:
REMARK  status: ('A' for Active; 'I' for Inactive)
REMARK    1  A    between atoms: N_1  and  C_2
REMARK    2  A    between atoms: C_7  and  C_8
REMARK    3  A    between atoms: C_8  and  C_9
REMARK    4  A    between atoms: C_9  and  C_10
REMARK    5  A    between atoms: C_14  and  C_15
REMARK                            x       y       z     vdW  Elec       q    Type
REMARK                         _______ _______ _______ _____ _____    ______ ____
ROOT
ATOM      1  C   UNL     1      45.699   5.498  10.847  0.00  0.00    +0.000 A 
ATOM      2  C   UNL     1      45.009   4.621  11.684  0.00  0.00    +0.000 A 
ATOM      3  C   UNL     1      45.258   4.670  13.049  0.00  0.00    +0.000 A 
ATOM      4  N   UNL     1      46.136   5.514  13.632  0.00  0.00    +0.000 NA
ATOM      5  C   UNL     1      46.812   6.370  12.829  0.00  0.00    +0.000 A 
ATOM      6  C   UNL     1      46.623   6.368  11.442  0.00  0.00    +0.000 A 
ENDROOT
BRANCH   5   7
ATOM      7  C   UNL     1      47.756   7.281  13.496  0.00  0.00    +0.000 A 
ATOM      8  C   UNL     1      47.376   8.547  13.972  0.00  0.00    +0.000 A 
ATOM      9  C   UNL     1      48.307   9.388  14.580  0.00  0.00    +0.000 A 
ATOM     10  C   UNL     1      49.609   8.944  14.704  0.00  0.00    +0.000 A 
ATOM     11  N   UNL     1      50.028   7.736  14.275  0.00  0.00    +0.000 NA
ATOM     12  C   UNL     1      49.093   6.939  13.692  0.00  0.00    +0.000 A 
ENDBRANCH   5   7
BRANCH   1  13
ATOM     13  C   UNL     1      45.575   5.497   9.338  0.00  0.00    +0.000 C 
BRANCH  13  14
ATOM     14  C   UNL     1      44.770   4.342   8.734  0.00  0.00    +0.000 C 
BRANCH  14  20
ATOM     15  C   UNL     1      45.550   1.907   8.586  0.00  0.00    +0.000 A 
ATOM     16  N   UNL     1      46.365   0.941   8.123  0.00  0.00    +0.000 NA
ATOM     17  C   UNL     1      47.307   1.291   7.221  0.00  0.00    +0.000 A 
ATOM     18  C   UNL     1      47.457   2.570   6.725  0.00  0.00    +0.000 A 
ATOM     19  C   UNL     1      46.609   3.557   7.212  0.00  0.00    +0.000 A 
ATOM     20  C   UNL     1      45.649   3.243   8.185  0.00  0.00    +0.000 A 
BRANCH  15  21
ATOM     21  N   UNL     1      44.573   1.468   9.473  0.00  0.00    +0.000 N 
ATOM     22  H   UNL     1      44.597   2.118  10.255  0.00  0.00    +0.000 HD
ATOM     23  H   UNL     1      43.658   1.451   9.041  0.00  0.00    +0.000 HD
ENDBRANCH  15  21
ENDBRANCH  14  20
ENDBRANCH  13  14
ENDBRANCH   1  13
TORSDOF 5
ENDMDL
MODEL 6
REMARK VINA RESULT:    -6.946      1.606      3.118
REMARK INTER + INTRA:          -9.499
REMARK INTER:                  -8.737
REMARK INTRA:                  -0.762
REMARK UNBOUND:                -0.726
REMARK  Name = 
REMARK  5 active torsions:
REMARK  status: ('A' for Active; 'I' for Inactive)
REMARK    1  A    between atoms: N_1  and  C_2
REMARK    2  A    between atoms: C_7  and  C_8
REMARK    3  A    between atoms: C_8  and  C_9
REMARK    4  A    between atoms: C_9  and  C_10
REMARK    5  A    between atoms: C_14  and  C_15
REMARK                            x       y       z     vdW  Elec       q    Type
REMARK                         _______ _______ _______ _____ _____    ______ ____
ROOT
ATOM      1  C   UNL     1      46.833   6.545  12.114  0.00  0.00    +0.000 A 
ATOM      2  C   UNL     1      48.004   7.255  11.846  0.00  0.00    +0.000 A 
ATOM      3  C   UNL     1      49.021   7.242  12.790  0.00  0.00    +0.000 A 
ATOM      4  N   UNL     1      48.956   6.587  13.969  0.00  0.00    +0.000 NA
ATOM      5  C   UNL     1      47.825   5.894  14.240  0.00  0.00    +0.000 A 
ATOM      6  C   UNL     1      46.752   5.873  13.342  0.00  0.00    +0.000 A 
ENDROOT
BRANCH   5   7
ATOM      7  C   UNL     1      47.788   5.185  15.530  0.00  0.00    +0.000 A 
ATOM      8  C   UNL     1      48.620   5.533  16.607  0.00  0.00    +0.000 A 
ATOM      9  C   UNL     1      48.568   4.823  17.805  0.00  0.00    +0.000 A 
ATOM     10  C   UNL     1      47.677   3.772  17.907  0.00  0.00    +0.000 A 
ATOM     11  N   UNL     1      46.847   3.401  16.911  0.00  0.00    +0.000 NA
ATOM     12  C   UNL     1      46.920   4.118  15.757  0.00  0.00    +0.000 A 
ENDBRANCH   5   7
BRANCH   1  13
ATOM     13  C   UNL     1      45.624   6.538  11.204  0.00  0.00    +0.000 C 
BRANCH  13  14
ATOM     14  C   UNL     1      44.700   5.323  11.329  0.00  0.00    +0.000 C 
BRANCH  14  20
ATOM     15  C   UNL     1      44.473   2.991  10.296  0.00  0.00    +0.000 A 
ATOM     16  N   UNL     1      44.694   2.091   9.319  0.00  0.00    +0.000 NA
ATOM     17  C   UNL     1      45.347   2.511   8.213  0.00  0.00    +0.000 A 
ATOM     18  C   UNL     1      45.768   3.811   8.018  0.00  0.00    +0.000 A 
ATOM     19  C   UNL     1      45.534   4.728   9.035  0.00  0.00    +0.000 A 
ATOM     20  C   UNL     1      44.901   4.319  10.218  0.00  0.00    +0.000 A 
BRANCH  15  21
ATOM     21  N   UNL     1      43.753   2.505  11.382  0.00  0.00    +0.000 N 
ATOM     22  H   UNL     1      43.733   3.262  12.062  0.00  0.00    +0.000 HD
ATOM     23  H   UNL     1      42.817   2.228  11.115  0.00  0.00    +0.000 HD
ENDBRANCH  15  21
ENDBRANCH  14  20
ENDBRANCH  13  14
ENDBRANCH   1  13
TORSDOF 5
ENDMDL
MODEL 7
REMARK VINA RESULT:    -6.897      2.634      3.625
REMARK INTER + INTRA:          -9.438
REMARK INTER:                  -8.694
REMARK INTRA:                  -0.743
REMARK UNBOUND:                -0.726
REMARK  Name = 
REMARK  5 active torsions:
REMARK  status: ('A' for Active; 'I' for Inactive)
REMARK    1  A    between atoms: N_1  and  C_2
REMARK    2  A    between atoms: C_7  and  C_8
REMARK    3  A    between atoms: C_8  and  C_9
REMARK    4  A    between atoms: C_9  and  C_10
REMARK    5  A    between atoms: C_14  and  C_15
REMARK                            x       y       z     vdW  Elec       q    Type
REMARK                         _______ _______ _______ _____ _____    ______ ____
ROOT
ATOM      1  C   UNL     1      44.677   4.233  11.216  0.00  0.00    +0.000 A 
ATOM      2  C   UNL     1      45.160   3.663  12.394  0.00  0.00    +0.000 A 
ATOM      3  C   UNL     1      45.719   4.492  13.356  0.00  0.00    +0.000 A 
ATOM      4  N   UNL     1      45.836   5.832  13.229  0.00  0.00    +0.000 NA
ATOM      5  C   UNL     1      45.371   6.398  12.090  0.00  0.00    +0.000 A 
ATOM      6  C   UNL     1      44.808   5.622  11.070  0.00  0.00    +0.000 A 
ENDROOT
BRANCH   5   7
ATOM      7  C   UNL     1      45.507   7.859  11.985  0.00  0.00    +0.000 A 
ATOM      8  C   UNL     1      44.513   8.672  11.413  0.00  0.00    +0.000 A 
ATOM      9  C   UNL     1      44.690  10.051  11.315  0.00  0.00    +0.000 A 
ATOM     10  C   UNL     1      45.864  10.597  11.797  0.00  0.00    +0.000 A 
ATOM     11  N   UNL     1      46.846   9.869  12.365  0.00  0.00    +0.000 NA
ATOM     12  C   UNL     1      46.639   8.527  12.450  0.00  0.00    +0.000 A 
ENDBRANCH   5   7
BRANCH   1  13
ATOM     13  C   UNL     1      44.113   3.434  10.061  0.00  0.00    +0.000 C 
BRANCH  13  14
ATOM     14  C   UNL     1      44.649   3.796   8.673  0.00  0.00    +0.000 C 
BRANCH  14  20
ATOM     15  C   UNL     1      46.802   3.177   7.432  0.00  0.00    +0.000 A 
ATOM     16  N   UNL     1      47.685   2.285   6.946  0.00  0.00    +0.000 NA
ATOM     17  C   UNL     1      47.462   0.977   7.198  0.00  0.00    +0.000 A 
ATOM     18  C   UNL     1      46.403   0.511   7.951  0.00  0.00    +0.000 A 
ATOM     19  C   UNL     1      45.499   1.443   8.446  0.00  0.00    +0.000 A 
ATOM     20  C   UNL     1      45.671   2.806   8.165  0.00  0.00    +0.000 A 
BRANCH  15  21
ATOM     21  N   UNL     1      47.119   4.508   7.178  0.00  0.00    +0.000 N 
ATOM     22  H   UNL     1      46.355   5.054   7.569  0.00  0.00    +0.000 HD
ATOM     23  H   UNL     1      48.004   4.766   7.595  0.00  0.00    +0.000 HD
ENDBRANCH  15  21
ENDBRANCH  14  20
ENDBRANCH  13  14
ENDBRANCH   1  13
TORSDOF 5
ENDMDL
MODEL 8
REMARK VINA RESULT:    -6.580      2.396      7.043
REMARK INTER + INTRA:          -9.037
REMARK INTER:                  -8.381
REMARK INTRA:                  -0.655
REMARK UNBOUND:                -0.726
REMARK  Name = 
REMARK  5 active torsions:
REMARK  status: ('A' for Active; 'I' for Inactive)
REMARK    1  A    between atoms: N_1  and  C_2
REMARK    2  A    between atoms: C_7  and  C_8
REMARK    3  A    between atoms: C_8  and  C_9
REMARK    4  A    between atoms: C_9  and  C_10
REMARK    5  A    between atoms: C_14  and  C_15
REMARK                            x       y       z     vdW  Elec       q    Type
REMARK                         _______ _______ _______ _____ _____    ______ ____
ROOT
ATOM      1  C   UNL     1      44.661   5.945  12.042  0.00  0.00    +0.000 A 
ATOM      2  C   UNL     1      43.355   5.537  12.310  0.00  0.00    +0.000 A 
ATOM      3  C   UNL     1      42.794   4.541  11.522  0.00  0.00    +0.000 A 
ATOM      4  N   UNL     1      43.429   3.935  10.495  0.00  0.00    +0.000 NA
ATOM      5  C   UNL     1      44.698   4.324  10.226  0.00  0.00    +0.000 A 
ATOM      6  C   UNL     1      45.323   5.332  10.969  0.00  0.00    +0.000 A 
ENDROOT
BRANCH   5   7
ATOM      7  C   UNL     1      45.365   3.640   9.106  0.00  0.00    +0.000 A 
ATOM      8  C   UNL     1      45.542   2.246   9.070  0.00  0.00    +0.000 A 
ATOM      9  C   UNL     1      46.198   1.640   8.000  0.00  0.00    +0.000 A 
ATOM     10  C   UNL     1      46.665   2.442   6.977  0.00  0.00    +0.000 A 
ATOM     11  N   UNL     1      46.515   3.782   6.954  0.00  0.00    +0.000 NA
ATOM     12  C   UNL     1      45.866   4.341   8.010  0.00  0.00    +0.000 A 
ENDBRANCH   5   7
BRANCH   1  13
ATOM     13  C   UNL     1      45.362   7.069  12.777  0.00  0.00    +0.000 C 
BRANCH  13  14
ATOM     14  C   UNL     1      46.773   6.758  13.284  0.00  0.00    +0.000 C 
BRANCH  14  20
ATOM     15  C   UNL     1      47.942   8.958  13.875  0.00  0.00    +0.000 A 
ATOM     16  N   UNL     1      48.785   9.972  13.603  0.00  0.00    +0.000 NA
ATOM     17  C   UNL     1      49.481   9.920  12.447  0.00  0.00    +0.000 A 
ATOM     18  C   UNL     1      49.401   8.874  11.550  0.00  0.00    +0.000 A 
ATOM     19  C   UNL     1      48.526   7.834  11.843  0.00  0.00    +0.000 A 
ATOM     20  C   UNL     1      47.751   7.875  13.011  0.00  0.00    +0.000 A 
BRANCH  15  21
ATOM     21  N   UNL     1      47.297   9.051  15.103  0.00  0.00    +0.000 N 
ATOM     22  H   UNL     1      46.515   8.401  15.055  0.00  0.00    +0.000 HD
ATOM     23  H   UNL     1      47.917   8.820  15.869  0.00  0.00    +0.000 HD
ENDBRANCH  15  21
ENDBRANCH  14  20
ENDBRANCH  13  14
ENDBRANCH   1  13
TORSDOF 5
ENDMDL
MODEL 9
REMARK VINA RESULT:    -6.267      2.982      4.237
REMARK INTER + INTRA:          -8.642
REMARK INTER:                  -7.885
REMARK INTRA:                  -0.757
REMARK UNBOUND:                -0.726
REMARK  Name = 
REMARK  5 active torsions:
REMARK  status: ('A' for Active; 'I' for Inactive)
REMARK    1  A    between atoms: N_1  and  C_2
REMARK    2  A    between atoms: C_7  and  C_8
REMARK    3  A    between atoms: C_8  and  C_9
REMARK    4  A    between atoms: C_9  and  C_10
REMARK    5  A    between atoms: C_14  and  C_15
REMARK                            x       y       z     vdW  Elec       q    Type
REMARK                         _______ _______ _______ _____ _____    ______ ____
ROOT
ATOM      1  C   UNL     1      46.101   6.451  12.118  0.00  0.00    +0.000 A 
ATOM      2  C   UNL     1      46.414   5.633  13.203  0.00  0.00    +0.000 A 
ATOM      3  C   UNL     1      47.696   5.690  13.732  0.00  0.00    +0.000 A 
ATOM      4  N   UNL     1      48.678   6.490  13.262  0.00  0.00    +0.000 NA
ATOM      5  C   UNL     1      48.385   7.290  12.209  0.00  0.00    +0.000 A 
ATOM      6  C   UNL     1      47.118   7.275  11.615  0.00  0.00    +0.000 A 
ENDROOT
BRANCH   5   7
ATOM      7  C   UNL     1      49.473   8.155  11.725  0.00  0.00    +0.000 A 
ATOM      8  C   UNL     1      49.307   9.535  11.518  0.00  0.00    +0.000 A 
ATOM      9  C   UNL     1      50.358  10.315  11.039  0.00  0.00    +0.000 A 
ATOM     10  C   UNL     1      51.565   9.698  10.776  0.00  0.00    +0.000 A 
ATOM     11  N   UNL     1      51.785   8.380  10.965  0.00  0.00    +0.000 NA
ATOM     12  C   UNL     1      50.740   7.650  11.439  0.00  0.00    +0.000 A 
ENDBRANCH   5   7
BRANCH   1  13
ATOM     13  C   UNL     1      44.766   6.431  11.404  0.00  0.00    +0.000 C 
BRANCH  13  14
ATOM     14  C   UNL     1      44.040   5.083  11.382  0.00  0.00    +0.000 C 
BRANCH  14  20
ATOM     15  C   UNL     1      44.340   2.790  10.283  0.00  0.00    +0.000 A 
ATOM     16  N   UNL     1      44.816   1.982   9.317  0.00  0.00    +0.000 NA
ATOM     17  C   UNL     1      45.493   2.552   8.297  0.00  0.00    +0.000 A 
ATOM     18  C   UNL     1      45.693   3.912   8.174  0.00  0.00    +0.000 A 
ATOM     19  C   UNL     1      45.197   4.733   9.179  0.00  0.00    +0.000 A 
ATOM     20  C   UNL     1      44.529   4.174  10.278  0.00  0.00    +0.000 A 
BRANCH  15  21
ATOM     21  N   UNL     1      43.610   2.143  11.275  0.00  0.00    +0.000 N 
ATOM     22  H   UNL     1      42.896   1.606  10.788  0.00  0.00    +0.000 HD
ATOM     23  H   UNL     1      44.198   1.542  11.838  0.00  0.00    +0.000 HD
ENDBRANCH  15  21
ENDBRANCH  14  20
ENDBRANCH  13  14
ENDBRANCH   1  13
TORSDOF 5
ENDMDL
