MODEL 1
REMARK VINA RESULT:    -7.591      0.000      0.000
REMARK INTER + INTRA:         -10.655
REMARK INTER:                  -9.809
REMARK INTRA:                  -0.846
REMARK UNBOUND:                -0.846
REMARK  Name = 
REMARK  7 active torsions:
REMARK  status: ('A' for Active; 'I' for Inactive)
REMARK    1  A    between atoms: C_1  and  O_2
REMARK    2  A    between atoms: O_2  and  C_3
REMARK    3  A    between atoms: C_8  and  C_9
REMARK    4  A    between atoms: C_13  and  O_14
REMARK    5  A    between atoms: O_14  and  C_15
REMARK    6  A    between atoms: C_15  and  C_16
REMARK    7  A    between atoms: C_20  and  C_21
REMARK                            x       y       z     vdW  Elec       q    Type
REMARK                         _______ _______ _______ _____ _____    ______ ____
ROOT
ATOM      1  C   UNL     1      46.212   5.927  12.525  0.00  0.00    +0.000 A 
ATOM      2  C   UNL     1      46.824   5.220  13.564  0.00  0.00    +0.000 A 
ATOM      3  C   UNL     1      46.646   3.844  13.660  0.00  0.00    +0.000 A 
ATOM      4  C   UNL     1      45.850   3.200  12.725  0.00  0.00    +0.000 A 
ATOM      5  C   UNL     1      45.272   3.964  11.726  0.00  0.00    +0.000 A 
ATOM      6  N   UNL     1      45.421   5.302  11.616  0.00  0.00    +0.000 NA
ENDROOT
BRANCH   1  12
ATOM      7  C   UNL     1      45.468   9.649  12.187  0.00  0.00    +0.000 A 
ATOM      8  C   UNL     1      46.743  10.166  11.963  0.00  0.00    +0.000 A 
ATOM      9  C   UNL     1      47.834   9.306  11.899  0.00  0.00    +0.000 A 
ATOM     10  C   UNL     1      47.652   7.935  12.072  0.00  0.00    +0.000 A 
ATOM     11  F   UNL     1      48.738   7.157  11.968  0.00  0.00    +0.000 F 
ATOM     12  C   UNL     1      46.393   7.379  12.331  0.00  0.00    +0.000 A 
ATOM     13  C   UNL     1      45.301   8.272  12.383  0.00  0.00    +0.000 A 
BRANCH   7  15
ATOM     14  C   UNL     1      43.683  10.686  11.031  0.00  0.00    +0.000 C 
ATOM     15  O   UNL     1      44.327  10.403  12.270  0.00  0.00    +0.000 OA
ENDBRANCH   7  15
ENDBRANCH   1  12
BRANCH   5  16
ATOM     16  O   UNL     1      44.460   3.298  10.832  0.00  0.00    +0.000 OA
BRANCH  16  17
ATOM     17  C   UNL     1      44.368   3.987   9.580  0.00  0.00    +0.000 C 
BRANCH  17  18
ATOM     18  C   UNL     1      45.390   3.416   8.620  0.00  0.00    +0.000 A 
ATOM     19  C   UNL     1      46.133   4.270   7.809  0.00  0.00    +0.000 A 
ATOM     20  C   UNL     1      47.076   3.725   6.945  0.00  0.00    +0.000 A 
ATOM     21  C   UNL     1      47.254   2.346   6.914  0.00  0.00    +0.000 A 
ATOM     22  C   UNL     1      46.484   1.552   7.756  0.00  0.00    +0.000 A 
ATOM     23  C   UNL     1      46.654   0.063   7.776  0.00  0.00    +0.000 C 
ATOM     24  N   UNL     1      45.561   2.068   8.603  0.00  0.00    +0.000 NA
ENDBRANCH  17  18
ENDBRANCH  16  17
ENDBRANCH   5  16
TORSDOF 5
ENDMDL
MODEL 2
REMARK VINA RESULT:    -7.515      1.964      2.709
REMARK INTER + INTRA:         -10.557
REMARK INTER:                  -9.784
REMARK INTRA:                  -0.773
REMARK UNBOUND:                -0.846
REMARK  Name = 
REMARK  7 active torsions:
REMARK  status: ('A' for Active; 'I' for Inactive)
REMARK    1  A    between atoms: C_1  and  O_2
REMARK    2  A    between atoms: O_2  and  C_3
REMARK    3  A    between atoms: C_8  and  C_9
REMARK    4  A    between atoms: C_13  and  O_14
REMARK    5  A    between atoms: O_14  and  C_15
REMARK    6  A    between atoms: C_15  and  C_16
REMARK    7  A    between atoms: C_20  and  C_21
REMARK                            x       y       z     vdW  Elec       q    Type
REMARK                         _______ _______ _______ _____ _____    ______ ____
ROOT
ATOM      1  C   UNL     1      46.698   6.487  12.256  0.00  0.00    +0.000 A 
ATOM      2  C   UNL     1      46.837   5.646  13.363  0.00  0.00    +0.000 A 
ATOM      3  C   UNL     1      46.129   4.450  13.413  0.00  0.00    +0.000 A 
ATOM      4  C   UNL     1      45.285   4.120  12.362  0.00  0.00    +0.000 A 
ATOM      5  C   UNL     1      45.194   5.004  11.301  0.00  0.00    +0.000 A 
ATOM      6  N   UNL     1      45.863   6.175  11.232  0.00  0.00    +0.000 NA
ENDROOT
BRANCH   1  12
ATOM      7  C   UNL     1      49.531   8.950  11.602  0.00  0.00    +0.000 A 
ATOM      8  C   UNL     1      48.895  10.170  11.831  0.00  0.00    +0.000 A 
ATOM      9  C   UNL     1      47.559  10.188  12.218  0.00  0.00    +0.000 A 
ATOM     10  C   UNL     1      46.859   8.992  12.363  0.00  0.00    +0.000 A 
ATOM     11  F   UNL     1      45.585   9.075  12.768  0.00  0.00    +0.000 F 
ATOM     12  C   UNL     1      47.452   7.748  12.112  0.00  0.00    +0.000 A 
ATOM     13  C   UNL     1      48.810   7.756  11.728  0.00  0.00    +0.000 A 
BRANCH   7  15
ATOM     14  C   UNL     1      51.213   7.528  10.739  0.00  0.00    +0.000 C 
ATOM     15  O   UNL     1      50.839   8.817  11.217  0.00  0.00    +0.000 OA
ENDBRANCH   7  15
ENDBRANCH   1  12
BRANCH   5  16
ATOM     16  O   UNL     1      44.322   4.662  10.288  0.00  0.00    +0.000 OA
BRANCH  16  17
ATOM     17  C   UNL     1      44.282   3.248  10.073  0.00  0.00    +0.000 C 
BRANCH  17  18
ATOM     18  C   UNL     1      45.201   2.892   8.923  0.00  0.00    +0.000 A 
ATOM     19  C   UNL     1      45.644   3.888   8.056  0.00  0.00    +0.000 A 
ATOM     20  C   UNL     1      46.498   3.541   7.014  0.00  0.00    +0.000 A 
ATOM     21  C   UNL     1      46.888   2.214   6.867  0.00  0.00    +0.000 A 
ATOM     22  C   UNL     1      46.414   1.272   7.773  0.00  0.00    +0.000 A 
ATOM     23  C   UNL     1      46.821  -0.167   7.670  0.00  0.00    +0.000 C 
ATOM     24  N   UNL     1      45.581   1.594   8.792  0.00  0.00    +0.000 NA
ENDBRANCH  17  18
ENDBRANCH  16  17
ENDBRANCH   5  16
TORSDOF 5
ENDMDL
MODEL 3
REMARK VINA RESULT:    -7.366      2.280      3.150
REMARK INTER + INTRA:         -10.365
REMARK INTER:                  -9.580
REMARK INTRA:                  -0.785
REMARK UNBOUND:                -0.846
REMARK  Name = 
REMARK  7 active torsions:
REMARK  status: ('A' for Active; 'I' for Inactive)
REMARK    1  A    between atoms: C_1  and  O_2
REMARK    2  A    between atoms: O_2  and  C_3
REMARK    3  A    between atoms: C_8  and  C_9
REMARK    4  A    between atoms: C_13  and  O_14
REMARK    5  A    between atoms: O_14  and  C_15
REMARK    6  A    between atoms: C_15  and  C_16
REMARK    7  A    between atoms: C_20  and  C_21
REMARK                            x       y       z     vdW  Elec       q    Type
REMARK                         _______ _______ _______ _____ _____    ______ ____
ROOT
ATOM      1  C   UNL     1      45.347   5.412  12.551  0.00  0.00    +0.000 A 
ATOM      2  C   UNL     1      44.148   5.538  13.258  0.00  0.00    +0.000 A 
ATOM      3  C   UNL     1      43.041   4.786  12.879  0.00  0.00    +0.000 A 
ATOM      4  C   UNL     1      43.146   3.931  11.792  0.00  0.00    +0.000 A 
ATOM      5  C   UNL     1      44.363   3.861  11.136  0.00  0.00    +0.000 A 
ATOM      6  N   UNL     1      45.450   4.586  11.477  0.00  0.00    +0.000 NA
ENDROOT
BRANCH   1  12
ATOM      7  C   UNL     1      48.543   6.420  14.364  0.00  0.00    +0.000 A 
ATOM      8  C   UNL     1      48.934   7.541  13.632  0.00  0.00    +0.000 A 
ATOM      9  C   UNL     1      48.150   7.977  12.570  0.00  0.00    +0.000 A 
ATOM     10  C   UNL     1      46.986   7.289  12.233  0.00  0.00    +0.000 A 
ATOM     11  F   UNL     1      46.258   7.779  11.220  0.00  0.00    +0.000 F 
ATOM     12  C   UNL     1      46.575   6.141  12.922  0.00  0.00    +0.000 A 
ATOM     13  C   UNL     1      47.383   5.723  14.001  0.00  0.00    +0.000 A 
BRANCH   7  15
ATOM     14  C   UNL     1      48.464   5.602  16.583  0.00  0.00    +0.000 C 
ATOM     15  O   UNL     1      49.238   5.904  15.426  0.00  0.00    +0.000 OA
ENDBRANCH   7  15
ENDBRANCH   1  12
BRANCH   5  16
ATOM     16  O   UNL     1      44.425   3.025  10.039  0.00  0.00    +0.000 OA
BRANCH  16  17
ATOM     17  C   UNL     1      44.726   3.744   8.838  0.00  0.00    +0.000 C 
BRANCH  17  18
ATOM     18  C   UNL     1      45.771   2.982   8.051  0.00  0.00    +0.000 A 
ATOM     19  C   UNL     1      46.644   3.670   7.211  0.00  0.00    +0.000 A 
ATOM     20  C   UNL     1      47.605   2.952   6.508  0.00  0.00    +0.000 A 
ATOM     21  C   UNL     1      47.671   1.572   6.662  0.00  0.00    +0.000 A 
ATOM     22  C   UNL     1      46.774   0.949   7.522  0.00  0.00    +0.000 A 
ATOM     23  C   UNL     1      46.818  -0.534   7.738  0.00  0.00    +0.000 C 
ATOM     24  N   UNL     1      45.832   1.635   8.214  0.00  0.00    +0.000 NA
ENDBRANCH  17  18
ENDBRANCH  16  17
ENDBRANCH   5  16
TORSDOF 5
ENDMDL
MODEL 4
REMARK VINA RESULT:    -7.362      2.200      3.137
REMARK INTER + INTRA:         -10.359
REMARK INTER:                  -9.585
REMARK INTRA:                  -0.775
REMARK UNBOUND:                -0.846
REMARK  Name = 
REMARK  7 active torsions:
REMARK  status: ('A' for Active; 'I' for Inactive)
REMARK    1  A    between atoms: C_1  and  O_2
REMARK    2  A    between atoms: O_2  and  C_3
REMARK    3  A    between atoms: C_8  and  C_9
REMARK    4  A    between atoms: C_13  and  O_14
REMARK    5  A    between atoms: O_14  and  C_15
REMARK    6  A    between atoms: C_15  and  C_16
REMARK    7  A    between atoms: C_20  and  C_21
REMARK                            x       y       z     vdW  Elec       q    Type
REMARK                         _______ _______ _______ _____ _____    ______ ____
ROOT
ATOM      1  C   UNL     1      45.041   5.670  12.246  0.00  0.00    +0.000 A 
ATOM      2  C   UNL     1      44.190   5.274  13.281  0.00  0.00    +0.000 A 
ATOM      3  C   UNL     1      43.218   4.308  13.042  0.00  0.00    +0.000 A 
ATOM      4  C   UNL     1      43.104   3.764  11.772  0.00  0.00    +0.000 A 
ATOM      5  C   UNL     1      43.977   4.208  10.794  0.00  0.00    +0.000 A 
ATOM      6  N   UNL     1      44.924   5.151  10.996  0.00  0.00    +0.000 NA
ENDROOT
BRANCH   1  12
ATOM      7  C   UNL     1      48.364   7.238  13.258  0.00  0.00    +0.000 A 
ATOM      8  C   UNL     1      48.206   8.543  12.792  0.00  0.00    +0.000 A 
ATOM      9  C   UNL     1      47.017   8.915  12.174  0.00  0.00    +0.000 A 
ATOM     10  C   UNL     1      45.995   7.982  12.010  0.00  0.00    +0.000 A 
ATOM     11  F   UNL     1      44.863   8.411  11.436  0.00  0.00    +0.000 F 
ATOM     12  C   UNL     1      46.125   6.654  12.434  0.00  0.00    +0.000 A 
ATOM     13  C   UNL     1      47.337   6.303  13.066  0.00  0.00    +0.000 A 
BRANCH   7  15
ATOM     14  C   UNL     1      50.281   7.741  14.550  0.00  0.00    +0.000 C 
ATOM     15  O   UNL     1      49.490   6.765  13.879  0.00  0.00    +0.000 OA
ENDBRANCH   7  15
ENDBRANCH   1  12
BRANCH   5  16
ATOM     16  O   UNL     1      43.816   3.671   9.533  0.00  0.00    +0.000 OA
BRANCH  16  17
ATOM     17  C   UNL     1      44.753   4.217   8.598  0.00  0.00    +0.000 C 
BRANCH  17  18
ATOM     18  C   UNL     1      45.587   3.097   8.016  0.00  0.00    +0.000 A 
ATOM     19  C   UNL     1      45.612   1.853   8.641  0.00  0.00    +0.000 A 
ATOM     20  C   UNL     1      46.375   0.834   8.081  0.00  0.00    +0.000 A 
ATOM     21  C   UNL     1      47.089   1.081   6.914  0.00  0.00    +0.000 A 
ATOM     22  C   UNL     1      47.014   2.344   6.337  0.00  0.00    +0.000 A 
ATOM     23  C   UNL     1      47.748   2.655   5.068  0.00  0.00    +0.000 C 
ATOM     24  N   UNL     1      46.276   3.347   6.871  0.00  0.00    +0.000 NA
ENDBRANCH  17  18
ENDBRANCH  16  17
ENDBRANCH   5  16
TORSDOF 5
ENDMDL
MODEL 5
REMARK VINA RESULT:    -7.223      3.394      7.211
REMARK INTER + INTRA:         -10.180
REMARK INTER:                  -9.333
REMARK INTRA:                  -0.847
REMARK UNBOUND:                -0.846
REMARK  Name = 
REMARK  7 active torsions:
REMARK  status: ('A' for Active; 'I' for Inactive)
REMARK    1  A    between atoms: C_1  and  O_2
REMARK    2  A    between atoms: O_2  and  C_3
REMARK    3  A    between atoms: C_8  and  C_9
REMARK    4  A    between atoms: C_13  and  O_14
REMARK    5  A    between atoms: O_14  and  C_15
REMARK    6  A    between atoms: C_15  and  C_16
REMARK    7  A    between atoms: C_20  and  C_21
REMARK                            x       y       z     vdW  Elec       q    Type
REMARK                         _______ _______ _______ _____ _____    ______ ____
ROOT
ATOM      1  C   UNL     1      46.038   6.222  12.113  0.00  0.00    +0.000 A 
ATOM      2  C   UNL     1      45.495   7.507  12.202  0.00  0.00    +0.000 A 
ATOM      3  C   UNL     1      46.117   8.465  12.997  0.00  0.00    +0.000 A 
ATOM      4  C   UNL     1      47.262   8.119  13.698  0.00  0.00    +0.000 A 
ATOM      5  C   UNL     1      47.740   6.827  13.566  0.00  0.00    +0.000 A 
ATOM      6  N   UNL     1      47.151   5.876  12.809  0.00  0.00    +0.000 NA
ENDROOT
BRANCH   1  12
ATOM      7  C   UNL     1      45.095   4.178   9.038  0.00  0.00    +0.000 A 
ATOM      8  C   UNL     1      44.356   3.144   9.611  0.00  0.00    +0.000 A 
ATOM      9  C   UNL     1      44.147   3.126  10.985  0.00  0.00    +0.000 A 
ATOM     10  C   UNL     1      44.685   4.131  11.786  0.00  0.00    +0.000 A 
ATOM     11  F   UNL     1      44.422   4.073  13.098  0.00  0.00    +0.000 F 
ATOM     12  C   UNL     1      45.461   5.169  11.255  0.00  0.00    +0.000 A 
ATOM     13  C   UNL     1      45.652   5.170   9.857  0.00  0.00    +0.000 A 
BRANCH   7  15
ATOM     14  C   UNL     1      46.508   3.583   7.236  0.00  0.00    +0.000 C 
ATOM     15  O   UNL     1      45.363   4.293   7.700  0.00  0.00    +0.000 OA
ENDBRANCH   7  15
ENDBRANCH   1  12
BRANCH   5  16
ATOM     16  O   UNL     1      48.863   6.507  14.302  0.00  0.00    +0.000 OA
BRANCH  16  17
ATOM     17  C   UNL     1      48.642   6.667  15.707  0.00  0.00    +0.000 C 
BRANCH  17  18
ATOM     18  C   UNL     1      48.647   5.307  16.372  0.00  0.00    +0.000 A 
ATOM     19  C   UNL     1      47.452   4.609  16.533  0.00  0.00    +0.000 A 
ATOM     20  C   UNL     1      47.482   3.355  17.133  0.00  0.00    +0.000 A 
ATOM     21  C   UNL     1      48.700   2.830  17.553  0.00  0.00    +0.000 A 
ATOM     22  C   UNL     1      49.856   3.577  17.355  0.00  0.00    +0.000 A 
ATOM     23  C   UNL     1      51.195   3.047  17.772  0.00  0.00    +0.000 C 
ATOM     24  N   UNL     1      49.842   4.801  16.772  0.00  0.00    +0.000 NA
ENDBRANCH  17  18
ENDBRANCH  16  17
ENDBRANCH   5  16
TORSDOF 5
ENDMDL
MODEL 6
REMARK VINA RESULT:    -7.127      2.116      2.826
REMARK INTER + INTRA:         -10.055
REMARK INTER:                  -9.285
REMARK INTRA:                  -0.770
REMARK UNBOUND:                -0.846
REMARK  Name = 
REMARK  7 active torsions:
REMARK  status: ('A' for Active; 'I' for Inactive)
REMARK    1  A    between atoms: C_1  and  O_2
REMARK    2  A    between atoms: O_2  and  C_3
REMARK    3  A    between atoms: C_8  and  C_9
REMARK    4  A    between atoms: C_13  and  O_14
REMARK    5  A    between atoms: O_14  and  C_15
REMARK    6  A    between atoms: C_15  and  C_16
REMARK    7  A    between atoms: C_20  and  C_21
REMARK                            x       y       z     vdW  Elec       q    Type
REMARK                         _______ _______ _______ _____ _____    ______ ____
ROOT
ATOM      1  C   UNL     1      45.212   5.504  12.603  0.00  0.00    +0.000 A 
ATOM      2  C   UNL     1      43.933   5.867  13.032  0.00  0.00    +0.000 A 
ATOM      3  C   UNL     1      42.816   5.280  12.448  0.00  0.00    +0.000 A 
ATOM      4  C   UNL     1      42.995   4.348  11.436  0.00  0.00    +0.000 A 
ATOM      5  C   UNL     1      44.290   4.040  11.058  0.00  0.00    +0.000 A 
ATOM      6  N   UNL     1      45.391   4.603  11.602  0.00  0.00    +0.000 NA
ENDROOT
BRANCH   1  12
ATOM      7  C   UNL     1      48.185   7.776  13.323  0.00  0.00    +0.000 A 
ATOM      8  C   UNL     1      48.805   7.095  14.370  0.00  0.00    +0.000 A 
ATOM      9  C   UNL     1      48.271   5.893  14.822  0.00  0.00    +0.000 A 
ATOM     10  C   UNL     1      47.114   5.380  14.238  0.00  0.00    +0.000 A 
ATOM     11  F   UNL     1      46.668   4.203  14.697  0.00  0.00    +0.000 F 
ATOM     12  C   UNL     1      46.443   6.049  13.206  0.00  0.00    +0.000 A 
ATOM     13  C   UNL     1      47.009   7.262  12.760  0.00  0.00    +0.000 A 
BRANCH   7  15
ATOM     14  C   UNL     1      49.079   8.916  11.452  0.00  0.00    +0.000 C 
ATOM     15  O   UNL     1      48.623   8.965  12.801  0.00  0.00    +0.000 OA
ENDBRANCH   7  15
ENDBRANCH   1  12
BRANCH   5  16
ATOM     16  O   UNL     1      44.432   3.135  10.027  0.00  0.00    +0.000 OA
BRANCH  16  17
ATOM     17  C   UNL     1      44.707   3.785   8.781  0.00  0.00    +0.000 C 
BRANCH  17  18
ATOM     18  C   UNL     1      45.759   2.999   8.029  0.00  0.00    +0.000 A 
ATOM     19  C   UNL     1      46.674   3.664   7.216  0.00  0.00    +0.000 A 
ATOM     20  C   UNL     1      47.641   2.923   6.546  0.00  0.00    +0.000 A 
ATOM     21  C   UNL     1      47.671   1.542   6.706  0.00  0.00    +0.000 A 
ATOM     22  C   UNL     1      46.733   0.942   7.538  0.00  0.00    +0.000 A 
ATOM     23  C   UNL     1      46.737  -0.541   7.759  0.00  0.00    +0.000 C 
ATOM     24  N   UNL     1      45.785   1.651   8.197  0.00  0.00    +0.000 NA
ENDBRANCH  17  18
ENDBRANCH  16  17
ENDBRANCH   5  16
TORSDOF 5
ENDMDL
MODEL 7
REMARK VINA RESULT:    -6.397      3.689      6.428
REMARK INTER + INTRA:          -9.113
REMARK INTER:                  -8.304
REMARK INTRA:                  -0.808
REMARK UNBOUND:                -0.846
REMARK  Name = 
REMARK  7 active torsions:
REMARK  status: ('A' for Active; 'I' for Inactive)
REMARK    1  A    between atoms: C_1  and  O_2
REMARK    2  A    between atoms: O_2  and  C_3
REMARK    3  A    between atoms: C_8  and  C_9
REMARK    4  A    between atoms: C_13  and  O_14
REMARK    5  A    between atoms: O_14  and  C_15
REMARK    6  A    between atoms: C_15  and  C_16
REMARK    7  A    between atoms: C_20  and  C_21
REMARK                            x       y       z     vdW  Elec       q    Type
REMARK                         _______ _______ _______ _____ _____    ______ ____
ROOT
ATOM      1  C   UNL     1      46.695   6.027  12.402  0.00  0.00    +0.000 A 
ATOM      2  C   UNL     1      45.687   5.453  11.623  0.00  0.00    +0.000 A 
ATOM      3  C   UNL     1      45.274   4.150  11.881  0.00  0.00    +0.000 A 
ATOM      4  C   UNL     1      45.882   3.439  12.905  0.00  0.00    +0.000 A 
ATOM      5  C   UNL     1      46.877   4.070  13.632  0.00  0.00    +0.000 A 
ATOM      6  N   UNL     1      47.303   5.330  13.396  0.00  0.00    +0.000 NA
ENDROOT
BRANCH   1  12
ATOM      7  C   UNL     1      48.902   9.032  11.614  0.00  0.00    +0.000 A 
ATOM      8  C   UNL     1      48.027  10.089  11.862  0.00  0.00    +0.000 A 
ATOM      9  C   UNL     1      46.736   9.825  12.305  0.00  0.00    +0.000 A 
ATOM     10  C   UNL     1      46.316   8.509  12.487  0.00  0.00    +0.000 A 
ATOM     11  F   UNL     1      45.071   8.323  12.945  0.00  0.00    +0.000 F 
ATOM     12  C   UNL     1      47.152   7.418  12.218  0.00  0.00    +0.000 A 
ATOM     13  C   UNL     1      48.461   7.712  11.778  0.00  0.00    +0.000 A 
BRANCH   7  15
ATOM     14  C   UNL     1      50.993   8.000  11.215  0.00  0.00    +0.000 C 
ATOM     15  O   UNL     1      50.191   9.177  11.175  0.00  0.00    +0.000 OA
ENDBRANCH   7  15
ENDBRANCH   1  12
BRANCH   5  16
ATOM     16  O   UNL     1      47.484   3.325  14.622  0.00  0.00    +0.000 OA
BRANCH  16  17
ATOM     17  C   UNL     1      47.302   3.909  15.916  0.00  0.00    +0.000 C 
BRANCH  17  18
ATOM     18  C   UNL     1      48.622   3.901  16.657  0.00  0.00    +0.000 A 
ATOM     19  C   UNL     1      49.071   5.059  17.288  0.00  0.00    +0.000 A 
ATOM     20  C   UNL     1      50.279   5.024  17.974  0.00  0.00    +0.000 A 
ATOM     21  C   UNL     1      51.006   3.839  18.015  0.00  0.00    +0.000 A 
ATOM     22  C   UNL     1      50.496   2.718  17.370  0.00  0.00    +0.000 A 
ATOM     23  C   UNL     1      51.231   1.412  17.402  0.00  0.00    +0.000 C 
ATOM     24  N   UNL     1      49.321   2.736  16.696  0.00  0.00    +0.000 NA
ENDBRANCH  17  18
ENDBRANCH  16  17
ENDBRANCH   5  16
TORSDOF 5
ENDMDL
MODEL 8
REMARK VINA RESULT:    -6.271      3.287      5.979
REMARK INTER + INTRA:          -8.950
REMARK INTER:                  -8.286
REMARK INTRA:                  -0.663
REMARK UNBOUND:                -0.846
REMARK  Name = 
REMARK  7 active torsions:
REMARK  status: ('A' for Active; 'I' for Inactive)
REMARK    1  A    between atoms: C_1  and  O_2
REMARK    2  A    between atoms: O_2  and  C_3
REMARK    3  A    between atoms: C_8  and  C_9
REMARK    4  A    between atoms: C_13  and  O_14
REMARK    5  A    between atoms: O_14  and  C_15
REMARK    6  A    between atoms: C_15  and  C_16
REMARK    7  A    between atoms: C_20  and  C_21
REMARK                            x       y       z     vdW  Elec       q    Type
REMARK                         _______ _______ _______ _____ _____    ______ ____
ROOT
ATOM      1  C   UNL     1      46.646   6.083  12.414  0.00  0.00    +0.000 A 
ATOM      2  C   UNL     1      45.669   5.500  11.603  0.00  0.00    +0.000 A 
ATOM      3  C   UNL     1      45.245   4.200  11.859  0.00  0.00    +0.000 A 
ATOM      4  C   UNL     1      45.814   3.501  12.913  0.00  0.00    +0.000 A 
ATOM      5  C   UNL     1      46.780   4.139  13.671  0.00  0.00    +0.000 A 
ATOM      6  N   UNL     1      47.216   5.396  13.438  0.00  0.00    +0.000 NA
ENDROOT
BRANCH   1  12
ATOM      7  C   UNL     1      46.643   9.870  11.991  0.00  0.00    +0.000 A 
ATOM      8  C   UNL     1      48.008  10.137  11.887  0.00  0.00    +0.000 A 
ATOM      9  C   UNL     1      48.920   9.088  11.930  0.00  0.00    +0.000 A 
ATOM     10  C   UNL     1      48.471   7.779  12.091  0.00  0.00    +0.000 A 
ATOM     11  F   UNL     1      49.397   6.811  12.093  0.00  0.00    +0.000 F 
ATOM     12  C   UNL     1      47.111   7.472  12.232  0.00  0.00    +0.000 A 
ATOM     13  C   UNL     1      46.205   8.552  12.176  0.00  0.00    +0.000 A 
BRANCH   7  15
ATOM     14  C   UNL     1      44.333  10.337  11.789  0.00  0.00    +0.000 C 
ATOM     15  O   UNL     1      45.660  10.824  11.962  0.00  0.00    +0.000 OA
ENDBRANCH   7  15
ENDBRANCH   1  12
BRANCH   5  16
ATOM     16  O   UNL     1      47.349   3.404  14.691  0.00  0.00    +0.000 OA
BRANCH  16  17
ATOM     17  C   UNL     1      47.189   4.045  15.962  0.00  0.00    +0.000 C 
BRANCH  17  18
ATOM     18  C   UNL     1      48.517   4.048  16.689  0.00  0.00    +0.000 A 
ATOM     19  C   UNL     1      48.949   5.200  17.340  0.00  0.00    +0.000 A 
ATOM     20  C   UNL     1      50.166   5.176  18.013  0.00  0.00    +0.000 A 
ATOM     21  C   UNL     1      50.916   4.005  18.021  0.00  0.00    +0.000 A 
ATOM     22  C   UNL     1      50.423   2.889  17.356  0.00  0.00    +0.000 A 
ATOM     23  C   UNL     1      51.184   1.597  17.352  0.00  0.00    +0.000 C 
ATOM     24  N   UNL     1      49.239   2.897  16.695  0.00  0.00    +0.000 NA
ENDBRANCH  17  18
ENDBRANCH  16  17
ENDBRANCH   5  16
TORSDOF 5
ENDMDL
MODEL 9
REMARK VINA RESULT:    -6.050      3.942      7.210
REMARK INTER + INTRA:          -8.664
REMARK INTER:                  -7.844
REMARK INTRA:                  -0.820
REMARK UNBOUND:                -0.846
REMARK  Name = 
REMARK  7 active torsions:
REMARK  status: ('A' for Active; 'I' for Inactive)
REMARK    1  A    between atoms: C_1  and  O_2
REMARK    2  A    between atoms: O_2  and  C_3
REMARK    3  A    between atoms: C_8  and  C_9
REMARK    4  A    between atoms: C_13  and  O_14
REMARK    5  A    between atoms: O_14  and  C_15
REMARK    6  A    between atoms: C_15  and  C_16
REMARK    7  A    between atoms: C_20  and  C_21
REMARK                            x       y       z     vdW  Elec       q    Type
REMARK                         _______ _______ _______ _____ _____    ______ ____
ROOT
ATOM      1  C   UNL     1      47.698   7.045  12.477  0.00  0.00    +0.000 A 
ATOM      2  C   UNL     1      48.459   7.553  11.420  0.00  0.00    +0.000 A 
ATOM      3  C   UNL     1      49.741   8.034  11.663  0.00  0.00    +0.000 A 
ATOM      4  C   UNL     1      50.236   8.012  12.959  0.00  0.00    +0.000 A 
ATOM      5  C   UNL     1      49.425   7.499  13.956  0.00  0.00    +0.000 A 
ATOM      6  N   UNL     1      48.174   7.034  13.748  0.00  0.00    +0.000 NA
ENDROOT
BRANCH   1  12
ATOM      7  C   UNL     1      44.796   4.576  12.398  0.00  0.00    +0.000 A 
ATOM      8  C   UNL     1      43.760   5.383  11.929  0.00  0.00    +0.000 A 
ATOM      9  C   UNL     1      44.011   6.715  11.619  0.00  0.00    +0.000 A 
ATOM     10  C   UNL     1      45.290   7.242  11.789  0.00  0.00    +0.000 A 
ATOM     11  F   UNL     1      45.474   8.523  11.442  0.00  0.00    +0.000 F 
ATOM     12  C   UNL     1      46.350   6.474  12.288  0.00  0.00    +0.000 A 
ATOM     13  C   UNL     1      46.072   5.123  12.588  0.00  0.00    +0.000 A 
BRANCH   7  15
ATOM     14  C   UNL     1      43.527   2.591  12.184  0.00  0.00    +0.000 C 
ATOM     15  O   UNL     1      44.661   3.255  12.735  0.00  0.00    +0.000 OA
ENDBRANCH   7  15
ENDBRANCH   1  12
BRANCH   5  16
ATOM     16  O   UNL     1      49.934   7.521  15.238  0.00  0.00    +0.000 OA
BRANCH  16  17
ATOM     17  C   UNL     1      48.944   7.170  16.211  0.00  0.00    +0.000 C 
BRANCH  17  18
ATOM     18  C   UNL     1      49.251   5.793  16.759  0.00  0.00    +0.000 A 
ATOM     19  C   UNL     1      50.557   5.460  17.110  0.00  0.00    +0.000 A 
ATOM     20  C   UNL     1      50.813   4.194  17.625  0.00  0.00    +0.000 A 
ATOM     21  C   UNL     1      49.762   3.297  17.778  0.00  0.00    +0.000 A 
ATOM     22  C   UNL     1      48.481   3.696  17.415  0.00  0.00    +0.000 A 
ATOM     23  C   UNL     1      47.311   2.773  17.580  0.00  0.00    +0.000 C 
ATOM     24  N   UNL     1      48.216   4.926  16.912  0.00  0.00    +0.000 NA
ENDBRANCH  17  18
ENDBRANCH  16  17
ENDBRANCH   5  16
TORSDOF 5
ENDMDL
