MODEL 1
REMARK VINA RESULT:    -8.667      0.000      0.000
REMARK INTER + INTRA:         -12.335
REMARK INTER:                 -11.708
REMARK INTRA:                  -0.627
REMARK UNBOUND:                -0.627
REMARK  Name = 
REMARK  8 active torsions:
REMARK  status: ('A' for Active; 'I' for Inactive)
REMARK    1  A    between atoms: C_1  and  C_2
REMARK    2  A    between atoms: C_6  and  C_7
REMARK    3  A    between atoms: N_9  and  C_10
REMARK    4  A    between atoms: C_10  and  C_11
REMARK    5  A    between atoms: C_10  and  C_12
REMARK    6  A    between atoms: C_15  and  C_16
REMARK    7  A    between atoms: C_16  and  N_17
REMARK    8  A    between atoms: C_18  and  C_20
REMARK                            x       y       z     vdW  Elec       q    Type
REMARK                         _______ _______ _______ _____ _____    ______ ____
ROOT
ATOM      1  C   UNL     1      44.881   5.921  11.460  0.00  0.00    +0.000 A 
ATOM      2  C   UNL     1      44.722   7.316  11.443  0.00  0.00    +0.000 A 
ATOM      3  C   UNL     1      45.560   8.149  12.193  0.00  0.00    +0.000 A 
ATOM      4  C   UNL     1      46.594   7.609  12.967  0.00  0.00    +0.000 A 
ATOM      5  C   UNL     1      46.759   6.217  12.984  0.00  0.00    +0.000 A 
ATOM      6  C   UNL     1      45.920   5.383  12.234  0.00  0.00    +0.000 A 
ENDROOT
BRANCH   1   7
ATOM      7  C   UNL     1      43.891   5.048  10.705  0.00  0.00    +0.000 C 
ATOM      8  C   UNL     1      42.825   4.475  11.646  0.00  0.00    +0.000 C 
BRANCH   7  11
ATOM      9  C   UNL     1      45.434   4.286   8.930  0.00  0.00    +0.000 C 
ATOM     10  O   UNL     1      45.790   5.425   8.644  0.00  0.00    +0.000 OA
ATOM     11  N   UNL     1      44.541   3.996   9.945  0.00  0.00    +0.000 N 
ATOM     12  H   UNL     1      44.265   3.025  10.048  0.00  0.00    +0.000 HD
BRANCH   9  18
ATOM     13  C   UNL     1      47.822   2.391   4.955  0.00  0.00    +0.000 C 
ATOM     14  C   UNL     1      47.109   2.204   6.261  0.00  0.00    +0.000 A 
ATOM     15  C   UNL     1      46.924   0.937   6.817  0.00  0.00    +0.000 A 
ATOM     16  C   UNL     1      46.258   0.828   8.032  0.00  0.00    +0.000 A 
ATOM     17  N   UNL     1      45.767   1.878   8.728  0.00  0.00    +0.000 NA
ATOM     18  C   UNL     1      45.961   3.105   8.170  0.00  0.00    +0.000 A 
ATOM     19  C   UNL     1      46.613   3.309   6.955  0.00  0.00    +0.000 A 
ENDBRANCH   9  18
ENDBRANCH   7  11
ENDBRANCH   1   7
BRANCH   4  20
ATOM     20  C   UNL     1      47.489   8.498  13.795  0.00  0.00    +0.000 C 
BRANCH  20  21
ATOM     21  N   UNL     1      47.789   7.902  15.072  0.00  0.00    +0.000 N 
ATOM     22  C   UNL     1      48.957   7.208  15.279  0.00  0.00    +0.000 C 
ATOM     23  O   UNL     1      49.812   7.098  14.404  0.00  0.00    +0.000 OA
ATOM     24  H   UNL     1      47.015   7.778  15.719  0.00  0.00    +0.000 HD
BRANCH  22  25
ATOM     25  C   UNL     1      49.163   6.653  16.626  0.00  0.00    +0.000 A 
ATOM     26  C   UNL     1      49.844   7.402  17.580  0.00  0.00    +0.000 A 
ATOM     27  S   UNL     1      49.949   6.632  19.099  0.00  0.00    +0.000 S 
ATOM     28  C   UNL     1      49.142   5.252  18.521  0.00  0.00    +0.000 A 
ATOM     29  N   UNL     1      48.925   4.178  19.325  0.00  0.00    +0.000 NA
ATOM     30  C   UNL     1      48.333   3.187  18.745  0.00  0.00    +0.000 A 
ATOM     31  N   UNL     1      47.934   3.175  17.435  0.00  0.00    +0.000 N 
ATOM     32  C   UNL     1      48.100   4.249  16.594  0.00  0.00    +0.000 A 
ATOM     33  O   UNL     1      47.689   4.223  15.438  0.00  0.00    +0.000 OA
ATOM     34  C   UNL     1      48.775   5.384  17.190  0.00  0.00    +0.000 A 
ATOM     35  H   UNL     1      47.467   2.371  17.042  0.00  0.00    +0.000 HD
ENDBRANCH  22  25
ENDBRANCH  20  21
ENDBRANCH   4  20
TORSDOF 6
ENDMDL
MODEL 2
REMARK VINA RESULT:    -8.607      1.478      1.961
REMARK INTER + INTRA:         -12.253
REMARK INTER:                 -11.168
REMARK INTRA:                  -1.085
REMARK UNBOUND:                -0.627
REMARK  Name = 
REMARK  8 active torsions:
REMARK  status: ('A' for Active; 'I' for Inactive)
REMARK    1  A    between atoms: C_1  and  C_2
REMARK    2  A    between atoms: C_6  and  C_7
REMARK    3  A    between atoms: N_9  and  C_10
REMARK    4  A    between atoms: C_10  and  C_11
REMARK    5  A    between atoms: C_10  and  C_12
REMARK    6  A    between atoms: C_15  and  C_16
REMARK    7  A    between atoms: C_16  and  N_17
REMARK    8  A    between atoms: C_18  and  C_20
REMARK                            x       y       z     vdW  Elec       q    Type
REMARK                         _______ _______ _______ _____ _____    ______ ____
ROOT
ATOM      1  C   UNL     1      44.572   5.093  11.827  0.00  0.00    +0.000 A 
ATOM      2  C   UNL     1      45.699   5.061  12.666  0.00  0.00    +0.000 A 
ATOM      3  C   UNL     1      46.339   6.240  13.064  0.00  0.00    +0.000 A 
ATOM      4  C   UNL     1      45.856   7.487  12.649  0.00  0.00    +0.000 A 
ATOM      5  C   UNL     1      44.730   7.524  11.815  0.00  0.00    +0.000 A 
ATOM      6  C   UNL     1      44.090   6.345  11.416  0.00  0.00    +0.000 A 
ENDROOT
BRANCH   1   7
ATOM      7  C   UNL     1      43.965   3.786  11.343  0.00  0.00    +0.000 C 
ATOM      8  C   UNL     1      43.571   2.886  12.519  0.00  0.00    +0.000 C 
BRANCH   7  11
ATOM      9  C   UNL     1      44.817   3.376   9.058  0.00  0.00    +0.000 C 
ATOM     10  O   UNL     1      44.145   4.277   8.563  0.00  0.00    +0.000 OA
ATOM     11  N   UNL     1      44.826   3.083  10.409  0.00  0.00    +0.000 N 
ATOM     12  H   UNL     1      45.365   2.273  10.699  0.00  0.00    +0.000 HD
BRANCH   9  18
ATOM     13  C   UNL     1      47.738   2.795   5.031  0.00  0.00    +0.000 C 
ATOM     14  C   UNL     1      47.093   2.241   6.266  0.00  0.00    +0.000 A 
ATOM     15  C   UNL     1      47.291   0.917   6.663  0.00  0.00    +0.000 A 
ATOM     16  C   UNL     1      46.666   0.463   7.820  0.00  0.00    +0.000 A 
ATOM     17  N   UNL     1      45.868   1.223   8.602  0.00  0.00    +0.000 NA
ATOM     18  C   UNL     1      45.691   2.511   8.199  0.00  0.00    +0.000 A 
ATOM     19  C   UNL     1      46.272   3.051   7.053  0.00  0.00    +0.000 A 
ENDBRANCH   9  18
ENDBRANCH   7  11
ENDBRANCH   1   7
BRANCH   4  20
ATOM     20  C   UNL     1      46.551   8.763  13.057  0.00  0.00    +0.000 C 
BRANCH  20  21
ATOM     21  N   UNL     1      46.975   8.717  14.434  0.00  0.00    +0.000 N 
ATOM     22  C   UNL     1      48.298   8.846  14.778  0.00  0.00    +0.000 C 
ATOM     23  O   UNL     1      49.172   9.046  13.938  0.00  0.00    +0.000 OA
ATOM     24  H   UNL     1      46.321   8.325  15.106  0.00  0.00    +0.000 HD
BRANCH  22  25
ATOM     25  C   UNL     1      48.612   8.796  16.214  0.00  0.00    +0.000 A 
ATOM     26  C   UNL     1      48.700   9.979  16.940  0.00  0.00    +0.000 A 
ATOM     27  S   UNL     1      49.021   9.737  18.598  0.00  0.00    +0.000 S 
ATOM     28  C   UNL     1      49.113   8.052  18.393  0.00  0.00    +0.000 A 
ATOM     29  N   UNL     1      49.396   7.233  19.441  0.00  0.00    +0.000 NA
ATOM     30  C   UNL     1      49.469   5.980  19.135  0.00  0.00    +0.000 A 
ATOM     31  N   UNL     1      49.280   5.472  17.877  0.00  0.00    +0.000 N 
ATOM     32  C   UNL     1      48.957   6.256  16.796  0.00  0.00    +0.000 A 
ATOM     33  O   UNL     1      48.748   5.763  15.692  0.00  0.00    +0.000 OA
ATOM     34  C   UNL     1      48.878   7.674  17.080  0.00  0.00    +0.000 A 
ATOM     35  H   UNL     1      49.342   4.479  17.704  0.00  0.00    +0.000 HD
ENDBRANCH  22  25
ENDBRANCH  20  21
ENDBRANCH   4  20
TORSDOF 6
ENDMDL
MODEL 3
REMARK VINA RESULT:    -8.476      1.707      2.342
REMARK INTER + INTRA:         -12.076
REMARK INTER:                 -11.094
REMARK INTRA:                  -0.983
REMARK UNBOUND:                -0.627
REMARK  Name = 
REMARK  8 active torsions:
REMARK  status: ('A' for Active; 'I' for Inactive)
REMARK    1  A    between atoms: C_1  and  C_2
REMARK    2  A    between atoms: C_6  and  C_7
REMARK    3  A    between atoms: N_9  and  C_10
REMARK    4  A    between atoms: C_10  and  C_11
REMARK    5  A    between atoms: C_10  and  C_12
REMARK    6  A    between atoms: C_15  and  C_16
REMARK    7  A    between atoms: C_16  and  N_17
REMARK    8  A    between atoms: C_18  and  C_20
REMARK                            x       y       z     vdW  Elec       q    Type
REMARK                         _______ _______ _______ _____ _____    ______ ____
ROOT
ATOM      1  C   UNL     1      45.032   5.776  11.681  0.00  0.00    +0.000 A 
ATOM      2  C   UNL     1      45.858   5.037  12.545  0.00  0.00    +0.000 A 
ATOM      3  C   UNL     1      46.836   5.665  13.324  0.00  0.00    +0.000 A 
ATOM      4  C   UNL     1      47.002   7.054  13.275  0.00  0.00    +0.000 A 
ATOM      5  C   UNL     1      46.178   7.796  12.417  0.00  0.00    +0.000 A 
ATOM      6  C   UNL     1      45.200   7.168  11.637  0.00  0.00    +0.000 A 
ENDROOT
BRANCH   1   7
ATOM      7  C   UNL     1      44.046   5.044  10.783  0.00  0.00    +0.000 C 
ATOM      8  C   UNL     1      42.858   4.505  11.586  0.00  0.00    +0.000 C 
BRANCH   7  11
ATOM      9  C   UNL     1      45.517   4.283   8.947  0.00  0.00    +0.000 C 
ATOM     10  O   UNL     1      45.843   5.423   8.632  0.00  0.00    +0.000 OA
ATOM     11  N   UNL     1      44.676   3.993  10.005  0.00  0.00    +0.000 N 
ATOM     12  H   UNL     1      44.419   3.019  10.133  0.00  0.00    +0.000 HD
BRANCH   9  18
ATOM     13  C   UNL     1      47.915   2.388   4.979  0.00  0.00    +0.000 C 
ATOM     14  C   UNL     1      47.178   2.199   6.271  0.00  0.00    +0.000 A 
ATOM     15  C   UNL     1      46.952   0.929   6.804  0.00  0.00    +0.000 A 
ATOM     16  C   UNL     1      46.264   0.819   8.007  0.00  0.00    +0.000 A 
ATOM     17  N   UNL     1      45.790   1.871   8.712  0.00  0.00    +0.000 NA
ATOM     18  C   UNL     1      46.024   3.100   8.176  0.00  0.00    +0.000 A 
ATOM     19  C   UNL     1      46.700   3.306   6.975  0.00  0.00    +0.000 A 
ENDBRANCH   9  18
ENDBRANCH   7  11
ENDBRANCH   1   7
BRANCH   4  20
ATOM     20  C   UNL     1      48.068   7.737  14.096  0.00  0.00    +0.000 C 
BRANCH  20  21
ATOM     21  N   UNL     1      48.026   7.314  15.473  0.00  0.00    +0.000 N 
ATOM     22  C   UNL     1      49.107   6.706  16.066  0.00  0.00    +0.000 C 
ATOM     23  O   UNL     1      50.165   6.532  15.466  0.00  0.00    +0.000 OA
ATOM     24  H   UNL     1      47.110   7.232  15.905  0.00  0.00    +0.000 HD
BRANCH  22  25
ATOM     25  C   UNL     1      48.955   6.327  17.478  0.00  0.00    +0.000 A 
ATOM     26  C   UNL     1      49.346   5.059  17.895  0.00  0.00    +0.000 A 
ATOM     27  S   UNL     1      49.148   4.802  19.570  0.00  0.00    +0.000 S 
ATOM     28  C   UNL     1      48.482   6.351  19.787  0.00  0.00    +0.000 A 
ATOM     29  N   UNL     1      48.061   6.769  21.011  0.00  0.00    +0.000 NA
ATOM     30  C   UNL     1      47.544   7.952  21.023  0.00  0.00    +0.000 A 
ATOM     31  N   UNL     1      47.414   8.758  19.923  0.00  0.00    +0.000 N 
ATOM     32  C   UNL     1      47.855   8.394  18.674  0.00  0.00    +0.000 A 
ATOM     33  O   UNL     1      47.766   9.158  17.718  0.00  0.00    +0.000 OA
ATOM     34  C   UNL     1      48.430   7.066  18.600  0.00  0.00    +0.000 A 
ATOM     35  H   UNL     1      47.008   9.679  20.000  0.00  0.00    +0.000 HD
ENDBRANCH  22  25
ENDBRANCH  20  21
ENDBRANCH   4  20
TORSDOF 6
ENDMDL
MODEL 4
REMARK VINA RESULT:    -8.395      1.966      2.243
REMARK INTER + INTRA:         -11.966
REMARK INTER:                 -10.921
REMARK INTRA:                  -1.045
REMARK UNBOUND:                -0.627
REMARK  Name = 
REMARK  8 active torsions:
REMARK  status: ('A' for Active; 'I' for Inactive)
REMARK    1  A    between atoms: C_1  and  C_2
REMARK    2  A    between atoms: C_6  and  C_7
REMARK    3  A    between atoms: N_9  and  C_10
REMARK    4  A    between atoms: C_10  and  C_11
REMARK    5  A    between atoms: C_10  and  C_12
REMARK    6  A    between atoms: C_15  and  C_16
REMARK    7  A    between atoms: C_16  and  N_17
REMARK    8  A    between atoms: C_18  and  C_20
REMARK                            x       y       z     vdW  Elec       q    Type
REMARK                         _______ _______ _______ _____ _____    ______ ____
ROOT
ATOM      1  C   UNL     1      45.361   4.691  12.499  0.00  0.00    +0.000 A 
ATOM      2  C   UNL     1      46.233   4.100  13.428  0.00  0.00    +0.000 A 
ATOM      3  C   UNL     1      47.133   4.874  14.170  0.00  0.00    +0.000 A 
ATOM      4  C   UNL     1      47.172   6.264  14.015  0.00  0.00    +0.000 A 
ATOM      5  C   UNL     1      46.301   6.859  13.091  0.00  0.00    +0.000 A 
ATOM      6  C   UNL     1      45.401   6.085  12.348  0.00  0.00    +0.000 A 
ENDROOT
BRANCH   1   7
ATOM      7  C   UNL     1      44.465   3.804  11.647  0.00  0.00    +0.000 C 
ATOM      8  C   UNL     1      43.660   2.831  12.515  0.00  0.00    +0.000 C 
BRANCH   7  11
ATOM      9  C   UNL     1      44.989   3.363   9.271  0.00  0.00    +0.000 C 
ATOM     10  O   UNL     1      44.232   4.238   8.862  0.00  0.00    +0.000 OA
ATOM     11  N   UNL     1      45.201   3.100  10.612  0.00  0.00    +0.000 N 
ATOM     12  H   UNL     1      45.795   2.308  10.836  0.00  0.00    +0.000 HD
BRANCH   9  18
ATOM     13  C   UNL     1      47.576   2.835   5.014  0.00  0.00    +0.000 C 
ATOM     14  C   UNL     1      46.993   2.254   6.268  0.00  0.00    +0.000 A 
ATOM     15  C   UNL     1      47.149   0.904   6.589  0.00  0.00    +0.000 A 
ATOM     16  C   UNL     1      46.586   0.426   7.767  0.00  0.00    +0.000 A 
ATOM     17  N   UNL     1      45.889   1.185   8.641  0.00  0.00    +0.000 NA
ATOM     18  C   UNL     1      45.751   2.499   8.311  0.00  0.00    +0.000 A 
ATOM     19  C   UNL     1      46.276   3.065   7.150  0.00  0.00    +0.000 A 
ENDBRANCH   9  18
ENDBRANCH   7  11
ENDBRANCH   1   7
BRANCH   4  20
ATOM     20  C   UNL     1      48.152   7.104  14.795  0.00  0.00    +0.000 C 
BRANCH  20  21
ATOM     21  N   UNL     1      49.201   6.297  15.368  0.00  0.00    +0.000 N 
ATOM     22  C   UNL     1      49.408   6.256  16.725  0.00  0.00    +0.000 C 
ATOM     23  O   UNL     1      48.691   6.870  17.512  0.00  0.00    +0.000 OA
ATOM     24  H   UNL     1      49.935   5.980  14.741  0.00  0.00    +0.000 HD
BRANCH  22  25
ATOM     25  C   UNL     1      50.498   5.390  17.198  0.00  0.00    +0.000 A 
ATOM     26  C   UNL     1      51.669   5.962  17.685  0.00  0.00    +0.000 A 
ATOM     27  S   UNL     1      52.807   4.817  18.236  0.00  0.00    +0.000 S 
ATOM     28  C   UNL     1      51.803   3.519  17.792  0.00  0.00    +0.000 A 
ATOM     29  N   UNL     1      52.202   2.231  17.969  0.00  0.00    +0.000 NA
ATOM     30  C   UNL     1      51.356   1.348  17.555  0.00  0.00    +0.000 A 
ATOM     31  N   UNL     1      50.145   1.636  16.983  0.00  0.00    +0.000 N 
ATOM     32  C   UNL     1      49.685   2.920  16.815  0.00  0.00    +0.000 A 
ATOM     33  O   UNL     1      48.574   3.142  16.342  0.00  0.00    +0.000 OA
ATOM     34  C   UNL     1      50.603   3.952  17.249  0.00  0.00    +0.000 A 
ATOM     35  H   UNL     1      49.523   0.899  16.687  0.00  0.00    +0.000 HD
ENDBRANCH  22  25
ENDBRANCH  20  21
ENDBRANCH   4  20
TORSDOF 6
ENDMDL
MODEL 5
REMARK VINA RESULT:    -8.188      3.753      4.971
REMARK INTER + INTRA:         -11.687
REMARK INTER:                 -10.394
REMARK INTRA:                  -1.293
REMARK UNBOUND:                -0.627
REMARK  Name = 
REMARK  8 active torsions:
REMARK  status: ('A' for Active; 'I' for Inactive)
REMARK    1  A    between atoms: C_1  and  C_2
REMARK    2  A    between atoms: C_6  and  C_7
REMARK    3  A    between atoms: N_9  and  C_10
REMARK    4  A    between atoms: C_10  and  C_11
REMARK    5  A    between atoms: C_10  and  C_12
REMARK    6  A    between atoms: C_15  and  C_16
REMARK    7  A    between atoms: C_16  and  N_17
REMARK    8  A    between atoms: C_18  and  C_20
REMARK                            x       y       z     vdW  Elec       q    Type
REMARK                         _______ _______ _______ _____ _____    ______ ____
ROOT
ATOM      1  C   UNL     1      44.853   5.285  11.900  0.00  0.00    +0.000 A 
ATOM      2  C   UNL     1      44.364   6.558  11.560  0.00  0.00    +0.000 A 
ATOM      3  C   UNL     1      44.951   7.720  12.074  0.00  0.00    +0.000 A 
ATOM      4  C   UNL     1      46.058   7.641  12.927  0.00  0.00    +0.000 A 
ATOM      5  C   UNL     1      46.552   6.373  13.266  0.00  0.00    +0.000 A 
ATOM      6  C   UNL     1      45.964   5.210  12.753  0.00  0.00    +0.000 A 
ENDROOT
BRANCH   1   7
ATOM      7  C   UNL     1      44.128   4.048  11.394  0.00  0.00    +0.000 C 
ATOM      8  C   UNL     1      43.641   3.176  12.557  0.00  0.00    +0.000 C 
BRANCH   7  11
ATOM      9  C   UNL     1      44.898   3.540   9.100  0.00  0.00    +0.000 C 
ATOM     10  O   UNL     1      44.265   4.466   8.600  0.00  0.00    +0.000 OA
ATOM     11  N   UNL     1      44.925   3.278  10.457  0.00  0.00    +0.000 N 
ATOM     12  H   UNL     1      45.426   2.445  10.753  0.00  0.00    +0.000 HD
BRANCH   9  18
ATOM     13  C   UNL     1      47.690   2.711   5.025  0.00  0.00    +0.000 C 
ATOM     14  C   UNL     1      47.041   2.219   6.285  0.00  0.00    +0.000 A 
ATOM     15  C   UNL     1      47.171   0.895   6.706  0.00  0.00    +0.000 A 
ATOM     16  C   UNL     1      46.547   0.501   7.884  0.00  0.00    +0.000 A 
ATOM     17  N   UNL     1      45.812   1.321   8.667  0.00  0.00    +0.000 NA
ATOM     18  C   UNL     1      45.701   2.609   8.241  0.00  0.00    +0.000 A 
ATOM     19  C   UNL     1      46.287   3.092   7.072  0.00  0.00    +0.000 A 
ENDBRANCH   9  18
ENDBRANCH   7  11
ENDBRANCH   1   7
BRANCH   4  20
ATOM     20  C   UNL     1      46.685   8.887  13.502  0.00  0.00    +0.000 C 
BRANCH  20  21
ATOM     21  N   UNL     1      47.983   9.138  12.928  0.00  0.00    +0.000 N 
ATOM     22  C   UNL     1      48.143  10.012  11.881  0.00  0.00    +0.000 C 
ATOM     23  O   UNL     1      47.201  10.646  11.413  0.00  0.00    +0.000 OA
ATOM     24  H   UNL     1      48.717   8.466  13.134  0.00  0.00    +0.000 HD
BRANCH  22  25
ATOM     25  C   UNL     1      49.515  10.199  11.384  0.00  0.00    +0.000 A 
ATOM     26  C   UNL     1      49.957  11.475  11.053  0.00  0.00    +0.000 A 
ATOM     27  S   UNL     1      51.585  11.520  10.543  0.00  0.00    +0.000 S 
ATOM     28  C   UNL     1      51.738   9.833  10.691  0.00  0.00    +0.000 A 
ATOM     29  N   UNL     1      52.900   9.203  10.373  0.00  0.00    +0.000 NA
ATOM     30  C   UNL     1      52.864   7.918  10.499  0.00  0.00    +0.000 A 
ATOM     31  N   UNL     1      51.771   7.206  10.919  0.00  0.00    +0.000 N 
ATOM     32  C   UNL     1      50.588   7.801  11.284  0.00  0.00    +0.000 A 
ATOM     33  O   UNL     1      49.643   7.138  11.700  0.00  0.00    +0.000 OA
ATOM     34  C   UNL     1      50.568   9.243  11.146  0.00  0.00    +0.000 A 
ATOM     35  H   UNL     1      51.809   6.201  11.005  0.00  0.00    +0.000 HD
ENDBRANCH  22  25
ENDBRANCH  20  21
ENDBRANCH   4  20
TORSDOF 6
ENDMDL
MODEL 6
REMARK VINA RESULT:    -8.115      1.966      2.603
REMARK INTER + INTRA:         -11.589
REMARK INTER:                 -10.546
REMARK INTRA:                  -1.043
REMARK UNBOUND:                -0.627
REMARK  Name = 
REMARK  8 active torsions:
REMARK  status: ('A' for Active; 'I' for Inactive)
REMARK    1  A    between atoms: C_1  and  C_2
REMARK    2  A    between atoms: C_6  and  C_7
REMARK    3  A    between atoms: N_9  and  C_10
REMARK    4  A    between atoms: C_10  and  C_11
REMARK    5  A    between atoms: C_10  and  C_12
REMARK    6  A    between atoms: C_15  and  C_16
REMARK    7  A    between atoms: C_16  and  N_17
REMARK    8  A    between atoms: C_18  and  C_20
REMARK                            x       y       z     vdW  Elec       q    Type
REMARK                         _______ _______ _______ _____ _____    ______ ____
ROOT
ATOM      1  C   UNL     1      45.654   5.097  12.366  0.00  0.00    +0.000 A 
ATOM      2  C   UNL     1      45.959   4.495  13.598  0.00  0.00    +0.000 A 
ATOM      3  C   UNL     1      46.964   5.008  14.426  0.00  0.00    +0.000 A 
ATOM      4  C   UNL     1      47.680   6.151  14.052  0.00  0.00    +0.000 A 
ATOM      5  C   UNL     1      47.377   6.758  12.825  0.00  0.00    +0.000 A 
ATOM      6  C   UNL     1      46.372   6.244  11.996  0.00  0.00    +0.000 A 
ENDROOT
BRANCH   1   7
ATOM      7  C   UNL     1      44.620   4.453  11.456  0.00  0.00    +0.000 C 
ATOM      8  C   UNL     1      43.636   3.592  12.254  0.00  0.00    +0.000 C 
BRANCH   7  11
ATOM      9  C   UNL     1      45.474   4.270   9.142  0.00  0.00    +0.000 C 
ATOM     10  O   UNL     1      45.272   5.454   8.892  0.00  0.00    +0.000 OA
ATOM     11  N   UNL     1      45.225   3.695  10.375  0.00  0.00    +0.000 N 
ATOM     12  H   UNL     1      45.364   2.692  10.450  0.00  0.00    +0.000 HD
BRANCH   9  18
ATOM     13  C   UNL     1      46.732  -0.340   7.639  0.00  0.00    +0.000 C 
ATOM     14  C   UNL     1      46.617   1.132   7.377  0.00  0.00    +0.000 A 
ATOM     15  C   UNL     1      46.996   1.689   6.155  0.00  0.00    +0.000 A 
ATOM     16  C   UNL     1      46.863   3.061   5.973  0.00  0.00    +0.000 A 
ATOM     17  N   UNL     1      46.384   3.910   6.908  0.00  0.00    +0.000 NA
ATOM     18  C   UNL     1      46.018   3.347   8.092  0.00  0.00    +0.000 A 
ATOM     19  C   UNL     1      46.120   1.984   8.366  0.00  0.00    +0.000 A 
ENDBRANCH   9  18
ENDBRANCH   7  11
ENDBRANCH   1   7
BRANCH   4  20
ATOM     20  C   UNL     1      48.778   6.699  14.928  0.00  0.00    +0.000 C 
BRANCH  20  21
ATOM     21  N   UNL     1      48.326   6.894  16.283  0.00  0.00    +0.000 N 
ATOM     22  C   UNL     1      49.045   7.654  17.173  0.00  0.00    +0.000 C 
ATOM     23  O   UNL     1      50.079   8.233  16.848  0.00  0.00    +0.000 OA
ATOM     24  H   UNL     1      47.622   6.250  16.633  0.00  0.00    +0.000 HD
BRANCH  22  25
ATOM     25  C   UNL     1      48.482   7.793  18.525  0.00  0.00    +0.000 A 
ATOM     26  C   UNL     1      48.115   9.052  18.989  0.00  0.00    +0.000 A 
ATOM     27  S   UNL     1      47.434   9.027  20.554  0.00  0.00    +0.000 S 
ATOM     28  C   UNL     1      47.660   7.347  20.688  0.00  0.00    +0.000 A 
ATOM     29  N   UNL     1      47.309   6.680  21.819  0.00  0.00    +0.000 NA
ATOM     30  C   UNL     1      47.568   5.415  21.796  0.00  0.00    +0.000 A 
ATOM     31  N   UNL     1      48.143   4.755  20.742  0.00  0.00    +0.000 N 
ATOM     32  C   UNL     1      48.482   5.380  19.566  0.00  0.00    +0.000 A 
ATOM     33  O   UNL     1      48.952   4.751  18.624  0.00  0.00    +0.000 OA
ATOM     34  C   UNL     1      48.226   6.806  19.544  0.00  0.00    +0.000 A 
ATOM     35  H   UNL     1      48.313   3.762  20.783  0.00  0.00    +0.000 HD
ENDBRANCH  22  25
ENDBRANCH  20  21
ENDBRANCH   4  20
TORSDOF 6
ENDMDL
MODEL 7
REMARK VINA RESULT:    -7.984      1.636      2.227
REMARK INTER + INTRA:         -11.412
REMARK INTER:                 -10.588
REMARK INTRA:                  -0.824
REMARK UNBOUND:                -0.627
REMARK  Name = 
REMARK  8 active torsions:
REMARK  status: ('A' for Active; 'I' for Inactive)
REMARK    1  A    between atoms: C_1  and  C_2
REMARK    2  A    between atoms: C_6  and  C_7
REMARK    3  A    between atoms: N_9  and  C_10
REMARK    4  A    between atoms: C_10  and  C_11
REMARK    5  A    between atoms: C_10  and  C_12
REMARK    6  A    between atoms: C_15  and  C_16
REMARK    7  A    between atoms: C_16  and  N_17
REMARK    8  A    between atoms: C_18  and  C_20
REMARK                            x       y       z     vdW  Elec       q    Type
REMARK                         _______ _______ _______ _____ _____    ______ ____
ROOT
ATOM      1  C   UNL     1      44.943   5.752  11.675  0.00  0.00    +0.000 A 
ATOM      2  C   UNL     1      45.754   5.012  12.551  0.00  0.00    +0.000 A 
ATOM      3  C   UNL     1      46.714   5.640  13.353  0.00  0.00    +0.000 A 
ATOM      4  C   UNL     1      46.875   7.030  13.314  0.00  0.00    +0.000 A 
ATOM      5  C   UNL     1      46.066   7.773  12.443  0.00  0.00    +0.000 A 
ATOM      6  C   UNL     1      45.106   7.145  11.640  0.00  0.00    +0.000 A 
ENDROOT
BRANCH   1   7
ATOM      7  C   UNL     1      43.979   5.021  10.754  0.00  0.00    +0.000 C 
ATOM      8  C   UNL     1      42.779   4.468  11.531  0.00  0.00    +0.000 C 
BRANCH   7  11
ATOM      9  C   UNL     1      45.482   4.283   8.934  0.00  0.00    +0.000 C 
ATOM     10  O   UNL     1      45.801   5.428   8.629  0.00  0.00    +0.000 OA
ATOM     11  N   UNL     1      44.630   3.979   9.979  0.00  0.00    +0.000 N 
ATOM     12  H   UNL     1      44.380   3.002  10.098  0.00  0.00    +0.000 HD
BRANCH   9  18
ATOM     13  C   UNL     1      47.856   2.425   4.934  0.00  0.00    +0.000 C 
ATOM     14  C   UNL     1      47.154   2.225   6.244  0.00  0.00    +0.000 A 
ATOM     15  C   UNL     1      46.981   0.955   6.795  0.00  0.00    +0.000 A 
ATOM     16  C   UNL     1      46.324   0.836   8.014  0.00  0.00    +0.000 A 
ATOM     17  N   UNL     1      45.831   1.879   8.719  0.00  0.00    +0.000 NA
ATOM     18  C   UNL     1      46.012   3.110   8.165  0.00  0.00    +0.000 A 
ATOM     19  C   UNL     1      46.654   3.324   6.947  0.00  0.00    +0.000 A 
ENDBRANCH   9  18
ENDBRANCH   7  11
ENDBRANCH   1   7
BRANCH   4  20
ATOM     20  C   UNL     1      47.921   7.713  14.160  0.00  0.00    +0.000 C 
BRANCH  20  21
ATOM     21  N   UNL     1      48.446   6.827  15.169  0.00  0.00    +0.000 N 
ATOM     22  C   UNL     1      48.857   7.302  16.391  0.00  0.00    +0.000 C 
ATOM     23  O   UNL     1      48.761   8.488  16.694  0.00  0.00    +0.000 OA
ATOM     24  H   UNL     1      48.749   5.907  14.864  0.00  0.00    +0.000 HD
BRANCH  22  25
ATOM     25  C   UNL     1      49.365   6.305  17.346  0.00  0.00    +0.000 A 
ATOM     26  C   UNL     1      48.505   5.766  18.297  0.00  0.00    +0.000 A 
ATOM     27  S   UNL     1      49.241   4.590  19.291  0.00  0.00    +0.000 S 
ATOM     28  C   UNL     1      50.745   4.803  18.526  0.00  0.00    +0.000 A 
ATOM     29  N   UNL     1      51.840   4.104  18.926  0.00  0.00    +0.000 NA
ATOM     30  C   UNL     1      52.922   4.390  18.281  0.00  0.00    +0.000 A 
ATOM     31  N   UNL     1      53.007   5.310  17.270  0.00  0.00    +0.000 N 
ATOM     32  C   UNL     1      51.921   6.014  16.809  0.00  0.00    +0.000 A 
ATOM     33  O   UNL     1      52.022   6.797  15.869  0.00  0.00    +0.000 OA
ATOM     34  C   UNL     1      50.682   5.743  17.509  0.00  0.00    +0.000 A 
ATOM     35  H   UNL     1      53.882   5.483  16.799  0.00  0.00    +0.000 HD
ENDBRANCH  22  25
ENDBRANCH  20  21
ENDBRANCH   4  20
TORSDOF 6
ENDMDL
MODEL 8
REMARK VINA RESULT:    -7.424      3.492      4.824
REMARK INTER + INTRA:         -10.655
REMARK INTER:                  -9.271
REMARK INTRA:                  -1.385
REMARK UNBOUND:                -0.627
REMARK  Name = 
REMARK  8 active torsions:
REMARK  status: ('A' for Active; 'I' for Inactive)
REMARK    1  A    between atoms: C_1  and  C_2
REMARK    2  A    between atoms: C_6  and  C_7
REMARK    3  A    between atoms: N_9  and  C_10
REMARK    4  A    between atoms: C_10  and  C_11
REMARK    5  A    between atoms: C_10  and  C_12
REMARK    6  A    between atoms: C_15  and  C_16
REMARK    7  A    between atoms: C_16  and  N_17
REMARK    8  A    between atoms: C_18  and  C_20
REMARK                            x       y       z     vdW  Elec       q    Type
REMARK                         _______ _______ _______ _____ _____    ______ ____
ROOT
ATOM      1  C   UNL     1      45.659   5.922  12.213  0.00  0.00    +0.000 A 
ATOM      2  C   UNL     1      46.291   5.002  13.065  0.00  0.00    +0.000 A 
ATOM      3  C   UNL     1      47.318   5.401  13.928  0.00  0.00    +0.000 A 
ATOM      4  C   UNL     1      47.727   6.739  13.976  0.00  0.00    +0.000 A 
ATOM      5  C   UNL     1      47.097   7.662  13.130  0.00  0.00    +0.000 A 
ATOM      6  C   UNL     1      46.070   7.262  12.265  0.00  0.00    +0.000 A 
ENDROOT
BRANCH   1   7
ATOM      7  C   UNL     1      44.614   5.428  11.224  0.00  0.00    +0.000 C 
ATOM      8  C   UNL     1      43.316   5.035  11.938  0.00  0.00    +0.000 C 
BRANCH   7  11
ATOM      9  C   UNL     1      45.670   4.590   9.152  0.00  0.00    +0.000 C 
ATOM     10  O   UNL     1      45.861   5.716   8.702  0.00  0.00    +0.000 OA
ATOM     11  N   UNL     1      45.104   4.347  10.389  0.00  0.00    +0.000 N 
ATOM     12  H   UNL     1      44.929   3.376  10.631  0.00  0.00    +0.000 HD
BRANCH   9  18
ATOM     13  C   UNL     1      47.747   2.526   5.087  0.00  0.00    +0.000 C 
ATOM     14  C   UNL     1      47.049   2.391   6.408  0.00  0.00    +0.000 A 
ATOM     15  C   UNL     1      46.743   1.141   6.948  0.00  0.00    +0.000 A 
ATOM     16  C   UNL     1      46.097   1.082   8.178  0.00  0.00    +0.000 A 
ATOM     17  N   UNL     1      45.739   2.165   8.903  0.00  0.00    +0.000 NA
ATOM     18  C   UNL     1      46.050   3.374   8.360  0.00  0.00    +0.000 A 
ATOM     19  C   UNL     1      46.691   3.530   7.133  0.00  0.00    +0.000 A 
ENDBRANCH   9  18
ENDBRANCH   7  11
ENDBRANCH   1   7
BRANCH   4  20
ATOM     20  C   UNL     1      48.847   7.175  14.888  0.00  0.00    +0.000 C 
BRANCH  20  21
ATOM     21  N   UNL     1      50.079   7.357  14.163  0.00  0.00    +0.000 N 
ATOM     22  C   UNL     1      50.623   8.606  13.983  0.00  0.00    +0.000 C 
ATOM     23  O   UNL     1      50.110   9.614  14.463  0.00  0.00    +0.000 OA
ATOM     24  H   UNL     1      50.385   6.591  13.571  0.00  0.00    +0.000 HD
BRANCH  22  25
ATOM     25  C   UNL     1      51.888   8.671  13.237  0.00  0.00    +0.000 A 
ATOM     26  C   UNL     1      53.014   9.220  13.842  0.00  0.00    +0.000 A 
ATOM     27  S   UNL     1      54.407   9.171  12.856  0.00  0.00    +0.000 S 
ATOM     28  C   UNL     1      53.543   8.471  11.571  0.00  0.00    +0.000 A 
ATOM     29  N   UNL     1      54.150   8.191  10.387  0.00  0.00    +0.000 NA
ATOM     30  C   UNL     1      53.368   7.694   9.488  0.00  0.00    +0.000 A 
ATOM     31  N   UNL     1      52.032   7.448   9.667  0.00  0.00    +0.000 N 
ATOM     32  C   UNL     1      51.383   7.681  10.855  0.00  0.00    +0.000 A 
ATOM     33  O   UNL     1      50.195   7.405  10.997  0.00  0.00    +0.000 OA
ATOM     34  C   UNL     1      52.212   8.255  11.895  0.00  0.00    +0.000 A 
ATOM     35  H   UNL     1      51.474   7.050   8.926  0.00  0.00    +0.000 HD
ENDBRANCH  22  25
ENDBRANCH  20  21
ENDBRANCH   4  20
TORSDOF 6
ENDMDL
MODEL 9
REMARK VINA RESULT:    -7.275      4.397      5.767
REMARK INTER + INTRA:         -10.453
REMARK INTER:                  -9.251
REMARK INTRA:                  -1.202
REMARK UNBOUND:                -0.627
REMARK  Name = 
REMARK  8 active torsions:
REMARK  status: ('A' for Active; 'I' for Inactive)
REMARK    1  A    between atoms: C_1  and  C_2
REMARK    2  A    between atoms: C_6  and  C_7
REMARK    3  A    between atoms: N_9  and  C_10
REMARK    4  A    between atoms: C_10  and  C_11
REMARK    5  A    between atoms: C_10  and  C_12
REMARK    6  A    between atoms: C_15  and  C_16
REMARK    7  A    between atoms: C_16  and  N_17
REMARK    8  A    between atoms: C_18  and  C_20
REMARK                            x       y       z     vdW  Elec       q    Type
REMARK                         _______ _______ _______ _____ _____    ______ ____
ROOT
ATOM      1  C   UNL     1      45.772   7.435  12.213  0.00  0.00    +0.000 A 
ATOM      2  C   UNL     1      47.051   7.128  12.708  0.00  0.00    +0.000 A 
ATOM      3  C   UNL     1      48.009   8.128  12.908  0.00  0.00    +0.000 A 
ATOM      4  C   UNL     1      47.708   9.467  12.634  0.00  0.00    +0.000 A 
ATOM      5  C   UNL     1      46.433   9.779  12.142  0.00  0.00    +0.000 A 
ATOM      6  C   UNL     1      45.474   8.778  11.942  0.00  0.00    +0.000 A 
ENDROOT
BRANCH   1   7
ATOM      7  C   UNL     1      44.794   6.307  11.922  0.00  0.00    +0.000 C 
ATOM      8  C   UNL     1      44.374   5.591  13.210  0.00  0.00    +0.000 C 
BRANCH   7  11
ATOM      9  C   UNL     1      44.453   4.675  10.097  0.00  0.00    +0.000 C 
ATOM     10  O   UNL     1      43.238   4.846  10.067  0.00  0.00    +0.000 OA
ATOM     11  N   UNL     1      45.302   5.367  10.939  0.00  0.00    +0.000 N 
ATOM     12  H   UNL     1      46.280   5.096  10.929  0.00  0.00    +0.000 HD
BRANCH   9  18
ATOM     13  C   UNL     1      47.043   3.603   5.945  0.00  0.00    +0.000 C 
ATOM     14  C   UNL     1      46.352   3.165   7.202  0.00  0.00    +0.000 A 
ATOM     15  C   UNL     1      46.305   1.823   7.580  0.00  0.00    +0.000 A 
ATOM     16  C   UNL     1      45.652   1.480   8.758  0.00  0.00    +0.000 A 
ATOM     17  N   UNL     1      45.048   2.367   9.580  0.00  0.00    +0.000 NA
ATOM     18  C   UNL     1      45.108   3.671   9.194  0.00  0.00    +0.000 A 
ATOM     19  C   UNL     1      45.736   4.107   8.029  0.00  0.00    +0.000 A 
ENDBRANCH   9  18
ENDBRANCH   7  11
ENDBRANCH   1   7
BRANCH   4  20
ATOM     20  C   UNL     1      48.742  10.549  12.826  0.00  0.00    +0.000 C 
BRANCH  20  21
ATOM     21  N   UNL     1      49.996  10.197  12.209  0.00  0.00    +0.000 N 
ATOM     22  C   UNL     1      50.303  10.605  10.933  0.00  0.00    +0.000 C 
ATOM     23  O   UNL     1      49.546  11.318  10.278  0.00  0.00    +0.000 OA
ATOM     24  H   UNL     1      50.519   9.433  12.627  0.00  0.00    +0.000 HD
BRANCH  22  25
ATOM     25  C   UNL     1      51.615  10.197  10.410  0.00  0.00    +0.000 A 
ATOM     26  C   UNL     1      52.489  11.162   9.918  0.00  0.00    +0.000 A 
ATOM     27  S   UNL     1      53.983  10.524   9.398  0.00  0.00    +0.000 S 
ATOM     28  C   UNL     1      53.495   8.935   9.757  0.00  0.00    +0.000 A 
ATOM     29  N   UNL     1      54.315   7.878   9.515  0.00  0.00    +0.000 NA
ATOM     30  C   UNL     1      53.804   6.728   9.801  0.00  0.00    +0.000 A 
ATOM     31  N   UNL     1      52.547   6.539  10.313  0.00  0.00    +0.000 N 
ATOM     32  C   UNL     1      51.697   7.577  10.606  0.00  0.00    +0.000 A 
ATOM     33  O   UNL     1      50.595   7.376  11.108  0.00  0.00    +0.000 OA
ATOM     34  C   UNL     1      52.216   8.892  10.288  0.00  0.00    +0.000 A 
ATOM     35  H   UNL     1      52.207   5.613  10.524  0.00  0.00    +0.000 HD
ENDBRANCH  22  25
ENDBRANCH  20  21
ENDBRANCH   4  20
TORSDOF 6
ENDMDL
