MODEL 1
REMARK VINA RESULT:    -7.873      0.000      0.000
REMARK INTER + INTRA:         -11.700
REMARK INTER:                 -11.094
REMARK INTRA:                  -0.605
REMARK UNBOUND:                -0.605
REMARK  Name = 
REMARK  9 active torsions:
REMARK  status: ('A' for Active; 'I' for Inactive)
REMARK    1  A    between atoms: C_1  and  C_2
REMARK    2  A    between atoms: C_2  and  C_3
REMARK    3  A    between atoms: C_4  and  C_5
REMARK    4  A    between atoms: C_8  and  C_9
REMARK    5  A    between atoms: C_9  and  N_10
REMARK    6  A    between atoms: CA_14  and  C_15
REMARK    7  A    between atoms: C_15  and  OXT_17
REMARK    8  A    between atoms: C_21  and  C_22
REMARK    9  A    between atoms: C_22  and  N_23
REMARK                            x       y       z     vdW  Elec       q    Type
REMARK                         _______ _______ _______ _____ _____    ______ ____
ROOT
ATOM      1  C   UNL     1      46.838   6.348  13.309  0.00  0.00    +0.000 A 
ATOM      2  C   UNL     1      46.536   4.995  13.166  0.00  0.00    +0.000 A 
ATOM      3  N   UNL     1      45.455   4.501  12.493  0.00  0.00    +0.000 NA
ATOM      4  C   UNL     1      44.592   5.395  11.945  0.00  0.00    +0.000 A 
ATOM      5  C   UNL     1      44.766   6.763  12.119  0.00  0.00    +0.000 A 
ATOM      6  C   UNL     1      45.911   7.262  12.788  0.00  0.00    +0.000 A 
ENDROOT
BRANCH   1   8
ATOM      7  C   UNL     1      49.150   7.234  14.493  0.00  0.00    +0.000 C 
ATOM      8  C   UNL     1      48.081   6.770  13.907  0.00  0.00    +0.000 C 
BRANCH   7  10
ATOM      9  C   UNL     1      50.916   6.766  16.185  0.00  0.00    +0.000 C 
ATOM     10  C   UNL     1      50.396   7.774  15.176  0.00  0.00    +0.000 C 
ENDBRANCH   7  10
ENDBRANCH   1   8
BRANCH   4  11
ATOM     11  C   UNL     1      43.525   4.891  10.974  0.00  0.00    +0.000 C 
BRANCH  11  12
ATOM     12  N   UNL     1      43.890   4.962   9.566  0.00  0.00    +0.000 N 
ATOM     13  C   UNL     1      44.701   3.977   9.014  0.00  0.00    +0.000 A 
ATOM     14  C   UNL     1      44.736   2.640   9.444  0.00  0.00    +0.000 A 
ATOM     15  N   UNL     1      45.539   1.666   8.919  0.00  0.00    +0.000 NA
ATOM     16  CA  UNL     1      46.296   2.081   7.870  0.00  0.00    +0.000 A 
ATOM     17  C   UNL     1      46.240   3.380   7.387  0.00  0.00    +0.000 A 
ATOM     18  N   UNL     1      45.463   4.343   7.962  0.00  0.00    +0.000 NA
ATOM     19  H   UNL     1      44.185   5.873   9.220  0.00  0.00    +0.000 HD
BRANCH  16  20
ATOM     20  C   UNL     1      47.228   1.093   7.270  0.00  0.00    +0.000 C 
ATOM     21  O   UNL     1      48.114   1.372   6.490  0.00  0.00    +0.000 OA
BRANCH  20  22
ATOM     22  OXT UNL     1      46.988  -0.164   7.725  0.00  0.00    +0.000 OA
ATOM     23  HXT UNL     1      46.052  -0.245   8.020  0.00  0.00    +0.000 HD
ENDBRANCH  20  22
ENDBRANCH  16  20
ENDBRANCH  11  12
ENDBRANCH   4  11
BRANCH   6  24
ATOM     24  C   UNL     1      46.089   8.756  12.899  0.00  0.00    +0.000 C 
BRANCH  24  25
ATOM     25  N   UNL     1      44.810   9.458  12.808  0.00  0.00    +0.000 NA
ATOM     26  H   UNL     1      44.096   8.891  13.265  0.00  0.00    +0.000 HD
ATOM     27  H   UNL     1      44.538   9.508  11.828  0.00  0.00    +0.000 HD
ENDBRANCH  24  25
ENDBRANCH   6  24
TORSDOF 8
ENDMDL
MODEL 2
REMARK VINA RESULT:    -7.624      1.202      2.231
REMARK INTER + INTRA:         -11.349
REMARK INTER:                 -10.768
REMARK INTRA:                  -0.581
REMARK UNBOUND:                -0.605
REMARK  Name = 
REMARK  9 active torsions:
REMARK  status: ('A' for Active; 'I' for Inactive)
REMARK    1  A    between atoms: C_1  and  C_2
REMARK    2  A    between atoms: C_2  and  C_3
REMARK    3  A    between atoms: C_4  and  C_5
REMARK    4  A    between atoms: C_8  and  C_9
REMARK    5  A    between atoms: C_9  and  N_10
REMARK    6  A    between atoms: CA_14  and  C_15
REMARK    7  A    between atoms: C_15  and  OXT_17
REMARK    8  A    between atoms: C_21  and  C_22
REMARK    9  A    between atoms: C_22  and  N_23
REMARK                            x       y       z     vdW  Elec       q    Type
REMARK                         _______ _______ _______ _____ _____    ______ ____
ROOT
ATOM      1  C   UNL     1      47.531   6.230  13.448  0.00  0.00    +0.000 A 
ATOM      2  C   UNL     1      47.235   6.823  12.221  0.00  0.00    +0.000 A 
ATOM      3  N   UNL     1      46.197   6.466  11.409  0.00  0.00    +0.000 NA
ATOM      4  C   UNL     1      45.408   5.436  11.811  0.00  0.00    +0.000 A 
ATOM      5  C   UNL     1      45.687   4.728  12.975  0.00  0.00    +0.000 A 
ATOM      6  C   UNL     1      46.745   5.133  13.826  0.00  0.00    +0.000 A 
ENDROOT
BRANCH   1   8
ATOM      7  C   UNL     1      49.548   7.190  15.042  0.00  0.00    +0.000 C 
ATOM      8  C   UNL     1      48.555   6.774  14.306  0.00  0.00    +0.000 C 
BRANCH   7  10
ATOM      9  C   UNL     1      51.584   6.504  16.301  0.00  0.00    +0.000 C 
ATOM     10  C   UNL     1      50.706   7.675  15.900  0.00  0.00    +0.000 C 
ENDBRANCH   7  10
ENDBRANCH   1   8
BRANCH   4  11
ATOM     11  C   UNL     1      44.097   5.178  11.070  0.00  0.00    +0.000 C 
BRANCH  11  12
ATOM     12  N   UNL     1      44.218   5.074   9.622  0.00  0.00    +0.000 N 
ATOM     13  C   UNL     1      44.907   4.003   9.064  0.00  0.00    +0.000 A 
ATOM     14  C   UNL     1      44.993   2.724   9.639  0.00  0.00    +0.000 A 
ATOM     15  N   UNL     1      45.679   1.668   9.108  0.00  0.00    +0.000 NA
ATOM     16  CA  UNL     1      46.253   1.931   7.905  0.00  0.00    +0.000 A 
ATOM     17  C   UNL     1      46.136   3.167   7.286  0.00  0.00    +0.000 A 
ATOM     18  N   UNL     1      45.484   4.217   7.863  0.00  0.00    +0.000 NA
ATOM     19  H   UNL     1      44.464   5.927   9.125  0.00  0.00    +0.000 HD
BRANCH  16  20
ATOM     20  C   UNL     1      47.053   0.847   7.280  0.00  0.00    +0.000 C 
ATOM     21  O   UNL     1      46.921  -0.333   7.529  0.00  0.00    +0.000 OA
BRANCH  20  22
ATOM     22  OXT UNL     1      47.934   1.335   6.369  0.00  0.00    +0.000 OA
ATOM     23  HXT UNL     1      48.769   1.603   6.816  0.00  0.00    +0.000 HD
ENDBRANCH  20  22
ENDBRANCH  16  20
ENDBRANCH  11  12
ENDBRANCH   4  11
BRANCH   6  24
ATOM     24  C   UNL     1      46.970   4.373  15.109  0.00  0.00    +0.000 C 
BRANCH  24  25
ATOM     25  N   UNL     1      47.706   3.131  14.876  0.00  0.00    +0.000 NA
ATOM     26  H   UNL     1      47.056   2.350  14.954  0.00  0.00    +0.000 HD
ATOM     27  H   UNL     1      48.379   3.008  15.630  0.00  0.00    +0.000 HD
ENDBRANCH  24  25
ENDBRANCH   6  24
TORSDOF 8
ENDMDL
MODEL 3
REMARK VINA RESULT:    -6.848      1.833      2.389
REMARK INTER + INTRA:         -10.255
REMARK INTER:                  -9.770
REMARK INTRA:                  -0.485
REMARK UNBOUND:                -0.605
REMARK  Name = 
REMARK  9 active torsions:
REMARK  status: ('A' for Active; 'I' for Inactive)
REMARK    1  A    between atoms: C_1  and  C_2
REMARK    2  A    between atoms: C_2  and  C_3
REMARK    3  A    between atoms: C_4  and  C_5
REMARK    4  A    between atoms: C_8  and  C_9
REMARK    5  A    between atoms: C_9  and  N_10
REMARK    6  A    between atoms: CA_14  and  C_15
REMARK    7  A    between atoms: C_15  and  OXT_17
REMARK    8  A    between atoms: C_21  and  C_22
REMARK    9  A    between atoms: C_22  and  N_23
REMARK                            x       y       z     vdW  Elec       q    Type
REMARK                         _______ _______ _______ _____ _____    ______ ____
ROOT
ATOM      1  C   UNL     1      45.766   6.804  12.728  0.00  0.00    +0.000 A 
ATOM      2  C   UNL     1      45.908   5.476  13.123  0.00  0.00    +0.000 A 
ATOM      3  N   UNL     1      45.202   4.426  12.609  0.00  0.00    +0.000 NA
ATOM      4  C   UNL     1      44.269   4.699  11.660  0.00  0.00    +0.000 A 
ATOM      5  C   UNL     1      43.997   6.007  11.274  0.00  0.00    +0.000 A 
ATOM      6  C   UNL     1      44.762   7.082  11.789  0.00  0.00    +0.000 A 
ENDROOT
BRANCH   1   8
ATOM      7  C   UNL     1      47.486   8.775  13.562  0.00  0.00    +0.000 C 
ATOM      8  C   UNL     1      46.661   7.823  13.220  0.00  0.00    +0.000 C 
BRANCH   7  10
ATOM      9  C   UNL     1      48.488  10.950  12.880  0.00  0.00    +0.000 C 
ATOM     10  C   UNL     1      48.446   9.884  13.960  0.00  0.00    +0.000 C 
ENDBRANCH   7  10
ENDBRANCH   1   8
BRANCH   4  11
ATOM     11  C   UNL     1      43.648   3.541  10.881  0.00  0.00    +0.000 C 
BRANCH  11  12
ATOM     12  N   UNL     1      44.562   2.453  10.560  0.00  0.00    +0.000 N 
ATOM     13  C   UNL     1      45.283   2.487   9.372  0.00  0.00    +0.000 A 
ATOM     14  C   UNL     1      45.703   3.663   8.727  0.00  0.00    +0.000 A 
ATOM     15  N   UNL     1      46.398   3.710   7.552  0.00  0.00    +0.000 NA
ATOM     16  CA  UNL     1      46.721   2.489   7.052  0.00  0.00    +0.000 A 
ATOM     17  C   UNL     1      46.370   1.312   7.697  0.00  0.00    +0.000 A 
ATOM     18  N   UNL     1      45.634   1.295   8.845  0.00  0.00    +0.000 NA
ATOM     19  H   UNL     1      44.216   1.508  10.716  0.00  0.00    +0.000 HD
BRANCH  16  20
ATOM     20  C   UNL     1      47.442   2.453   5.754  0.00  0.00    +0.000 C 
ATOM     21  O   UNL     1      47.087   3.047   4.757  0.00  0.00    +0.000 OA
BRANCH  20  22
ATOM     22  OXT UNL     1      48.566   1.695   5.825  0.00  0.00    +0.000 OA
ATOM     23  HXT UNL     1      48.731   1.419   6.756  0.00  0.00    +0.000 HD
ENDBRANCH  20  22
ENDBRANCH  16  20
ENDBRANCH  11  12
ENDBRANCH   4  11
BRANCH   6  24
ATOM     24  C   UNL     1      44.473   8.477  11.295  0.00  0.00    +0.000 C 
BRANCH  24  25
ATOM     25  N   UNL     1      43.078   8.622  10.882  0.00  0.00    +0.000 NA
ATOM     26  H   UNL     1      42.913   9.596  10.630  0.00  0.00    +0.000 HD
ATOM     27  H   UNL     1      42.482   8.440  11.688  0.00  0.00    +0.000 HD
ENDBRANCH  24  25
ENDBRANCH   6  24
TORSDOF 8
ENDMDL
MODEL 4
REMARK VINA RESULT:    -6.368      1.845      2.465
REMARK INTER + INTRA:          -9.578
REMARK INTER:                  -9.176
REMARK INTRA:                  -0.403
REMARK UNBOUND:                -0.605
REMARK  Name = 
REMARK  9 active torsions:
REMARK  status: ('A' for Active; 'I' for Inactive)
REMARK    1  A    between atoms: C_1  and  C_2
REMARK    2  A    between atoms: C_2  and  C_3
REMARK    3  A    between atoms: C_4  and  C_5
REMARK    4  A    between atoms: C_8  and  C_9
REMARK    5  A    between atoms: C_9  and  N_10
REMARK    6  A    between atoms: CA_14  and  C_15
REMARK    7  A    between atoms: C_15  and  OXT_17
REMARK    8  A    between atoms: C_21  and  C_22
REMARK    9  A    between atoms: C_22  and  N_23
REMARK                            x       y       z     vdW  Elec       q    Type
REMARK                         _______ _______ _______ _____ _____    ______ ____
ROOT
ATOM      1  C   UNL     1      46.963   8.321  13.127  0.00  0.00    +0.000 A 
ATOM      2  C   UNL     1      45.574   8.403  13.055  0.00  0.00    +0.000 A 
ATOM      3  N   UNL     1      44.778   7.572  12.319  0.00  0.00    +0.000 NA
ATOM      4  C   UNL     1      45.387   6.610  11.579  0.00  0.00    +0.000 A 
ATOM      5  C   UNL     1      46.772   6.516  11.520  0.00  0.00    +0.000 A 
ATOM      6  C   UNL     1      47.585   7.361  12.316  0.00  0.00    +0.000 A 
ENDROOT
BRANCH   1   8
ATOM      7  C   UNL     1      48.458   9.818  14.877  0.00  0.00    +0.000 C 
ATOM      8  C   UNL     1      47.707   9.146  14.048  0.00  0.00    +0.000 C 
BRANCH   7  10
ATOM      9  C   UNL     1      48.564  10.897  17.118  0.00  0.00    +0.000 C 
ATOM     10  C   UNL     1      49.333  10.600  15.843  0.00  0.00    +0.000 C 
ENDBRANCH   7  10
ENDBRANCH   1   8
BRANCH   4  11
ATOM     11  C   UNL     1      44.531   5.508  10.955  0.00  0.00    +0.000 C 
BRANCH  11  12
ATOM     12  N   UNL     1      44.671   5.361   9.513  0.00  0.00    +0.000 N 
ATOM     13  C   UNL     1      45.242   4.205   8.991  0.00  0.00    +0.000 A 
ATOM     14  C   UNL     1      45.165   2.937   9.591  0.00  0.00    +0.000 A 
ATOM     15  N   UNL     1      45.734   1.797   9.095  0.00  0.00    +0.000 NA
ATOM     16  CA  UNL     1      46.361   1.967   7.902  0.00  0.00    +0.000 A 
ATOM     17  C   UNL     1      46.404   3.195   7.259  0.00  0.00    +0.000 A 
ATOM     18  N   UNL     1      45.868   4.326   7.801  0.00  0.00    +0.000 NA
ATOM     19  H   UNL     1      45.028   6.169   9.007  0.00  0.00    +0.000 HD
BRANCH  16  20
ATOM     20  C   UNL     1      47.042   0.784   7.317  0.00  0.00    +0.000 C 
ATOM     21  O   UNL     1      46.819  -0.365   7.639  0.00  0.00    +0.000 OA
BRANCH  20  22
ATOM     22  OXT UNL     1      47.928   1.142   6.352  0.00  0.00    +0.000 OA
ATOM     23  HXT UNL     1      48.218   2.072   6.486  0.00  0.00    +0.000 HD
ENDBRANCH  20  22
ENDBRANCH  16  20
ENDBRANCH  11  12
ENDBRANCH   4  11
BRANCH   6  24
ATOM     24  C   UNL     1      49.081   7.181  12.267  0.00  0.00    +0.000 C 
BRANCH  24  25
ATOM     25  N   UNL     1      49.584   6.531  13.475  0.00  0.00    +0.000 NA
ATOM     26  H   UNL     1      49.054   6.876  14.274  0.00  0.00    +0.000 HD
ATOM     27  H   UNL     1      50.545   6.833  13.629  0.00  0.00    +0.000 HD
ENDBRANCH  24  25
ENDBRANCH   6  24
TORSDOF 8
ENDMDL
MODEL 5
REMARK VINA RESULT:    -5.996      4.845      6.994
REMARK INTER + INTRA:          -9.054
REMARK INTER:                  -8.634
REMARK INTRA:                  -0.420
REMARK UNBOUND:                -0.605
REMARK  Name = 
REMARK  9 active torsions:
REMARK  status: ('A' for Active; 'I' for Inactive)
REMARK    1  A    between atoms: C_1  and  C_2
REMARK    2  A    between atoms: C_2  and  C_3
REMARK    3  A    between atoms: C_4  and  C_5
REMARK    4  A    between atoms: C_8  and  C_9
REMARK    5  A    between atoms: C_9  and  N_10
REMARK    6  A    between atoms: CA_14  and  C_15
REMARK    7  A    between atoms: C_15  and  OXT_17
REMARK    8  A    between atoms: C_21  and  C_22
REMARK    9  A    between atoms: C_22  and  N_23
REMARK                            x       y       z     vdW  Elec       q    Type
REMARK                         _______ _______ _______ _____ _____    ______ ____
ROOT
ATOM      1  C   UNL     1      51.232   2.513  17.515  0.00  0.00    +0.000 A 
ATOM      2  C   UNL     1      50.443   1.676  16.729  0.00  0.00    +0.000 A 
ATOM      3  N   UNL     1      49.206   1.994  16.245  0.00  0.00    +0.000 NA
ATOM      4  C   UNL     1      48.692   3.206  16.578  0.00  0.00    +0.000 A 
ATOM      5  C   UNL     1      49.371   4.065  17.434  0.00  0.00    +0.000 A 
ATOM      6  C   UNL     1      50.669   3.738  17.899  0.00  0.00    +0.000 A 
ENDROOT
BRANCH   1   8
ATOM      7  C   UNL     1      53.780   1.720  18.158  0.00  0.00    +0.000 C 
ATOM      8  C   UNL     1      52.587   2.151  17.854  0.00  0.00    +0.000 C 
BRANCH   7  10
ATOM      9  C   UNL     1      55.084   0.185  19.623  0.00  0.00    +0.000 C 
ATOM     10  C   UNL     1      55.171   1.218  18.514  0.00  0.00    +0.000 C 
ENDBRANCH   7  10
ENDBRANCH   1   8
BRANCH   4  11
ATOM     11  C   UNL     1      47.440   3.700  15.854  0.00  0.00    +0.000 C 
BRANCH  11  12
ATOM     12  N   UNL     1      47.282   3.210  14.492  0.00  0.00    +0.000 N 
ATOM     13  C   UNL     1      46.325   3.781  13.661  0.00  0.00    +0.000 A 
ATOM     14  C   UNL     1      45.903   5.120  13.734  0.00  0.00    +0.000 A 
ATOM     15  N   UNL     1      44.952   5.689  12.934  0.00  0.00    +0.000 NA
ATOM     16  CA  UNL     1      44.460   4.854  11.983  0.00  0.00    +0.000 A 
ATOM     17  C   UNL     1      44.899   3.545  11.850  0.00  0.00    +0.000 A 
ATOM     18  N   UNL     1      45.814   2.990  12.695  0.00  0.00    +0.000 NA
ATOM     19  H   UNL     1      47.269   2.199  14.372  0.00  0.00    +0.000 HD
BRANCH  16  20
ATOM     20  C   UNL     1      43.391   5.385  11.098  0.00  0.00    +0.000 C 
ATOM     21  O   UNL     1      42.499   6.121  11.466  0.00  0.00    +0.000 OA
BRANCH  20  22
ATOM     22  OXT UNL     1      43.550   4.970   9.815  0.00  0.00    +0.000 OA
ATOM     23  HXT UNL     1      42.672   4.836   9.390  0.00  0.00    +0.000 HD
ENDBRANCH  20  22
ENDBRANCH  16  20
ENDBRANCH  11  12
ENDBRANCH   4  11
BRANCH   6  24
ATOM     24  C   UNL     1      51.393   4.729  18.776  0.00  0.00    +0.000 C 
BRANCH  24  25
ATOM     25  N   UNL     1      50.706   6.019  18.809  0.00  0.00    +0.000 NA
ATOM     26  H   UNL     1      51.171   6.617  19.491  0.00  0.00    +0.000 HD
ATOM     27  H   UNL     1      49.763   5.874  19.164  0.00  0.00    +0.000 HD
ENDBRANCH  24  25
ENDBRANCH   6  24
TORSDOF 8
ENDMDL
MODEL 6
REMARK VINA RESULT:    -5.863      5.270      8.214
REMARK INTER + INTRA:          -8.867
REMARK INTER:                  -8.360
REMARK INTRA:                  -0.507
REMARK UNBOUND:                -0.605
REMARK  Name = 
REMARK  9 active torsions:
REMARK  status: ('A' for Active; 'I' for Inactive)
REMARK    1  A    between atoms: C_1  and  C_2
REMARK    2  A    between atoms: C_2  and  C_3
REMARK    3  A    between atoms: C_4  and  C_5
REMARK    4  A    between atoms: C_8  and  C_9
REMARK    5  A    between atoms: C_9  and  N_10
REMARK    6  A    between atoms: CA_14  and  C_15
REMARK    7  A    between atoms: C_15  and  OXT_17
REMARK    8  A    between atoms: C_21  and  C_22
REMARK    9  A    between atoms: C_22  and  N_23
REMARK                            x       y       z     vdW  Elec       q    Type
REMARK                         _______ _______ _______ _____ _____    ______ ____
ROOT
ATOM      1  C   UNL     1      45.018   7.896  11.985  0.00  0.00    +0.000 A 
ATOM      2  C   UNL     1      46.222   8.073  12.664  0.00  0.00    +0.000 A 
ATOM      3  N   UNL     1      46.940   7.074  13.258  0.00  0.00    +0.000 NA
ATOM      4  C   UNL     1      46.428   5.817  13.211  0.00  0.00    +0.000 A 
ATOM      5  C   UNL     1      45.187   5.567  12.636  0.00  0.00    +0.000 A 
ATOM      6  C   UNL     1      44.471   6.605  11.991  0.00  0.00    +0.000 A 
ENDROOT
BRANCH   1   8
ATOM      7  C   UNL     1      43.865   9.907  10.516  0.00  0.00    +0.000 C 
ATOM      8  C   UNL     1      44.410   8.985  11.260  0.00  0.00    +0.000 C 
BRANCH   7  10
ATOM      9  C   UNL     1      43.643  10.795   8.200  0.00  0.00    +0.000 C 
ATOM     10  C   UNL     1      43.230  10.983   9.648  0.00  0.00    +0.000 C 
ENDBRANCH   7  10
ENDBRANCH   1   8
BRANCH   4  11
ATOM     11  C   UNL     1      47.313   4.644  13.630  0.00  0.00    +0.000 C 
BRANCH  11  12
ATOM     12  N   UNL     1      46.819   3.873  14.763  0.00  0.00    +0.000 N 
ATOM     13  C   UNL     1      47.383   4.058  16.020  0.00  0.00    +0.000 A 
ATOM     14  C   UNL     1      47.936   5.266  16.476  0.00  0.00    +0.000 A 
ATOM     15  N   UNL     1      48.507   5.457  17.703  0.00  0.00    +0.000 NA
ATOM     16  CA  UNL     1      48.452   4.366  18.512  0.00  0.00    +0.000 A 
ATOM     17  C   UNL     1      47.861   3.178  18.110  0.00  0.00    +0.000 A 
ATOM     18  N   UNL     1      47.342   3.003  16.861  0.00  0.00    +0.000 NA
ATOM     19  H   UNL     1      46.671   2.878  14.604  0.00  0.00    +0.000 HD
BRANCH  16  20
ATOM     20  C   UNL     1      49.089   4.478  19.849  0.00  0.00    +0.000 C 
ATOM     21  O   UNL     1      50.023   5.209  20.104  0.00  0.00    +0.000 OA
BRANCH  20  22
ATOM     22  OXT UNL     1      48.477   3.683  20.764  0.00  0.00    +0.000 OA
ATOM     23  HXT UNL     1      49.124   3.388  21.444  0.00  0.00    +0.000 HD
ENDBRANCH  20  22
ENDBRANCH  16  20
ENDBRANCH  11  12
ENDBRANCH   4  11
BRANCH   6  24
ATOM     24  C   UNL     1      43.159   6.273  11.326  0.00  0.00    +0.000 C 
BRANCH  24  25
ATOM     25  N   UNL     1      43.341   5.352  10.206  0.00  0.00    +0.000 NA
ATOM     26  H   UNL     1      42.726   4.551  10.341  0.00  0.00    +0.000 HD
ATOM     27  H   UNL     1      44.290   4.982  10.243  0.00  0.00    +0.000 HD
ENDBRANCH  24  25
ENDBRANCH   6  24
TORSDOF 8
ENDMDL
MODEL 7
REMARK VINA RESULT:    -5.782      4.135      6.069
REMARK INTER + INTRA:          -8.753
REMARK INTER:                  -8.198
REMARK INTRA:                  -0.556
REMARK UNBOUND:                -0.605
REMARK  Name = 
REMARK  9 active torsions:
REMARK  status: ('A' for Active; 'I' for Inactive)
REMARK    1  A    between atoms: C_1  and  C_2
REMARK    2  A    between atoms: C_2  and  C_3
REMARK    3  A    between atoms: C_4  and  C_5
REMARK    4  A    between atoms: C_8  and  C_9
REMARK    5  A    between atoms: C_9  and  N_10
REMARK    6  A    between atoms: CA_14  and  C_15
REMARK    7  A    between atoms: C_15  and  OXT_17
REMARK    8  A    between atoms: C_21  and  C_22
REMARK    9  A    between atoms: C_22  and  N_23
REMARK                            x       y       z     vdW  Elec       q    Type
REMARK                         _______ _______ _______ _____ _____    ______ ____
ROOT
ATOM      1  C   UNL     1      48.255   7.402  18.318  0.00  0.00    +0.000 A 
ATOM      2  C   UNL     1      48.588   8.390  17.394  0.00  0.00    +0.000 A 
ATOM      3  N   UNL     1      48.815   8.175  16.064  0.00  0.00    +0.000 NA
ATOM      4  C   UNL     1      48.738   6.897  15.612  0.00  0.00    +0.000 A 
ATOM      5  C   UNL     1      48.503   5.838  16.482  0.00  0.00    +0.000 A 
ATOM      6  C   UNL     1      48.234   6.080  17.852  0.00  0.00    +0.000 A 
ENDROOT
BRANCH   1   8
ATOM      7  C   UNL     1      47.533   8.157  20.857  0.00  0.00    +0.000 C 
ATOM      8  C   UNL     1      47.887   7.746  19.670  0.00  0.00    +0.000 C 
BRANCH   7  10
ATOM      9  C   UNL     1      46.201   9.836  22.123  0.00  0.00    +0.000 C 
ATOM     10  C   UNL     1      47.122   8.635  22.240  0.00  0.00    +0.000 C 
ENDBRANCH   7  10
ENDBRANCH   1   8
BRANCH   4  11
ATOM     11  C   UNL     1      48.727   6.647  14.104  0.00  0.00    +0.000 C 
BRANCH  11  12
ATOM     12  N   UNL     1      47.490   7.013  13.428  0.00  0.00    +0.000 N 
ATOM     13  C   UNL     1      46.610   6.018  13.018  0.00  0.00    +0.000 A 
ATOM     14  C   UNL     1      46.448   4.781  13.664  0.00  0.00    +0.000 A 
ATOM     15  N   UNL     1      45.597   3.790  13.263  0.00  0.00    +0.000 NA
ATOM     16  CA  UNL     1      44.843   4.114  12.181  0.00  0.00    +0.000 A 
ATOM     17  C   UNL     1      44.941   5.349  11.557  0.00  0.00    +0.000 A 
ATOM     18  N   UNL     1      45.833   6.302  11.951  0.00  0.00    +0.000 NA
ATOM     19  H   UNL     1      47.564   7.718  12.697  0.00  0.00    +0.000 HD
BRANCH  16  20
ATOM     20  C   UNL     1      43.922   3.074  11.655  0.00  0.00    +0.000 C 
ATOM     21  O   UNL     1      43.545   3.010  10.504  0.00  0.00    +0.000 OA
BRANCH  20  22
ATOM     22  OXT UNL     1      43.574   2.181  12.617  0.00  0.00    +0.000 OA
ATOM     23  HXT UNL     1      44.070   2.364  13.447  0.00  0.00    +0.000 HD
ENDBRANCH  20  22
ENDBRANCH  16  20
ENDBRANCH  11  12
ENDBRANCH   4  11
BRANCH   6  24
ATOM     24  C   UNL     1      47.923   4.905  18.745  0.00  0.00    +0.000 C 
BRANCH  24  25
ATOM     25  N   UNL     1      46.950   4.005  18.129  0.00  0.00    +0.000 NA
ATOM     26  H   UNL     1      47.222   3.848  17.159  0.00  0.00    +0.000 HD
ATOM     27  H   UNL     1      46.050   4.479  18.091  0.00  0.00    +0.000 HD
ENDBRANCH  24  25
ENDBRANCH   6  24
TORSDOF 8
ENDMDL
MODEL 8
REMARK VINA RESULT:    -5.677      5.264      9.121
REMARK INTER + INTRA:          -8.605
REMARK INTER:                  -8.030
REMARK INTRA:                  -0.575
REMARK UNBOUND:                -0.605
REMARK  Name = 
REMARK  9 active torsions:
REMARK  status: ('A' for Active; 'I' for Inactive)
REMARK    1  A    between atoms: C_1  and  C_2
REMARK    2  A    between atoms: C_2  and  C_3
REMARK    3  A    between atoms: C_4  and  C_5
REMARK    4  A    between atoms: C_8  and  C_9
REMARK    5  A    between atoms: C_9  and  N_10
REMARK    6  A    between atoms: CA_14  and  C_15
REMARK    7  A    between atoms: C_15  and  OXT_17
REMARK    8  A    between atoms: C_21  and  C_22
REMARK    9  A    between atoms: C_22  and  N_23
REMARK                            x       y       z     vdW  Elec       q    Type
REMARK                         _______ _______ _______ _____ _____    ______ ____
ROOT
ATOM      1  C   UNL     1      46.319   5.987  12.111  0.00  0.00    +0.000 A 
ATOM      2  C   UNL     1      46.594   7.353  12.127  0.00  0.00    +0.000 A 
ATOM      3  N   UNL     1      47.354   7.988  13.067  0.00  0.00    +0.000 NA
ATOM      4  C   UNL     1      47.858   7.238  14.081  0.00  0.00    +0.000 A 
ATOM      5  C   UNL     1      47.557   5.885  14.194  0.00  0.00    +0.000 A 
ATOM      6  C   UNL     1      46.797   5.232  13.192  0.00  0.00    +0.000 A 
ENDROOT
BRANCH   1   8
ATOM      7  C   UNL     1      45.104   4.782   9.965  0.00  0.00    +0.000 C 
ATOM      8  C   UNL     1      45.633   5.382  10.996  0.00  0.00    +0.000 C 
BRANCH   7  10
ATOM      9  C   UNL     1      44.686   2.583   8.875  0.00  0.00    +0.000 C 
ATOM     10  C   UNL     1      44.488   4.083   8.763  0.00  0.00    +0.000 C 
ENDBRANCH   7  10
ENDBRANCH   1   8
BRANCH   4  11
ATOM     11  C   UNL     1      48.916   7.852  14.997  0.00  0.00    +0.000 C 
BRANCH  11  12
ATOM     12  N   UNL     1      48.447   8.202  16.331  0.00  0.00    +0.000 N 
ATOM     13  C   UNL     1      48.672   7.330  17.391  0.00  0.00    +0.000 A 
ATOM     14  C   UNL     1      49.772   6.461  17.489  0.00  0.00    +0.000 A 
ATOM     15  N   UNL     1      49.996   5.590  18.517  0.00  0.00    +0.000 NA
ATOM     16  CA  UNL     1      49.073   5.661  19.512  0.00  0.00    +0.000 A 
ATOM     17  C   UNL     1      48.009   6.549  19.469  0.00  0.00    +0.000 A 
ATOM     18  N   UNL     1      47.784   7.374  18.406  0.00  0.00    +0.000 NA
ATOM     19  H   UNL     1      47.501   8.573  16.397  0.00  0.00    +0.000 HD
BRANCH  16  20
ATOM     20  C   UNL     1      49.222   4.715  20.647  0.00  0.00    +0.000 C 
ATOM     21  O   UNL     1      50.004   4.862  21.564  0.00  0.00    +0.000 OA
BRANCH  20  22
ATOM     22  OXT UNL     1      48.354   3.675  20.552  0.00  0.00    +0.000 OA
ATOM     23  HXT UNL     1      47.429   3.996  20.654  0.00  0.00    +0.000 HD
ENDBRANCH  20  22
ENDBRANCH  16  20
ENDBRANCH  11  12
ENDBRANCH   4  11
BRANCH   6  24
ATOM     24  C   UNL     1      46.548   3.750  13.325  0.00  0.00    +0.000 C 
BRANCH  24  25
ATOM     25  N   UNL     1      47.382   3.158  14.370  0.00  0.00    +0.000 NA
ATOM     26  H   UNL     1      46.823   3.065  15.217  0.00  0.00    +0.000 HD
ATOM     27  H   UNL     1      48.127   3.813  14.600  0.00  0.00    +0.000 HD
ENDBRANCH  24  25
ENDBRANCH   6  24
TORSDOF 8
ENDMDL
MODEL 9
REMARK VINA RESULT:    -5.432      4.497      8.054
REMARK INTER + INTRA:          -8.260
REMARK INTER:                  -7.866
REMARK INTRA:                  -0.394
REMARK UNBOUND:                -0.605
REMARK  Name = 
REMARK  9 active torsions:
REMARK  status: ('A' for Active; 'I' for Inactive)
REMARK    1  A    between atoms: C_1  and  C_2
REMARK    2  A    between atoms: C_2  and  C_3
REMARK    3  A    between atoms: C_4  and  C_5
REMARK    4  A    between atoms: C_8  and  C_9
REMARK    5  A    between atoms: C_9  and  N_10
REMARK    6  A    between atoms: CA_14  and  C_15
REMARK    7  A    between atoms: C_15  and  OXT_17
REMARK    8  A    between atoms: C_21  and  C_22
REMARK    9  A    between atoms: C_22  and  N_23
REMARK                            x       y       z     vdW  Elec       q    Type
REMARK                         _______ _______ _______ _____ _____    ______ ____
ROOT
ATOM      1  C   UNL     1      46.552   6.597  12.038  0.00  0.00    +0.000 A 
ATOM      2  C   UNL     1      47.735   6.145  12.618  0.00  0.00    +0.000 A 
ATOM      3  N   UNL     1      48.426   6.799  13.598  0.00  0.00    +0.000 NA
ATOM      4  C   UNL     1      47.940   7.995  14.020  0.00  0.00    +0.000 A 
ATOM      5  C   UNL     1      46.817   8.564  13.431  0.00  0.00    +0.000 A 
ATOM      6  C   UNL     1      46.089   7.858  12.441  0.00  0.00    +0.000 A 
ENDROOT
BRANCH   1   8
ATOM      7  C   UNL     1      45.128   5.104  10.227  0.00  0.00    +0.000 C 
ATOM      8  C   UNL     1      45.813   5.766  11.118  0.00  0.00    +0.000 C 
BRANCH   7  10
ATOM      9  C   UNL     1      45.253   3.797   8.112  0.00  0.00    +0.000 C 
ATOM     10  C   UNL     1      44.328   4.332   9.190  0.00  0.00    +0.000 C 
ENDBRANCH   7  10
ENDBRANCH   1   8
BRANCH   4  11
ATOM     11  C   UNL     1      48.529   8.627  15.280  0.00  0.00    +0.000 C 
BRANCH  11  12
ATOM     12  N   UNL     1      48.247   7.914  16.518  0.00  0.00    +0.000 N 
ATOM     13  C   UNL     1      48.996   6.791  16.852  0.00  0.00    +0.000 A 
ATOM     14  C   UNL     1      50.337   6.590  16.486  0.00  0.00    +0.000 A 
ATOM     15  N   UNL     1      51.079   5.484  16.795  0.00  0.00    +0.000 NA
ATOM     16  CA  UNL     1      50.423   4.576  17.562  0.00  0.00    +0.000 A 
ATOM     17  C   UNL     1      49.117   4.774  17.986  0.00  0.00    +0.000 A 
ATOM     18  N   UNL     1      48.386   5.866  17.622  0.00  0.00    +0.000 NA
ATOM     19  H   UNL     1      47.266   7.737  16.726  0.00  0.00    +0.000 HD
BRANCH  16  20
ATOM     20  C   UNL     1      51.146   3.325  17.906  0.00  0.00    +0.000 C 
ATOM     21  O   UNL     1      51.101   2.304  17.252  0.00  0.00    +0.000 OA
BRANCH  20  22
ATOM     22  OXT UNL     1      51.893   3.472  19.031  0.00  0.00    +0.000 OA
ATOM     23  HXT UNL     1      52.373   2.635  19.231  0.00  0.00    +0.000 HD
ENDBRANCH  20  22
ENDBRANCH  16  20
ENDBRANCH  11  12
ENDBRANCH   4  11
BRANCH   6  24
ATOM     24  C   UNL     1      44.842   8.488  11.874  0.00  0.00    +0.000 C 
BRANCH  24  25
ATOM     25  N   UNL     1      44.507   9.732  12.565  0.00  0.00    +0.000 NA
ATOM     26  H   UNL     1      44.729  10.514  11.950  0.00  0.00    +0.000 HD
ATOM     27  H   UNL     1      45.123   9.830  13.370  0.00  0.00    +0.000 HD
ENDBRANCH  24  25
ENDBRANCH   6  24
TORSDOF 8
ENDMDL
