MODEL 1
REMARK VINA RESULT:    -8.469      0.000      0.000
REMARK INTER + INTRA:         -11.784
REMARK INTER:                 -10.944
REMARK INTRA:                  -0.840
REMARK UNBOUND:                -0.840
REMARK  Name = 
REMARK  6 active torsions:
REMARK  status: ('A' for Active; 'I' for Inactive)
REMARK    1  A    between atoms: C_1  and  C_2
REMARK    2  A    between atoms: C_4  and  C_5
REMARK    3  A    between atoms: C_5  and  O_6
REMARK    4  A    between atoms: O_6  and  C_7
REMARK    5  A    between atoms: C_10  and  C_11
REMARK    6  A    between atoms: C_17  and  C_18
REMARK                            x       y       z     vdW  Elec       q    Type
REMARK                         _______ _______ _______ _____ _____    ______ ____
ROOT
ATOM      1  C   UNL     1      47.257   3.756  14.389  0.00  0.00    +0.000 C 
ATOM      2  C   UNL     1      46.440   4.589  13.447  0.00  0.00    +0.000 A 
ATOM      3  C   UNL     1      45.362   4.053  12.746  0.00  0.00    +0.000 A 
ATOM      4  C   UNL     1      44.635   4.874  11.887  0.00  0.00    +0.000 A 
ATOM      5  N   UNL     1      44.937   6.188  11.707  0.00  0.00    +0.000 NA
ATOM      6  C   UNL     1      45.982   6.714  12.395  0.00  0.00    +0.000 A 
ATOM      7  C   UNL     1      46.748   5.937  13.264  0.00  0.00    +0.000 A 
ENDROOT
BRANCH   6   8
ATOM      8  C   UNL     1      46.252   8.150  12.186  0.00  0.00    +0.000 A 
ATOM      9  C   UNL     1      47.566   8.651  12.174  0.00  0.00    +0.000 A 
ATOM     10  C   UNL     1      47.827  10.008  11.949  0.00  0.00    +0.000 A 
ATOM     11  C   UNL     1      46.774  10.895  11.736  0.00  0.00    +0.000 A 
ATOM     12  C   UNL     1      45.468  10.421  11.754  0.00  0.00    +0.000 A 
ATOM     13 CL   UNL     1      44.156  11.505  11.492  0.00  0.00    +0.000 Cl
ATOM     14  C   UNL     1      45.206   9.070  11.977  0.00  0.00    +0.000 A 
ENDBRANCH   6   8
BRANCH   4  15
ATOM     15  C   UNL     1      43.470   4.304  11.101  0.00  0.00    +0.000 C 
BRANCH  15  16
ATOM     16  O   UNL     1      43.559   4.677   9.714  0.00  0.00    +0.000 OA
BRANCH  16  17
ATOM     17  C   UNL     1      44.542   3.971   9.048  0.00  0.00    +0.000 A 
ATOM     18  C   UNL     1      44.591   2.584   9.183  0.00  0.00    +0.000 A 
ATOM     19  N   UNL     1      45.520   1.803   8.556  0.00  0.00    +0.000 NA
ATOM     20  C   UNL     1      46.395   2.491   7.766  0.00  0.00    +0.000 A 
ATOM     21  C   UNL     1      46.346   3.871   7.635  0.00  0.00    +0.000 A 
ATOM     22  N   UNL     1      45.429   4.641   8.280  0.00  0.00    +0.000 NA
BRANCH  20  23
ATOM     23  C   UNL     1      47.428   1.726   7.007  0.00  0.00    +0.000 C 
ATOM     24  N   UNL     1      48.450   2.445   6.442  0.00  0.00    +0.000 N 
ATOM     25  O   UNL     1      47.374   0.508   6.893  0.00  0.00    +0.000 OA
ATOM     26  H   UNL     1      48.507   3.450   6.548  0.00  0.00    +0.000 HD
ATOM     27  H   UNL     1      49.171   1.951   5.941  0.00  0.00    +0.000 HD
ENDBRANCH  20  23
ENDBRANCH  16  17
ENDBRANCH  15  16
ENDBRANCH   4  15
TORSDOF 5
ENDMDL
MODEL 2
REMARK VINA RESULT:    -8.118      2.752      4.802
REMARK INTER + INTRA:         -11.330
REMARK INTER:                 -10.838
REMARK INTRA:                  -0.493
REMARK UNBOUND:                -0.840
REMARK  Name = 
REMARK  6 active torsions:
REMARK  status: ('A' for Active; 'I' for Inactive)
REMARK    1  A    between atoms: C_1  and  C_2
REMARK    2  A    between atoms: C_4  and  C_5
REMARK    3  A    between atoms: C_5  and  O_6
REMARK    4  A    between atoms: O_6  and  C_7
REMARK    5  A    between atoms: C_10  and  C_11
REMARK    6  A    between atoms: C_17  and  C_18
REMARK                            x       y       z     vdW  Elec       q    Type
REMARK                         _______ _______ _______ _____ _____    ______ ____
ROOT
ATOM      1  C   UNL     1      46.855   7.785  12.131  0.00  0.00    +0.000 C 
ATOM      2  C   UNL     1      46.507   6.425  12.654  0.00  0.00    +0.000 A 
ATOM      3  C   UNL     1      45.625   5.586  11.977  0.00  0.00    +0.000 A 
ATOM      4  C   UNL     1      45.340   4.329  12.507  0.00  0.00    +0.000 A 
ATOM      5  N   UNL     1      45.898   3.885  13.666  0.00  0.00    +0.000 NA
ATOM      6  C   UNL     1      46.764   4.698  14.323  0.00  0.00    +0.000 A 
ATOM      7  C   UNL     1      47.080   5.968  13.842  0.00  0.00    +0.000 A 
ENDROOT
BRANCH   6   8
ATOM      8  C   UNL     1      47.362   4.159  15.560  0.00  0.00    +0.000 A 
ATOM      9  C   UNL     1      47.975   2.893  15.583  0.00  0.00    +0.000 A 
ATOM     10  C   UNL     1      48.566   2.390  16.748  0.00  0.00    +0.000 A 
ATOM     11  C   UNL     1      48.551   3.144  17.919  0.00  0.00    +0.000 A 
ATOM     12  C   UNL     1      47.941   4.392  17.920  0.00  0.00    +0.000 A 
ATOM     13 CL   UNL     1      47.915   5.336  19.360  0.00  0.00    +0.000 Cl
ATOM     14  C   UNL     1      47.353   4.896  16.760  0.00  0.00    +0.000 A 
ENDBRANCH   6   8
BRANCH   4  15
ATOM     15  C   UNL     1      44.368   3.409  11.795  0.00  0.00    +0.000 C 
BRANCH  15  16
ATOM     16  O   UNL     1      43.999   3.949  10.514  0.00  0.00    +0.000 OA
BRANCH  16  17
ATOM     17  C   UNL     1      44.828   3.504   9.503  0.00  0.00    +0.000 A 
ATOM     18  C   UNL     1      45.399   4.434   8.635  0.00  0.00    +0.000 A 
ATOM     19  N   UNL     1      46.237   4.089   7.613  0.00  0.00    +0.000 NA
ATOM     20  C   UNL     1      46.489   2.751   7.517  0.00  0.00    +0.000 A 
ATOM     21  C   UNL     1      45.918   1.827   8.380  0.00  0.00    +0.000 A 
ATOM     22  N   UNL     1      45.069   2.181   9.382  0.00  0.00    +0.000 NA
BRANCH  20  23
ATOM     23  C   UNL     1      47.423   2.272   6.456  0.00  0.00    +0.000 C 
ATOM     24  N   UNL     1      47.461   2.985   5.286  0.00  0.00    +0.000 N 
ATOM     25  O   UNL     1      48.133   1.287   6.619  0.00  0.00    +0.000 OA
ATOM     26  H   UNL     1      46.888   3.810   5.154  0.00  0.00    +0.000 HD
ATOM     27  H   UNL     1      48.097   2.695   4.561  0.00  0.00    +0.000 HD
ENDBRANCH  20  23
ENDBRANCH  16  17
ENDBRANCH  15  16
ENDBRANCH   4  15
TORSDOF 5
ENDMDL
MODEL 3
REMARK VINA RESULT:    -8.059      1.700      2.185
REMARK INTER + INTRA:         -11.254
REMARK INTER:                 -10.781
REMARK INTRA:                  -0.474
REMARK UNBOUND:                -0.840
REMARK  Name = 
REMARK  6 active torsions:
REMARK  status: ('A' for Active; 'I' for Inactive)
REMARK    1  A    between atoms: C_1  and  C_2
REMARK    2  A    between atoms: C_4  and  C_5
REMARK    3  A    between atoms: C_5  and  O_6
REMARK    4  A    between atoms: O_6  and  C_7
REMARK    5  A    between atoms: C_10  and  C_11
REMARK    6  A    between atoms: C_17  and  C_18
REMARK                            x       y       z     vdW  Elec       q    Type
REMARK                         _______ _______ _______ _____ _____    ______ ____
ROOT
ATOM      1  C   UNL     1      46.978   3.572  14.398  0.00  0.00    +0.000 C 
ATOM      2  C   UNL     1      46.469   4.540  13.374  0.00  0.00    +0.000 A 
ATOM      3  C   UNL     1      45.342   4.262  12.604  0.00  0.00    +0.000 A 
ATOM      4  C   UNL     1      44.910   5.200  11.668  0.00  0.00    +0.000 A 
ATOM      5  N   UNL     1      45.549   6.387  11.480  0.00  0.00    +0.000 NA
ATOM      6  C   UNL     1      46.642   6.662  12.235  0.00  0.00    +0.000 A 
ATOM      7  C   UNL     1      47.122   5.758  13.181  0.00  0.00    +0.000 A 
ENDROOT
BRANCH   6   8
ATOM      8  C   UNL     1      47.283   7.973  12.011  0.00  0.00    +0.000 A 
ATOM      9  C   UNL     1      46.544   9.168  12.086  0.00  0.00    +0.000 A 
ATOM     10  C   UNL     1      47.153  10.415  11.899  0.00  0.00    +0.000 A 
ATOM     11  C   UNL     1      48.517  10.491  11.629  0.00  0.00    +0.000 A 
ATOM     12  C   UNL     1      49.263   9.322  11.540  0.00  0.00    +0.000 A 
ATOM     13 CL   UNL     1      50.950   9.400  11.207  0.00  0.00    +0.000 Cl
ATOM     14  C   UNL     1      48.658   8.079  11.727  0.00  0.00    +0.000 A 
ENDBRANCH   6   8
BRANCH   4  15
ATOM     15  C   UNL     1      43.696   4.908  10.807  0.00  0.00    +0.000 C 
BRANCH  15  16
ATOM     16  O   UNL     1      43.649   3.517  10.446  0.00  0.00    +0.000 OA
BRANCH  16  17
ATOM     17  C   UNL     1      44.555   3.206   9.451  0.00  0.00    +0.000 A 
ATOM     18  C   UNL     1      44.986   4.212   8.587  0.00  0.00    +0.000 A 
ATOM     19  N   UNL     1      45.885   4.002   7.581  0.00  0.00    +0.000 NA
ATOM     20  C   UNL     1      46.347   2.721   7.496  0.00  0.00    +0.000 A 
ATOM     21  C   UNL     1      45.916   1.720   8.355  0.00  0.00    +0.000 A 
ATOM     22  N   UNL     1      45.005   1.937   9.341  0.00  0.00    +0.000 NA
BRANCH  20  23
ATOM     23  C   UNL     1      47.363   2.393   6.453  0.00  0.00    +0.000 C 
ATOM     24  N   UNL     1      47.260   3.045   5.251  0.00  0.00    +0.000 N 
ATOM     25  O   UNL     1      48.257   1.581   6.656  0.00  0.00    +0.000 OA
ATOM     26  H   UNL     1      46.533   3.730   5.086  0.00  0.00    +0.000 HD
ATOM     27  H   UNL     1      47.945   2.858   4.537  0.00  0.00    +0.000 HD
ENDBRANCH  20  23
ENDBRANCH  16  17
ENDBRANCH  15  16
ENDBRANCH   4  15
TORSDOF 5
ENDMDL
MODEL 4
REMARK VINA RESULT:    -7.374      2.474      3.567
REMARK INTER + INTRA:         -10.369
REMARK INTER:                  -9.676
REMARK INTRA:                  -0.692
REMARK UNBOUND:                -0.840
REMARK  Name = 
REMARK  6 active torsions:
REMARK  status: ('A' for Active; 'I' for Inactive)
REMARK    1  A    between atoms: C_1  and  C_2
REMARK    2  A    between atoms: C_4  and  C_5
REMARK    3  A    between atoms: C_5  and  O_6
REMARK    4  A    between atoms: O_6  and  C_7
REMARK    5  A    between atoms: C_10  and  C_11
REMARK    6  A    between atoms: C_17  and  C_18
REMARK                            x       y       z     vdW  Elec       q    Type
REMARK                         _______ _______ _______ _____ _____    ______ ____
ROOT
ATOM      1  C   UNL     1      43.910   9.400  11.020  0.00  0.00    +0.000 C 
ATOM      2  C   UNL     1      44.752   8.241  11.461  0.00  0.00    +0.000 A 
ATOM      3  C   UNL     1      44.310   6.926  11.332  0.00  0.00    +0.000 A 
ATOM      4  C   UNL     1      45.137   5.887  11.755  0.00  0.00    +0.000 A 
ATOM      5  N   UNL     1      46.368   6.109  12.290  0.00  0.00    +0.000 NA
ATOM      6  C   UNL     1      46.803   7.389  12.409  0.00  0.00    +0.000 A 
ATOM      7  C   UNL     1      46.016   8.467  12.008  0.00  0.00    +0.000 A 
ENDROOT
BRANCH   6   8
ATOM      8  C   UNL     1      48.156   7.574  12.970  0.00  0.00    +0.000 A 
ATOM      9  C   UNL     1      49.131   8.327  12.290  0.00  0.00    +0.000 A 
ATOM     10  C   UNL     1      50.407   8.526  12.831  0.00  0.00    +0.000 A 
ATOM     11  C   UNL     1      50.735   7.970  14.066  0.00  0.00    +0.000 A 
ATOM     12  C   UNL     1      49.789   7.215  14.749  0.00  0.00    +0.000 A 
ATOM     13 CL   UNL     1      50.181   6.523  16.276  0.00  0.00    +0.000 Cl
ATOM     14  C   UNL     1      48.518   7.016  14.211  0.00  0.00    +0.000 A 
ENDBRANCH   6   8
BRANCH   4  15
ATOM     15  C   UNL     1      44.666   4.451  11.640  0.00  0.00    +0.000 C 
BRANCH  15  16
ATOM     16  O   UNL     1      44.019   4.225  10.375  0.00  0.00    +0.000 OA
BRANCH  16  17
ATOM     17  C   UNL     1      44.886   3.710   9.431  0.00  0.00    +0.000 A 
ATOM     18  C   UNL     1      45.540   4.584   8.564  0.00  0.00    +0.000 A 
ATOM     19  N   UNL     1      46.421   4.168   7.605  0.00  0.00    +0.000 NA
ATOM     20  C   UNL     1      46.625   2.819   7.574  0.00  0.00    +0.000 A 
ATOM     21  C   UNL     1      45.971   1.951   8.436  0.00  0.00    +0.000 A 
ATOM     22  N   UNL     1      45.081   2.375   9.374  0.00  0.00    +0.000 NA
BRANCH  20  23
ATOM     23  C   UNL     1      47.598   2.265   6.587  0.00  0.00    +0.000 C 
ATOM     24  N   UNL     1      47.722   2.923   5.391  0.00  0.00    +0.000 N 
ATOM     25  O   UNL     1      48.266   1.267   6.832  0.00  0.00    +0.000 OA
ATOM     26  H   UNL     1      47.184   3.757   5.192  0.00  0.00    +0.000 HD
ATOM     27  H   UNL     1      48.386   2.581   4.715  0.00  0.00    +0.000 HD
ENDBRANCH  20  23
ENDBRANCH  16  17
ENDBRANCH  15  16
ENDBRANCH   4  15
TORSDOF 5
ENDMDL
MODEL 5
REMARK VINA RESULT:    -7.374      2.271      3.405
REMARK INTER + INTRA:         -10.368
REMARK INTER:                  -9.680
REMARK INTRA:                  -0.689
REMARK UNBOUND:                -0.840
REMARK  Name = 
REMARK  6 active torsions:
REMARK  status: ('A' for Active; 'I' for Inactive)
REMARK    1  A    between atoms: C_1  and  C_2
REMARK    2  A    between atoms: C_4  and  C_5
REMARK    3  A    between atoms: C_5  and  O_6
REMARK    4  A    between atoms: O_6  and  C_7
REMARK    5  A    between atoms: C_10  and  C_11
REMARK    6  A    between atoms: C_17  and  C_18
REMARK                            x       y       z     vdW  Elec       q    Type
REMARK                         _______ _______ _______ _____ _____    ______ ____
ROOT
ATOM      1  C   UNL     1      43.488   9.201  10.992  0.00  0.00    +0.000 C 
ATOM      2  C   UNL     1      44.402   8.069  11.348  0.00  0.00    +0.000 A 
ATOM      3  C   UNL     1      43.999   6.740  11.231  0.00  0.00    +0.000 A 
ATOM      4  C   UNL     1      44.892   5.726  11.572  0.00  0.00    +0.000 A 
ATOM      5  N   UNL     1      46.152   5.986  12.016  0.00  0.00    +0.000 NA
ATOM      6  C   UNL     1      46.549   7.279  12.124  0.00  0.00    +0.000 A 
ATOM      7  C   UNL     1      45.695   8.333  11.802  0.00  0.00    +0.000 A 
ENDROOT
BRANCH   6   8
ATOM      8  C   UNL     1      47.933   7.506  12.584  0.00  0.00    +0.000 A 
ATOM      9  C   UNL     1      48.263   7.463  13.951  0.00  0.00    +0.000 A 
ATOM     10  C   UNL     1      49.580   7.651  14.389  0.00  0.00    +0.000 A 
ATOM     11  C   UNL     1      50.594   7.893  13.465  0.00  0.00    +0.000 A 
ATOM     12  C   UNL     1      50.287   7.950  12.112  0.00  0.00    +0.000 A 
ATOM     13 CL   UNL     1      51.530   8.246  10.959  0.00  0.00    +0.000 Cl
ATOM     14  C   UNL     1      48.976   7.760  11.673  0.00  0.00    +0.000 A 
ENDBRANCH   6   8
BRANCH   4  15
ATOM     15  C   UNL     1      44.466   4.275  11.469  0.00  0.00    +0.000 C 
BRANCH  15  16
ATOM     16  O   UNL     1      43.865   4.009  10.190  0.00  0.00    +0.000 OA
BRANCH  16  17
ATOM     17  C   UNL     1      44.785   3.547   9.269  0.00  0.00    +0.000 A 
ATOM     18  C   UNL     1      45.422   4.460   8.430  0.00  0.00    +0.000 A 
ATOM     19  N   UNL     1      46.351   4.098   7.496  0.00  0.00    +0.000 NA
ATOM     20  C   UNL     1      46.622   2.760   7.460  0.00  0.00    +0.000 A 
ATOM     21  C   UNL     1      45.985   1.853   8.294  0.00  0.00    +0.000 A 
ATOM     22  N   UNL     1      45.047   2.224   9.206  0.00  0.00    +0.000 NA
BRANCH  20  23
ATOM     23  C   UNL     1      47.651   2.264   6.499  0.00  0.00    +0.000 C 
ATOM     24  N   UNL     1      47.813   2.968   5.334  0.00  0.00    +0.000 N 
ATOM     25  O   UNL     1      48.331   1.273   6.738  0.00  0.00    +0.000 OA
ATOM     26  H   UNL     1      47.265   3.798   5.141  0.00  0.00    +0.000 HD
ATOM     27  H   UNL     1      48.515   2.666   4.678  0.00  0.00    +0.000 HD
ENDBRANCH  20  23
ENDBRANCH  16  17
ENDBRANCH  15  16
ENDBRANCH   4  15
TORSDOF 5
ENDMDL
MODEL 6
REMARK VINA RESULT:    -6.894      5.320      7.811
REMARK INTER + INTRA:          -9.749
REMARK INTER:                  -9.034
REMARK INTRA:                  -0.715
REMARK UNBOUND:                -0.840
REMARK  Name = 
REMARK  6 active torsions:
REMARK  status: ('A' for Active; 'I' for Inactive)
REMARK    1  A    between atoms: C_1  and  C_2
REMARK    2  A    between atoms: C_4  and  C_5
REMARK    3  A    between atoms: C_5  and  O_6
REMARK    4  A    between atoms: O_6  and  C_7
REMARK    5  A    between atoms: C_10  and  C_11
REMARK    6  A    between atoms: C_17  and  C_18
REMARK                            x       y       z     vdW  Elec       q    Type
REMARK                         _______ _______ _______ _____ _____    ______ ____
ROOT
ATOM      1  C   UNL     1      49.426   8.362  11.545  0.00  0.00    +0.000 C 
ATOM      2  C   UNL     1      48.600   7.482  12.434  0.00  0.00    +0.000 A 
ATOM      3  C   UNL     1      48.954   7.247  13.761  0.00  0.00    +0.000 A 
ATOM      4  C   UNL     1      48.147   6.424  14.544  0.00  0.00    +0.000 A 
ATOM      5  N   UNL     1      47.018   5.839  14.060  0.00  0.00    +0.000 NA
ATOM      6  C   UNL     1      46.668   6.073  12.770  0.00  0.00    +0.000 A 
ATOM      7  C   UNL     1      47.441   6.883  11.939  0.00  0.00    +0.000 A 
ENDROOT
BRANCH   6   8
ATOM      8  C   UNL     1      45.420   5.437  12.302  0.00  0.00    +0.000 A 
ATOM      9  C   UNL     1      44.191   5.686  12.939  0.00  0.00    +0.000 A 
ATOM     10  C   UNL     1      43.002   5.105  12.482  0.00  0.00    +0.000 A 
ATOM     11  C   UNL     1      43.020   4.258  11.376  0.00  0.00    +0.000 A 
ATOM     12  C   UNL     1      44.225   3.991  10.739  0.00  0.00    +0.000 A 
ATOM     13 CL   UNL     1      44.263   2.946   9.371  0.00  0.00    +0.000 Cl
ATOM     14  C   UNL     1      45.411   4.570  11.193  0.00  0.00    +0.000 A 
ENDBRANCH   6   8
BRANCH   4  15
ATOM     15  C   UNL     1      48.525   6.141  15.985  0.00  0.00    +0.000 C 
BRANCH  15  16
ATOM     16  O   UNL     1      48.013   4.864  16.406  0.00  0.00    +0.000 OA
BRANCH  16  17
ATOM     17  C   UNL     1      49.022   3.993  16.769  0.00  0.00    +0.000 A 
ATOM     18  C   UNL     1      48.774   2.621  16.744  0.00  0.00    +0.000 A 
ATOM     19  N   UNL     1      49.711   1.684  17.077  0.00  0.00    +0.000 NA
ATOM     20  C   UNL     1      50.926   2.201  17.423  0.00  0.00    +0.000 A 
ATOM     21  C   UNL     1      51.170   3.566  17.450  0.00  0.00    +0.000 A 
ATOM     22  N   UNL     1      50.223   4.490  17.135  0.00  0.00    +0.000 NA
BRANCH  20  23
ATOM     23  C   UNL     1      52.032   1.260  17.769  0.00  0.00    +0.000 C 
ATOM     24  N   UNL     1      51.679  -0.006  18.159  0.00  0.00    +0.000 N 
ATOM     25  O   UNL     1      53.209   1.595  17.703  0.00  0.00    +0.000 OA
ATOM     26  H   UNL     1      50.709  -0.293  18.198  0.00  0.00    +0.000 HD
ATOM     27  H   UNL     1      52.407  -0.668  18.378  0.00  0.00    +0.000 HD
ENDBRANCH  20  23
ENDBRANCH  16  17
ENDBRANCH  15  16
ENDBRANCH   4  15
TORSDOF 5
ENDMDL
MODEL 7
REMARK VINA RESULT:    -6.871      4.686      8.205
REMARK INTER + INTRA:          -9.719
REMARK INTER:                  -9.013
REMARK INTRA:                  -0.705
REMARK UNBOUND:                -0.840
REMARK  Name = 
REMARK  6 active torsions:
REMARK  status: ('A' for Active; 'I' for Inactive)
REMARK    1  A    between atoms: C_1  and  C_2
REMARK    2  A    between atoms: C_4  and  C_5
REMARK    3  A    between atoms: C_5  and  O_6
REMARK    4  A    between atoms: O_6  and  C_7
REMARK    5  A    between atoms: C_10  and  C_11
REMARK    6  A    between atoms: C_17  and  C_18
REMARK                            x       y       z     vdW  Elec       q    Type
REMARK                         _______ _______ _______ _____ _____    ______ ____
ROOT
ATOM      1  C   UNL     1      44.424  10.157  11.836  0.00  0.00    +0.000 C 
ATOM      2  C   UNL     1      45.182   8.883  12.057  0.00  0.00    +0.000 A 
ATOM      3  C   UNL     1      46.256   8.817  12.943  0.00  0.00    +0.000 A 
ATOM      4  C   UNL     1      46.923   7.605  13.113  0.00  0.00    +0.000 A 
ATOM      5  N   UNL     1      46.561   6.476  12.445  0.00  0.00    +0.000 NA
ATOM      6  C   UNL     1      45.510   6.537  11.588  0.00  0.00    +0.000 A 
ATOM      7  C   UNL     1      44.811   7.724  11.375  0.00  0.00    +0.000 A 
ENDROOT
BRANCH   6   8
ATOM      8  C   UNL     1      45.141   5.279  10.910  0.00  0.00    +0.000 A 
ATOM      9  C   UNL     1      44.372   4.297  11.562  0.00  0.00    +0.000 A 
ATOM     10  C   UNL     1      43.999   3.114  10.913  0.00  0.00    +0.000 A 
ATOM     11  C   UNL     1      44.392   2.887   9.596  0.00  0.00    +0.000 A 
ATOM     12  C   UNL     1      45.160   3.840   8.938  0.00  0.00    +0.000 A 
ATOM     13 CL   UNL     1      45.653   3.573   7.310  0.00  0.00    +0.000 Cl
ATOM     14  C   UNL     1      45.533   5.019   9.583  0.00  0.00    +0.000 A 
ENDBRANCH   6   8
BRANCH   4  15
ATOM     15  C   UNL     1      48.105   7.518  14.057  0.00  0.00    +0.000 C 
BRANCH  15  16
ATOM     16  O   UNL     1      48.489   6.148  14.269  0.00  0.00    +0.000 OA
BRANCH  16  17
ATOM     17  C   UNL     1      48.485   5.807  15.608  0.00  0.00    +0.000 A 
ATOM     18  C   UNL     1      48.804   6.778  16.556  0.00  0.00    +0.000 A 
ATOM     19  N   UNL     1      48.817   6.537  17.900  0.00  0.00    +0.000 NA
ATOM     20  C   UNL     1      48.473   5.263  18.248  0.00  0.00    +0.000 A 
ATOM     21  C   UNL     1      48.159   4.297  17.303  0.00  0.00    +0.000 A 
ATOM     22  N   UNL     1      48.168   4.544  15.966  0.00  0.00    +0.000 NA
BRANCH  20  23
ATOM     23  C   UNL     1      48.421   4.905  19.696  0.00  0.00    +0.000 C 
ATOM     24  N   UNL     1      48.467   3.573  20.015  0.00  0.00    +0.000 N 
ATOM     25  O   UNL     1      48.344   5.761  20.569  0.00  0.00    +0.000 OA
ATOM     26  H   UNL     1      48.547   2.863  19.297  0.00  0.00    +0.000 HD
ATOM     27  H   UNL     1      48.454   3.305  20.986  0.00  0.00    +0.000 HD
ENDBRANCH  20  23
ENDBRANCH  16  17
ENDBRANCH  15  16
ENDBRANCH   4  15
TORSDOF 5
ENDMDL
MODEL 8
REMARK VINA RESULT:    -6.771      2.282      4.018
REMARK INTER + INTRA:          -9.590
REMARK INTER:                  -9.153
REMARK INTRA:                  -0.437
REMARK UNBOUND:                -0.840
REMARK  Name = 
REMARK  6 active torsions:
REMARK  status: ('A' for Active; 'I' for Inactive)
REMARK    1  A    between atoms: C_1  and  C_2
REMARK    2  A    between atoms: C_4  and  C_5
REMARK    3  A    between atoms: C_5  and  O_6
REMARK    4  A    between atoms: O_6  and  C_7
REMARK    5  A    between atoms: C_10  and  C_11
REMARK    6  A    between atoms: C_17  and  C_18
REMARK                            x       y       z     vdW  Elec       q    Type
REMARK                         _______ _______ _______ _____ _____    ______ ____
ROOT
ATOM      1  C   UNL     1      44.659   9.528  11.413  0.00  0.00    +0.000 C 
ATOM      2  C   UNL     1      44.810   8.071  11.730  0.00  0.00    +0.000 A 
ATOM      3  C   UNL     1      44.110   7.094  11.026  0.00  0.00    +0.000 A 
ATOM      4  C   UNL     1      44.292   5.754  11.361  0.00  0.00    +0.000 A 
ATOM      5  N   UNL     1      45.135   5.360  12.354  0.00  0.00    +0.000 NA
ATOM      6  C   UNL     1      45.824   6.310  13.035  0.00  0.00    +0.000 A 
ATOM      7  C   UNL     1      45.676   7.666  12.747  0.00  0.00    +0.000 A 
ENDROOT
BRANCH   6   8
ATOM      8  C   UNL     1      46.745   5.829  14.084  0.00  0.00    +0.000 A 
ATOM      9  C   UNL     1      46.545   4.589  14.718  0.00  0.00    +0.000 A 
ATOM     10  C   UNL     1      47.431   4.118  15.694  0.00  0.00    +0.000 A 
ATOM     11  C   UNL     1      48.536   4.882  16.059  0.00  0.00    +0.000 A 
ATOM     12  C   UNL     1      48.746   6.114  15.452  0.00  0.00    +0.000 A 
ATOM     13 CL   UNL     1      50.109   7.070  15.894  0.00  0.00    +0.000 Cl
ATOM     14  C   UNL     1      47.865   6.585  14.479  0.00  0.00    +0.000 A 
ENDBRANCH   6   8
BRANCH   4  15
ATOM     15  C   UNL     1      43.524   4.677  10.619  0.00  0.00    +0.000 C 
BRANCH  15  16
ATOM     16  O   UNL     1      44.233   3.426  10.659  0.00  0.00    +0.000 OA
BRANCH  16  17
ATOM     17  C   UNL     1      44.992   3.221   9.524  0.00  0.00    +0.000 A 
ATOM     18  C   UNL     1      45.390   4.322   8.766  0.00  0.00    +0.000 A 
ATOM     19  N   UNL     1      46.149   4.218   7.635  0.00  0.00    +0.000 NA
ATOM     20  C   UNL     1      46.505   2.941   7.310  0.00  0.00    +0.000 A 
ATOM     21  C   UNL     1      46.106   1.847   8.064  0.00  0.00    +0.000 A 
ATOM     22  N   UNL     1      45.334   1.961   9.178  0.00  0.00    +0.000 NA
BRANCH  20  23
ATOM     23  C   UNL     1      47.367   2.721   6.111  0.00  0.00    +0.000 C 
ATOM     24  N   UNL     1      48.696   2.466   6.332  0.00  0.00    +0.000 N 
ATOM     25  O   UNL     1      46.912   2.759   4.975  0.00  0.00    +0.000 OA
ATOM     26  H   UNL     1      49.072   2.418   7.271  0.00  0.00    +0.000 HD
ATOM     27  H   UNL     1      49.296   2.294   5.542  0.00  0.00    +0.000 HD
ENDBRANCH  20  23
ENDBRANCH  16  17
ENDBRANCH  15  16
ENDBRANCH   4  15
TORSDOF 5
ENDMDL
MODEL 9
REMARK VINA RESULT:    -6.625      5.668      8.176
REMARK INTER + INTRA:          -9.401
REMARK INTER:                  -8.835
REMARK INTRA:                  -0.566
REMARK UNBOUND:                -0.840
REMARK  Name = 
REMARK  6 active torsions:
REMARK  status: ('A' for Active; 'I' for Inactive)
REMARK    1  A    between atoms: C_1  and  C_2
REMARK    2  A    between atoms: C_4  and  C_5
REMARK    3  A    between atoms: C_5  and  O_6
REMARK    4  A    between atoms: O_6  and  C_7
REMARK    5  A    between atoms: C_10  and  C_11
REMARK    6  A    between atoms: C_17  and  C_18
REMARK                            x       y       z     vdW  Elec       q    Type
REMARK                         _______ _______ _______ _____ _____    ______ ____
ROOT
ATOM      1  C   UNL     1      48.035   5.818  20.396  0.00  0.00    +0.000 C 
ATOM      2  C   UNL     1      48.522   5.078  19.188  0.00  0.00    +0.000 A 
ATOM      3  C   UNL     1      47.678   4.793  18.117  0.00  0.00    +0.000 A 
ATOM      4  C   UNL     1      48.185   4.105  17.016  0.00  0.00    +0.000 A 
ATOM      5  N   UNL     1      49.483   3.702  16.945  0.00  0.00    +0.000 NA
ATOM      6  C   UNL     1      50.308   3.985  17.985  0.00  0.00    +0.000 A 
ATOM      7  C   UNL     1      49.853   4.665  19.114  0.00  0.00    +0.000 A 
ENDROOT
BRANCH   6   8
ATOM      8  C   UNL     1      51.712   3.549  17.847  0.00  0.00    +0.000 A 
ATOM      9  C   UNL     1      52.766   4.481  17.821  0.00  0.00    +0.000 A 
ATOM     10  C   UNL     1      54.100   4.071  17.717  0.00  0.00    +0.000 A 
ATOM     11  C   UNL     1      54.407   2.714  17.632  0.00  0.00    +0.000 A 
ATOM     12  C   UNL     1      53.381   1.779  17.645  0.00  0.00    +0.000 A 
ATOM     13 CL   UNL     1      53.745   0.099  17.541  0.00  0.00    +0.000 Cl
ATOM     14  C   UNL     1      52.051   2.186  17.750  0.00  0.00    +0.000 A 
ENDBRANCH   6   8
BRANCH   4  15
ATOM     15  C   UNL     1      47.278   3.770  15.848  0.00  0.00    +0.000 C 
BRANCH  15  16
ATOM     16  O   UNL     1      47.695   4.466  14.661  0.00  0.00    +0.000 OA
BRANCH  16  17
ATOM     17  C   UNL     1      46.687   4.540  13.720  0.00  0.00    +0.000 A 
ATOM     18  C   UNL     1      46.295   5.791  13.244  0.00  0.00    +0.000 A 
ATOM     19  N   UNL     1      45.315   5.963  12.308  0.00  0.00    +0.000 NA
ATOM     20  C   UNL     1      44.757   4.802  11.857  0.00  0.00    +0.000 A 
ATOM     21  C   UNL     1      45.147   3.559  12.333  0.00  0.00    +0.000 A 
ATOM     22  N   UNL     1      46.110   3.402  13.280  0.00  0.00    +0.000 NA
BRANCH  20  23
ATOM     23  C   UNL     1      43.701   4.877  10.804  0.00  0.00    +0.000 C 
ATOM     24  N   UNL     1      44.094   4.668   9.507  0.00  0.00    +0.000 N 
ATOM     25  O   UNL     1      42.530   5.109  11.080  0.00  0.00    +0.000 OA
ATOM     26  H   UNL     1      45.057   4.458   9.277  0.00  0.00    +0.000 HD
ATOM     27  H   UNL     1      43.398   4.692   8.779  0.00  0.00    +0.000 HD
ENDBRANCH  20  23
ENDBRANCH  16  17
ENDBRANCH  15  16
ENDBRANCH   4  15
TORSDOF 5
ENDMDL
