MODEL 1
REMARK VINA RESULT:    -6.995      0.000      0.000
REMARK INTER + INTRA:         -14.638
REMARK INTER:                 -12.515
REMARK INTRA:                  -2.123
REMARK UNBOUND:                -2.123
REMARK  Name = 
REMARK  17 active torsions:
REMARK  status: ('A' for Active; 'I' for Inactive)
REMARK    1  A    between atoms: C_1  and  C_2
REMARK    2  A    between atoms: C_2  and  C_3
REMARK    3  A    between atoms: C_3  and  C_4
REMARK    4  A    between atoms: C_4  and  N_5
REMARK    5  A    between atoms: C_4  and  C_19
REMARK    6  A    between atoms: N_5  and  C_6
REMARK    7  A    between atoms: C_6  and  C_7
REMARK    8  A    between atoms: C_10  and  C_11
REMARK    9  A    between atoms: C_11  and  O_12
REMARK   10  A    between atoms: C_11  and  C_13
REMARK   11  A    between atoms: C_13  and  N_14
REMARK   12  A    between atoms: N_14  and  C_15
REMARK   13  A    between atoms: N_14  and  C_16
REMARK   14  A    between atoms: C_22  and  C_23
REMARK   15  A    between atoms: C_23  and  N_24
REMARK   16  A    between atoms: N_24  and  C_25
REMARK   17  A    between atoms: C_25  and  C_26
REMARK                            x       y       z     vdW  Elec       q    Type
REMARK                         _______ _______ _______ _____ _____    ______ ____
ROOT
ATOM      1  C   UNL     1      48.553   7.839  12.965  0.00  0.00    +0.000 C 
ENDROOT
BRANCH   1   2
ATOM      2  C   UNL     1      47.516   6.758  12.678  0.00  0.00    +0.000 A 
ATOM      3  C   UNL     1      47.249   5.769  13.640  0.00  0.00    +0.000 A 
ATOM      4  C   UNL     1      46.269   4.796  13.413  0.00  0.00    +0.000 A 
ATOM      5  C   UNL     1      45.531   4.790  12.221  0.00  0.00    +0.000 A 
ATOM      6  C   UNL     1      45.821   5.751  11.247  0.00  0.00    +0.000 A 
ATOM      7  C   UNL     1      46.813   6.710  11.465  0.00  0.00    +0.000 A 
BRANCH   5   8
ATOM      8  C   UNL     1      44.457   3.755  11.979  0.00  0.00    +0.000 C 
BRANCH   8   9
ATOM      9  N   UNL     1      44.948   2.681  11.120  0.00  0.00    +0.000 NA
ATOM     10  H   UNL     1      44.681   1.785  11.532  0.00  0.00    +0.000 HD
BRANCH   9  11
ATOM     11  C   UNL     1      44.349   2.763   9.782  0.00  0.00    +0.000 C 
BRANCH  11  12
ATOM     12  C   UNL     1      45.376   2.535   8.690  0.00  0.00    +0.000 A 
ATOM     13  C   UNL     1      45.760   3.590   7.862  0.00  0.00    +0.000 A 
ATOM     14  C   UNL     1      46.716   3.360   6.878  0.00  0.00    +0.000 A 
ATOM     15  C   UNL     1      47.258   2.088   6.741  0.00  0.00    +0.000 A 
ATOM     16  C   UNL     1      46.819   1.094   7.600  0.00  0.00    +0.000 A 
ATOM     17  N   UNL     1      45.898   1.286   8.569  0.00  0.00    +0.000 NA
ENDBRANCH  11  12
ENDBRANCH   9  11
ENDBRANCH   8   9
ENDBRANCH   5   8
ENDBRANCH   1   2
BRANCH   1  18
ATOM     18  N   UNL     1      49.835   7.195  13.340  0.00  0.00    +0.000 NA
ATOM     19  H   UNL     1      49.652   6.210  13.529  0.00  0.00    +0.000 HD
BRANCH  18  20
ATOM     20  C   UNL     1      50.393   7.811  14.542  0.00  0.00    +0.000 C 
BRANCH  20  21
ATOM     21  C   UNL     1      49.775   7.413  15.856  0.00  0.00    +0.000 A 
ATOM     22  C   UNL     1      48.877   8.211  16.571  0.00  0.00    +0.000 A 
ATOM     23  C   UNL     1      48.210   7.697  17.690  0.00  0.00    +0.000 A 
ATOM     24  C   UNL     1      48.424   6.374  18.104  0.00  0.00    +0.000 A 
ATOM     25  C   UNL     1      49.324   5.580  17.379  0.00  0.00    +0.000 A 
ATOM     26  C   UNL     1      49.991   6.093  16.275  0.00  0.00    +0.000 A 
BRANCH  24  27
ATOM     27  C   UNL     1      47.686   5.802  19.302  0.00  0.00    +0.000 C 
BRANCH  27  28
ATOM     28  O   UNL     1      46.352   5.495  18.882  0.00  0.00    +0.000 OA
ATOM     29  H   UNL     1      46.270   4.531  18.823  0.00  0.00    +0.000 HD
ENDBRANCH  27  28
BRANCH  27  30
ATOM     30  C   UNL     1      48.438   4.548  19.842  0.00  0.00    +0.000 C 
BRANCH  30  31
ATOM     31  N   UNL     1      48.989   4.611  21.217  0.00  0.00    +0.000 NA
ATOM     32  C   UNL     1      50.319   5.221  21.240  0.00  0.00    +0.000 C 
ATOM     33  C   UNL     1      48.077   5.390  22.060  0.00  0.00    +0.000 C 
ENDBRANCH  30  31
ENDBRANCH  27  30
ENDBRANCH  24  27
ENDBRANCH  20  21
ENDBRANCH  18  20
ENDBRANCH   1  18
BRANCH   1  34
ATOM     34  C   UNL     1      48.719   8.847  11.792  0.00  0.00    +0.000 C 
BRANCH  34  36
ATOM     35  C   UNL     1      46.776  10.482  11.847  0.00  0.00    +0.000 C 
ATOM     36  C   UNL     1      48.269  10.282  12.068  0.00  0.00    +0.000 C 
ENDBRANCH  34  36
ENDBRANCH   1  34
TORSDOF 14
ENDMDL
MODEL 2
REMARK VINA RESULT:    -6.873      1.764      2.468
REMARK INTER + INTRA:         -14.420
REMARK INTER:                 -12.413
REMARK INTRA:                  -2.007
REMARK UNBOUND:                -2.123
REMARK  Name = 
REMARK  17 active torsions:
REMARK  status: ('A' for Active; 'I' for Inactive)
REMARK    1  A    between atoms: C_1  and  C_2
REMARK    2  A    between atoms: C_2  and  C_3
REMARK    3  A    between atoms: C_3  and  C_4
REMARK    4  A    between atoms: C_4  and  N_5
REMARK    5  A    between atoms: C_4  and  C_19
REMARK    6  A    between atoms: N_5  and  C_6
REMARK    7  A    between atoms: C_6  and  C_7
REMARK    8  A    between atoms: C_10  and  C_11
REMARK    9  A    between atoms: C_11  and  O_12
REMARK   10  A    between atoms: C_11  and  C_13
REMARK   11  A    between atoms: C_13  and  N_14
REMARK   12  A    between atoms: N_14  and  C_15
REMARK   13  A    between atoms: N_14  and  C_16
REMARK   14  A    between atoms: C_22  and  C_23
REMARK   15  A    between atoms: C_23  and  N_24
REMARK   16  A    between atoms: N_24  and  C_25
REMARK   17  A    between atoms: C_25  and  C_26
REMARK                            x       y       z     vdW  Elec       q    Type
REMARK                         _______ _______ _______ _____ _____    ______ ____
ROOT
ATOM      1  C   UNL     1      47.097   8.648  12.972  0.00  0.00    +0.000 C 
ENDROOT
BRANCH   1   2
ATOM      2  C   UNL     1      46.504   7.278  12.655  0.00  0.00    +0.000 A 
ATOM      3  C   UNL     1      45.631   7.128  11.565  0.00  0.00    +0.000 A 
ATOM      4  C   UNL     1      45.113   5.871  11.232  0.00  0.00    +0.000 A 
ATOM      5  C   UNL     1      45.458   4.735  11.978  0.00  0.00    +0.000 A 
ATOM      6  C   UNL     1      46.298   4.889  13.086  0.00  0.00    +0.000 A 
ATOM      7  C   UNL     1      46.798   6.147  13.431  0.00  0.00    +0.000 A 
BRANCH   5   8
ATOM      8  C   UNL     1      44.920   3.372  11.611  0.00  0.00    +0.000 C 
BRANCH   8   9
ATOM      9  N   UNL     1      44.264   3.400  10.306  0.00  0.00    +0.000 NA
ATOM     10  H   UNL     1      44.676   4.151   9.750  0.00  0.00    +0.000 HD
BRANCH   9  11
ATOM     11  C   UNL     1      44.470   2.136   9.588  0.00  0.00    +0.000 C 
BRANCH  11  12
ATOM     12  C   UNL     1      45.530   2.265   8.512  0.00  0.00    +0.000 A 
ATOM     13  C   UNL     1      45.704   3.478   7.845  0.00  0.00    +0.000 A 
ATOM     14  C   UNL     1      46.694   3.577   6.874  0.00  0.00    +0.000 A 
ATOM     15  C   UNL     1      47.479   2.467   6.588  0.00  0.00    +0.000 A 
ATOM     16  C   UNL     1      47.240   1.298   7.292  0.00  0.00    +0.000 A 
ATOM     17  N   UNL     1      46.291   1.171   8.244  0.00  0.00    +0.000 NA
ENDBRANCH  11  12
ENDBRANCH   9  11
ENDBRANCH   8   9
ENDBRANCH   5   8
ENDBRANCH   1   2
BRANCH   1  18
ATOM     18  N   UNL     1      47.006   8.890  14.433  0.00  0.00    +0.000 NA
ATOM     19  H   UNL     1      46.370   9.673  14.585  0.00  0.00    +0.000 HD
BRANCH  18  20
ATOM     20  C   UNL     1      48.316   9.231  14.984  0.00  0.00    +0.000 C 
BRANCH  20  21
ATOM     21  C   UNL     1      48.899   8.272  15.987  0.00  0.00    +0.000 A 
ATOM     22  C   UNL     1      48.402   8.099  17.283  0.00  0.00    +0.000 A 
ATOM     23  C   UNL     1      48.884   7.063  18.092  0.00  0.00    +0.000 A 
ATOM     24  C   UNL     1      49.862   6.178  17.614  0.00  0.00    +0.000 A 
ATOM     25  C   UNL     1      50.351   6.357  16.312  0.00  0.00    +0.000 A 
ATOM     26  C   UNL     1      49.879   7.390  15.513  0.00  0.00    +0.000 A 
BRANCH  24  27
ATOM     27  C   UNL     1      50.372   5.036  18.477  0.00  0.00    +0.000 C 
BRANCH  27  28
ATOM     28  O   UNL     1      50.480   5.522  19.819  0.00  0.00    +0.000 OA
ATOM     29  H   UNL     1      50.081   6.404  19.852  0.00  0.00    +0.000 HD
ENDBRANCH  27  28
BRANCH  27  30
ATOM     30  C   UNL     1      49.410   3.815  18.365  0.00  0.00    +0.000 C 
BRANCH  30  31
ATOM     31  N   UNL     1      48.863   3.484  17.029  0.00  0.00    +0.000 NA
ATOM     32  C   UNL     1      49.280   2.152  16.587  0.00  0.00    +0.000 C 
ATOM     33  C   UNL     1      47.399   3.547  17.084  0.00  0.00    +0.000 C 
ENDBRANCH  30  31
ENDBRANCH  27  30
ENDBRANCH  24  27
ENDBRANCH  20  21
ENDBRANCH  18  20
ENDBRANCH   1  18
BRANCH   1  34
ATOM     34  C   UNL     1      48.546   8.822  12.434  0.00  0.00    +0.000 C 
BRANCH  34  36
ATOM     35  C   UNL     1      50.548   7.756  11.289  0.00  0.00    +0.000 C 
ATOM     36  C   UNL     1      49.034   7.753  11.456  0.00  0.00    +0.000 C 
ENDBRANCH  34  36
ENDBRANCH   1  34
TORSDOF 14
ENDMDL
MODEL 3
REMARK VINA RESULT:    -6.868      2.411      2.928
REMARK INTER + INTRA:         -14.412
REMARK INTER:                 -12.874
REMARK INTRA:                  -1.537
REMARK UNBOUND:                -2.123
REMARK  Name = 
REMARK  17 active torsions:
REMARK  status: ('A' for Active; 'I' for Inactive)
REMARK    1  A    between atoms: C_1  and  C_2
REMARK    2  A    between atoms: C_2  and  C_3
REMARK    3  A    between atoms: C_3  and  C_4
REMARK    4  A    between atoms: C_4  and  N_5
REMARK    5  A    between atoms: C_4  and  C_19
REMARK    6  A    between atoms: N_5  and  C_6
REMARK    7  A    between atoms: C_6  and  C_7
REMARK    8  A    between atoms: C_10  and  C_11
REMARK    9  A    between atoms: C_11  and  O_12
REMARK   10  A    between atoms: C_11  and  C_13
REMARK   11  A    between atoms: C_13  and  N_14
REMARK   12  A    between atoms: N_14  and  C_15
REMARK   13  A    between atoms: N_14  and  C_16
REMARK   14  A    between atoms: C_22  and  C_23
REMARK   15  A    between atoms: C_23  and  N_24
REMARK   16  A    between atoms: N_24  and  C_25
REMARK   17  A    between atoms: C_25  and  C_26
REMARK                            x       y       z     vdW  Elec       q    Type
REMARK                         _______ _______ _______ _____ _____    ______ ____
ROOT
ATOM      1  C   UNL     1      47.928   7.223  12.940  0.00  0.00    +0.000 C 
ENDROOT
BRANCH   1   2
ATOM      2  C   UNL     1      46.852   6.273  12.425  0.00  0.00    +0.000 A 
ATOM      3  C   UNL     1      46.422   5.201  13.224  0.00  0.00    +0.000 A 
ATOM      4  C   UNL     1      45.404   4.346  12.786  0.00  0.00    +0.000 A 
ATOM      5  C   UNL     1      44.789   4.545  11.542  0.00  0.00    +0.000 A 
ATOM      6  C   UNL     1      45.241   5.590  10.729  0.00  0.00    +0.000 A 
ATOM      7  C   UNL     1      46.272   6.430  11.157  0.00  0.00    +0.000 A 
BRANCH   5   8
ATOM      8  C   UNL     1      43.675   3.639  11.073  0.00  0.00    +0.000 C 
BRANCH   8   9
ATOM      9  N   UNL     1      43.846   3.280   9.667  0.00  0.00    +0.000 NA
ATOM     10  H   UNL     1      44.332   4.042   9.192  0.00  0.00    +0.000 HD
BRANCH   9  11
ATOM     11  C   UNL     1      44.661   2.066   9.531  0.00  0.00    +0.000 C 
BRANCH  11  12
ATOM     12  C   UNL     1      45.671   2.188   8.406  0.00  0.00    +0.000 A 
ATOM     13  C   UNL     1      45.799   3.390   7.711  0.00  0.00    +0.000 A 
ATOM     14  C   UNL     1      46.744   3.483   6.695  0.00  0.00    +0.000 A 
ATOM     15  C   UNL     1      47.529   2.377   6.395  0.00  0.00    +0.000 A 
ATOM     16  C   UNL     1      47.337   1.219   7.129  0.00  0.00    +0.000 A 
ATOM     17  N   UNL     1      46.433   1.099   8.125  0.00  0.00    +0.000 NA
ENDBRANCH  11  12
ENDBRANCH   9  11
ENDBRANCH   8   9
ENDBRANCH   5   8
ENDBRANCH   1   2
BRANCH   1  18
ATOM     18  N   UNL     1      48.837   6.481  13.847  0.00  0.00    +0.000 NA
ATOM     19  H   UNL     1      48.451   5.548  13.988  0.00  0.00    +0.000 HD
BRANCH  18  20
ATOM     20  C   UNL     1      48.938   7.151  15.143  0.00  0.00    +0.000 C 
BRANCH  20  21
ATOM     21  C   UNL     1      49.789   6.479  16.187  0.00  0.00    +0.000 A 
ATOM     22  C   UNL     1      49.311   5.520  17.085  0.00  0.00    +0.000 A 
ATOM     23  C   UNL     1      50.200   4.813  17.905  0.00  0.00    +0.000 A 
ATOM     24  C   UNL     1      51.581   5.049  17.830  0.00  0.00    +0.000 A 
ATOM     25  C   UNL     1      52.051   6.010  16.924  0.00  0.00    +0.000 A 
ATOM     26  C   UNL     1      51.168   6.716  16.118  0.00  0.00    +0.000 A 
BRANCH  24  27
ATOM     27  C   UNL     1      52.554   4.268  18.698  0.00  0.00    +0.000 C 
BRANCH  27  28
ATOM     28  O   UNL     1      51.853   3.865  19.879  0.00  0.00    +0.000 OA
ATOM     29  H   UNL     1      51.096   4.457  19.997  0.00  0.00    +0.000 HD
ENDBRANCH  27  28
BRANCH  27  30
ATOM     30  C   UNL     1      53.120   3.054  17.902  0.00  0.00    +0.000 C 
BRANCH  30  31
ATOM     31  N   UNL     1      52.598   1.707  18.231  0.00  0.00    +0.000 NA
ATOM     32  C   UNL     1      51.417   1.373  17.432  0.00  0.00    +0.000 C 
ATOM     33  C   UNL     1      53.650   0.715  17.989  0.00  0.00    +0.000 C 
ENDBRANCH  30  31
ENDBRANCH  27  30
ENDBRANCH  24  27
ENDBRANCH  20  21
ENDBRANCH  18  20
ENDBRANCH   1  18
BRANCH   1  34
ATOM     34  C   UNL     1      48.697   7.947  11.798  0.00  0.00    +0.000 C 
BRANCH  34  36
ATOM     35  C   UNL     1      47.911  10.361  11.705  0.00  0.00    +0.000 C 
ATOM     36  C   UNL     1      49.053   9.413  12.049  0.00  0.00    +0.000 C 
ENDBRANCH  34  36
ENDBRANCH   1  34
TORSDOF 14
ENDMDL
MODEL 4
REMARK VINA RESULT:    -6.791      3.532      6.874
REMARK INTER + INTRA:         -14.273
REMARK INTER:                 -12.152
REMARK INTRA:                  -2.122
REMARK UNBOUND:                -2.123
REMARK  Name = 
REMARK  17 active torsions:
REMARK  status: ('A' for Active; 'I' for Inactive)
REMARK    1  A    between atoms: C_1  and  C_2
REMARK    2  A    between atoms: C_2  and  C_3
REMARK    3  A    between atoms: C_3  and  C_4
REMARK    4  A    between atoms: C_4  and  N_5
REMARK    5  A    between atoms: C_4  and  C_19
REMARK    6  A    between atoms: N_5  and  C_6
REMARK    7  A    between atoms: C_6  and  C_7
REMARK    8  A    between atoms: C_10  and  C_11
REMARK    9  A    between atoms: C_11  and  O_12
REMARK   10  A    between atoms: C_11  and  C_13
REMARK   11  A    between atoms: C_13  and  N_14
REMARK   12  A    between atoms: N_14  and  C_15
REMARK   13  A    between atoms: N_14  and  C_16
REMARK   14  A    between atoms: C_22  and  C_23
REMARK   15  A    between atoms: C_23  and  N_24
REMARK   16  A    between atoms: N_24  and  C_25
REMARK   17  A    between atoms: C_25  and  C_26
REMARK                            x       y       z     vdW  Elec       q    Type
REMARK                         _______ _______ _______ _____ _____    ______ ____
ROOT
ATOM      1  C   UNL     1      48.508   7.329  13.113  0.00  0.00    +0.000 C 
ENDROOT
BRANCH   1   2
ATOM      2  C   UNL     1      47.368   6.437  12.633  0.00  0.00    +0.000 A 
ATOM      3  C   UNL     1      46.846   6.602  11.340  0.00  0.00    +0.000 A 
ATOM      4  C   UNL     1      45.830   5.764  10.866  0.00  0.00    +0.000 A 
ATOM      5  C   UNL     1      45.315   4.739  11.672  0.00  0.00    +0.000 A 
ATOM      6  C   UNL     1      45.809   4.597  12.973  0.00  0.00    +0.000 A 
ATOM      7  C   UNL     1      46.807   5.447  13.454  0.00  0.00    +0.000 A 
BRANCH   5   8
ATOM      8  C   UNL     1      44.234   3.817  11.160  0.00  0.00    +0.000 C 
BRANCH   8   9
ATOM      9  N   UNL     1      44.787   2.520  10.778  0.00  0.00    +0.000 NA
ATOM     10  H   UNL     1      44.434   1.811  11.422  0.00  0.00    +0.000 HD
BRANCH   9  11
ATOM     11  C   UNL     1      44.370   2.151   9.420  0.00  0.00    +0.000 C 
BRANCH  11  12
ATOM     12  C   UNL     1      45.521   2.225   8.436  0.00  0.00    +0.000 A 
ATOM     13  C   UNL     1      45.810   3.426   7.789  0.00  0.00    +0.000 A 
ATOM     14  C   UNL     1      46.882   3.474   6.904  0.00  0.00    +0.000 A 
ATOM     15  C   UNL     1      47.631   2.326   6.681  0.00  0.00    +0.000 A 
ATOM     16  C   UNL     1      47.275   1.171   7.359  0.00  0.00    +0.000 A 
ATOM     17  N   UNL     1      46.245   1.094   8.229  0.00  0.00    +0.000 NA
ENDBRANCH  11  12
ENDBRANCH   9  11
ENDBRANCH   8   9
ENDBRANCH   5   8
ENDBRANCH   1   2
BRANCH   1  18
ATOM     18  N   UNL     1      48.603   8.515  12.228  0.00  0.00    +0.000 NA
ATOM     19  H   UNL     1      49.590   8.743  12.108  0.00  0.00    +0.000 HD
BRANCH  18  20
ATOM     20  C   UNL     1      47.923   9.664  12.824  0.00  0.00    +0.000 C 
BRANCH  20  21
ATOM     21  C   UNL     1      46.683  10.153  12.126  0.00  0.00    +0.000 A 
ATOM     22  C   UNL     1      46.692  11.066  11.067  0.00  0.00    +0.000 A 
ATOM     23  C   UNL     1      45.516  11.334  10.355  0.00  0.00    +0.000 A 
ATOM     24  C   UNL     1      44.317  10.686  10.686  0.00  0.00    +0.000 A 
ATOM     25  C   UNL     1      44.318   9.769  11.747  0.00  0.00    +0.000 A 
ATOM     26  C   UNL     1      45.483   9.510  12.457  0.00  0.00    +0.000 A 
BRANCH  24  27
ATOM     27  C   UNL     1      43.043  10.952   9.902  0.00  0.00    +0.000 C 
BRANCH  27  28
ATOM     28  O   UNL     1      43.252  10.487   8.564  0.00  0.00    +0.000 OA
ATOM     29  H   UNL     1      42.508  10.788   8.022  0.00  0.00    +0.000 HD
ENDBRANCH  27  28
BRANCH  27  30
ATOM     30  C   UNL     1      41.836  10.247  10.591  0.00  0.00    +0.000 C 
BRANCH  30  31
ATOM     31  N   UNL     1      40.684  11.085  10.997  0.00  0.00    +0.000 NA
ATOM     32  C   UNL     1      39.419  10.355  10.895  0.00  0.00    +0.000 C 
ATOM     33  C   UNL     1      40.882  11.532  12.379  0.00  0.00    +0.000 C 
ENDBRANCH  30  31
ENDBRANCH  27  30
ENDBRANCH  24  27
ENDBRANCH  20  21
ENDBRANCH  18  20
ENDBRANCH   1  18
BRANCH   1  34
ATOM     34  C   UNL     1      48.382   7.721  14.613  0.00  0.00    +0.000 C 
BRANCH  34  36
ATOM     35  C   UNL     1      50.907   7.691  14.897  0.00  0.00    +0.000 C 
ATOM     36  C   UNL     1      49.559   7.337  15.511  0.00  0.00    +0.000 C 
ENDBRANCH  34  36
ENDBRANCH   1  34
TORSDOF 14
ENDMDL
MODEL 5
REMARK VINA RESULT:    -6.695      2.494      3.159
REMARK INTER + INTRA:         -14.102
REMARK INTER:                 -12.566
REMARK INTRA:                  -1.536
REMARK UNBOUND:                -2.123
REMARK  Name = 
REMARK  17 active torsions:
REMARK  status: ('A' for Active; 'I' for Inactive)
REMARK    1  A    between atoms: C_1  and  C_2
REMARK    2  A    between atoms: C_2  and  C_3
REMARK    3  A    between atoms: C_3  and  C_4
REMARK    4  A    between atoms: C_4  and  N_5
REMARK    5  A    between atoms: C_4  and  C_19
REMARK    6  A    between atoms: N_5  and  C_6
REMARK    7  A    between atoms: C_6  and  C_7
REMARK    8  A    between atoms: C_10  and  C_11
REMARK    9  A    between atoms: C_11  and  O_12
REMARK   10  A    between atoms: C_11  and  C_13
REMARK   11  A    between atoms: C_13  and  N_14
REMARK   12  A    between atoms: N_14  and  C_15
REMARK   13  A    between atoms: N_14  and  C_16
REMARK   14  A    between atoms: C_22  and  C_23
REMARK   15  A    between atoms: C_23  and  N_24
REMARK   16  A    between atoms: N_24  and  C_25
REMARK   17  A    between atoms: C_25  and  C_26
REMARK                            x       y       z     vdW  Elec       q    Type
REMARK                         _______ _______ _______ _____ _____    ______ ____
ROOT
ATOM      1  C   UNL     1      47.631   7.222  13.245  0.00  0.00    +0.000 C 
ENDROOT
BRANCH   1   2
ATOM      2  C   UNL     1      46.499   6.353  12.708  0.00  0.00    +0.000 A 
ATOM      3  C   UNL     1      45.876   6.685  11.493  0.00  0.00    +0.000 A 
ATOM      4  C   UNL     1      44.866   5.874  10.962  0.00  0.00    +0.000 A 
ATOM      5  C   UNL     1      44.457   4.712  11.631  0.00  0.00    +0.000 A 
ATOM      6  C   UNL     1      45.050   4.400  12.859  0.00  0.00    +0.000 A 
ATOM      7  C   UNL     1      46.043   5.220  13.399  0.00  0.00    +0.000 A 
BRANCH   5   8
ATOM      8  C   UNL     1      43.382   3.821  11.053  0.00  0.00    +0.000 C 
BRANCH   8   9
ATOM      9  N   UNL     1      43.752   3.348   9.722  0.00  0.00    +0.000 NA
ATOM     10  H   UNL     1      44.142   4.130   9.193  0.00  0.00    +0.000 HD
BRANCH   9  11
ATOM     11  C   UNL     1      44.775   2.298   9.803  0.00  0.00    +0.000 C 
BRANCH  11  12
ATOM     12  C   UNL     1      45.646   2.262   8.563  0.00  0.00    +0.000 A 
ATOM     13  C   UNL     1      45.787   3.405   7.775  0.00  0.00    +0.000 A 
ATOM     14  C   UNL     1      46.606   3.352   6.652  0.00  0.00    +0.000 A 
ATOM     15  C   UNL     1      47.255   2.165   6.340  0.00  0.00    +0.000 A 
ATOM     16  C   UNL     1      47.058   1.073   7.170  0.00  0.00    +0.000 A 
ATOM     17  N   UNL     1      46.276   1.094   8.271  0.00  0.00    +0.000 NA
ENDBRANCH  11  12
ENDBRANCH   9  11
ENDBRANCH   8   9
ENDBRANCH   5   8
ENDBRANCH   1   2
BRANCH   1  18
ATOM     18  N   UNL     1      47.701   7.073  14.719  0.00  0.00    +0.000 NA
ATOM     19  H   UNL     1      46.906   7.565  15.125  0.00  0.00    +0.000 HD
BRANCH  18  20
ATOM     20  C   UNL     1      48.935   7.656  15.241  0.00  0.00    +0.000 C 
BRANCH  20  21
ATOM     21  C   UNL     1      49.875   6.724  15.957  0.00  0.00    +0.000 A 
ATOM     22  C   UNL     1      51.254   6.932  16.062  0.00  0.00    +0.000 A 
ATOM     23  C   UNL     1      52.032   6.116  16.893  0.00  0.00    +0.000 A 
ATOM     24  C   UNL     1      51.440   5.086  17.639  0.00  0.00    +0.000 A 
ATOM     25  C   UNL     1      50.056   4.887  17.531  0.00  0.00    +0.000 A 
ATOM     26  C   UNL     1      49.287   5.691  16.700  0.00  0.00    +0.000 A 
BRANCH  24  27
ATOM     27  C   UNL     1      52.273   4.213  18.562  0.00  0.00    +0.000 C 
BRANCH  27  28
ATOM     28  O   UNL     1      51.497   3.965  19.740  0.00  0.00    +0.000 OA
ATOM     29  H   UNL     1      51.573   4.740  20.317  0.00  0.00    +0.000 HD
ENDBRANCH  27  28
BRANCH  27  30
ATOM     30  C   UNL     1      52.674   2.896  17.831  0.00  0.00    +0.000 C 
BRANCH  30  31
ATOM     31  N   UNL     1      53.160   1.767  18.657  0.00  0.00    +0.000 NA
ATOM     32  C   UNL     1      53.261   0.530  17.880  0.00  0.00    +0.000 C 
ATOM     33  C   UNL     1      54.476   2.109  19.207  0.00  0.00    +0.000 C 
ENDBRANCH  30  31
ENDBRANCH  27  30
ENDBRANCH  24  27
ENDBRANCH  20  21
ENDBRANCH  18  20
ENDBRANCH   1  18
BRANCH   1  34
ATOM     34  C   UNL     1      48.996   6.935  12.557  0.00  0.00    +0.000 C 
BRANCH  34  36
ATOM     35  C   UNL     1      50.656   8.672  11.732  0.00  0.00    +0.000 C 
ATOM     36  C   UNL     1      49.392   7.881  11.423  0.00  0.00    +0.000 C 
ENDBRANCH  34  36
ENDBRANCH   1  34
TORSDOF 14
ENDMDL
MODEL 6
REMARK VINA RESULT:    -6.617      2.437      2.981
REMARK INTER + INTRA:         -13.962
REMARK INTER:                 -12.181
REMARK INTRA:                  -1.782
REMARK UNBOUND:                -2.123
REMARK  Name = 
REMARK  17 active torsions:
REMARK  status: ('A' for Active; 'I' for Inactive)
REMARK    1  A    between atoms: C_1  and  C_2
REMARK    2  A    between atoms: C_2  and  C_3
REMARK    3  A    between atoms: C_3  and  C_4
REMARK    4  A    between atoms: C_4  and  N_5
REMARK    5  A    between atoms: C_4  and  C_19
REMARK    6  A    between atoms: N_5  and  C_6
REMARK    7  A    between atoms: C_6  and  C_7
REMARK    8  A    between atoms: C_10  and  C_11
REMARK    9  A    between atoms: C_11  and  O_12
REMARK   10  A    between atoms: C_11  and  C_13
REMARK   11  A    between atoms: C_13  and  N_14
REMARK   12  A    between atoms: N_14  and  C_15
REMARK   13  A    between atoms: N_14  and  C_16
REMARK   14  A    between atoms: C_22  and  C_23
REMARK   15  A    between atoms: C_23  and  N_24
REMARK   16  A    between atoms: N_24  and  C_25
REMARK   17  A    between atoms: C_25  and  C_26
REMARK                            x       y       z     vdW  Elec       q    Type
REMARK                         _______ _______ _______ _____ _____    ______ ____
ROOT
ATOM      1  C   UNL     1      47.948   7.015  13.211  0.00  0.00    +0.000 C 
ENDROOT
BRANCH   1   2
ATOM      2  C   UNL     1      46.841   6.146  12.622  0.00  0.00    +0.000 A 
ATOM      3  C   UNL     1      46.334   5.063  13.358  0.00  0.00    +0.000 A 
ATOM      4  C   UNL     1      45.287   4.283  12.852  0.00  0.00    +0.000 A 
ATOM      5  C   UNL     1      44.721   4.569  11.602  0.00  0.00    +0.000 A 
ATOM      6  C   UNL     1      45.250   5.625  10.852  0.00  0.00    +0.000 A 
ATOM      7  C   UNL     1      46.308   6.391  11.347  0.00  0.00    +0.000 A 
BRANCH   5   8
ATOM      8  C   UNL     1      43.577   3.744  11.060  0.00  0.00    +0.000 C 
BRANCH   8   9
ATOM      9  N   UNL     1      43.793   3.407   9.656  0.00  0.00    +0.000 NA
ATOM     10  H   UNL     1      44.354   4.142   9.224  0.00  0.00    +0.000 HD
BRANCH   9  11
ATOM     11  C   UNL     1      44.525   2.141   9.527  0.00  0.00    +0.000 C 
BRANCH  11  12
ATOM     12  C   UNL     1      45.578   2.206   8.437  0.00  0.00    +0.000 A 
ATOM     13  C   UNL     1      45.766   3.387   7.719  0.00  0.00    +0.000 A 
ATOM     14  C   UNL     1      46.749   3.428   6.735  0.00  0.00    +0.000 A 
ATOM     15  C   UNL     1      47.511   2.293   6.490  0.00  0.00    +0.000 A 
ATOM     16  C   UNL     1      47.259   1.159   7.244  0.00  0.00    +0.000 A 
ATOM     17  N   UNL     1      46.317   1.089   8.209  0.00  0.00    +0.000 NA
ENDBRANCH  11  12
ENDBRANCH   9  11
ENDBRANCH   8   9
ENDBRANCH   5   8
ENDBRANCH   1   2
BRANCH   1  18
ATOM     18  N   UNL     1      48.652   6.252  14.270  0.00  0.00    +0.000 NA
ATOM     19  H   UNL     1      47.953   5.753  14.820  0.00  0.00    +0.000 HD
BRANCH  18  20
ATOM     20  C   UNL     1      49.393   7.151  15.153  0.00  0.00    +0.000 C 
BRANCH  20  21
ATOM     21  C   UNL     1      48.728   7.525  16.450  0.00  0.00    +0.000 A 
ATOM     22  C   UNL     1      48.515   6.632  17.505  0.00  0.00    +0.000 A 
ATOM     23  C   UNL     1      48.054   7.097  18.743  0.00  0.00    +0.000 A 
ATOM     24  C   UNL     1      47.810   8.463  18.947  0.00  0.00    +0.000 A 
ATOM     25  C   UNL     1      48.031   9.352  17.885  0.00  0.00    +0.000 A 
ATOM     26  C   UNL     1      48.479   8.889  16.656  0.00  0.00    +0.000 A 
BRANCH  24  27
ATOM     27  C   UNL     1      47.335   8.978  20.295  0.00  0.00    +0.000 C 
BRANCH  27  28
ATOM     28  O   UNL     1      48.494   9.228  21.097  0.00  0.00    +0.000 OA
ATOM     29  H   UNL     1      48.202   9.622  21.933  0.00  0.00    +0.000 HD
ENDBRANCH  27  28
BRANCH  27  30
ATOM     30  C   UNL     1      46.464  10.256  20.100  0.00  0.00    +0.000 C 
BRANCH  30  31
ATOM     31  N   UNL     1      45.566  10.658  21.208  0.00  0.00    +0.000 NA
ATOM     32  C   UNL     1      46.180  11.676  22.062  0.00  0.00    +0.000 C 
ATOM     33  C   UNL     1      44.317  11.179  20.644  0.00  0.00    +0.000 C 
ENDBRANCH  30  31
ENDBRANCH  27  30
ENDBRANCH  24  27
ENDBRANCH  20  21
ENDBRANCH  18  20
ENDBRANCH   1  18
BRANCH   1  34
ATOM     34  C   UNL     1      48.925   7.567  12.134  0.00  0.00    +0.000 C 
BRANCH  34  36
ATOM     35  C   UNL     1      48.245   9.886  12.920  0.00  0.00    +0.000 C 
ATOM     36  C   UNL     1      48.751   9.040  11.759  0.00  0.00    +0.000 C 
ENDBRANCH  34  36
ENDBRANCH   1  34
TORSDOF 14
ENDMDL
MODEL 7
REMARK VINA RESULT:    -6.390      1.935      2.621
REMARK INTER + INTRA:         -13.556
REMARK INTER:                 -11.509
REMARK INTRA:                  -2.047
REMARK UNBOUND:                -2.123
REMARK  Name = 
REMARK  17 active torsions:
REMARK  status: ('A' for Active; 'I' for Inactive)
REMARK    1  A    between atoms: C_1  and  C_2
REMARK    2  A    between atoms: C_2  and  C_3
REMARK    3  A    between atoms: C_3  and  C_4
REMARK    4  A    between atoms: C_4  and  N_5
REMARK    5  A    between atoms: C_4  and  C_19
REMARK    6  A    between atoms: N_5  and  C_6
REMARK    7  A    between atoms: C_6  and  C_7
REMARK    8  A    between atoms: C_10  and  C_11
REMARK    9  A    between atoms: C_11  and  O_12
REMARK   10  A    between atoms: C_11  and  C_13
REMARK   11  A    between atoms: C_13  and  N_14
REMARK   12  A    between atoms: N_14  and  C_15
REMARK   13  A    between atoms: N_14  and  C_16
REMARK   14  A    between atoms: C_22  and  C_23
REMARK   15  A    between atoms: C_23  and  N_24
REMARK   16  A    between atoms: N_24  and  C_25
REMARK   17  A    between atoms: C_25  and  C_26
REMARK                            x       y       z     vdW  Elec       q    Type
REMARK                         _______ _______ _______ _____ _____    ______ ____
ROOT
ATOM      1  C   UNL     1      48.252  10.462  12.628  0.00  0.00    +0.000 C 
ENDROOT
BRANCH   1   2
ATOM      2  C   UNL     1      47.536   9.136  12.392  0.00  0.00    +0.000 A 
ATOM      3  C   UNL     1      46.193   8.986  12.776  0.00  0.00    +0.000 A 
ATOM      4  C   UNL     1      45.507   7.792  12.527  0.00  0.00    +0.000 A 
ATOM      5  C   UNL     1      46.145   6.722  11.885  0.00  0.00    +0.000 A 
ATOM      6  C   UNL     1      47.493   6.856  11.535  0.00  0.00    +0.000 A 
ATOM      7  C   UNL     1      48.184   8.040  11.802  0.00  0.00    +0.000 A 
BRANCH   5   8
ATOM      8  C   UNL     1      45.404   5.438  11.593  0.00  0.00    +0.000 C 
BRANCH   8   9
ATOM      9  N   UNL     1      44.501   5.599  10.457  0.00  0.00    +0.000 NA
ATOM     10  H   UNL     1      45.018   6.026   9.686  0.00  0.00    +0.000 HD
BRANCH   9  11
ATOM     11  C   UNL     1      43.993   4.299  10.001  0.00  0.00    +0.000 C 
BRANCH  11  12
ATOM     12  C   UNL     1      44.963   3.614   9.059  0.00  0.00    +0.000 A 
ATOM     13  C   UNL     1      45.188   2.242   9.166  0.00  0.00    +0.000 A 
ATOM     14  C   UNL     1      46.070   1.632   8.279  0.00  0.00    +0.000 A 
ATOM     15  C   UNL     1      46.707   2.404   7.316  0.00  0.00    +0.000 A 
ATOM     16  C   UNL     1      46.433   3.761   7.279  0.00  0.00    +0.000 A 
ATOM     17  N   UNL     1      45.578   4.382   8.122  0.00  0.00    +0.000 NA
ENDBRANCH  11  12
ENDBRANCH   9  11
ENDBRANCH   8   9
ENDBRANCH   5   8
ENDBRANCH   1   2
BRANCH   1  18
ATOM     18  N   UNL     1      48.203  10.790  14.073  0.00  0.00    +0.000 NA
ATOM     19  H   UNL     1      48.143  11.804  14.167  0.00  0.00    +0.000 HD
BRANCH  18  20
ATOM     20  C   UNL     1      49.411  10.324  14.752  0.00  0.00    +0.000 C 
BRANCH  20  21
ATOM     21  C   UNL     1      49.259   9.141  15.669  0.00  0.00    +0.000 A 
ATOM     22  C   UNL     1      48.697   9.210  16.948  0.00  0.00    +0.000 A 
ATOM     23  C   UNL     1      48.427   8.038  17.666  0.00  0.00    +0.000 A 
ATOM     24  C   UNL     1      48.705   6.780  17.112  0.00  0.00    +0.000 A 
ATOM     25  C   UNL     1      49.265   6.720  15.827  0.00  0.00    +0.000 A 
ATOM     26  C   UNL     1      49.540   7.882  15.120  0.00  0.00    +0.000 A 
BRANCH  24  27
ATOM     27  C   UNL     1      48.392   5.504  17.874  0.00  0.00    +0.000 C 
BRANCH  27  28
ATOM     28  O   UNL     1      47.019   5.566  18.276  0.00  0.00    +0.000 OA
ATOM     29  H   UNL     1      46.509   4.985  17.691  0.00  0.00    +0.000 HD
ENDBRANCH  27  28
BRANCH  27  30
ATOM     30  C   UNL     1      48.691   4.263  16.981  0.00  0.00    +0.000 C 
BRANCH  30  31
ATOM     31  N   UNL     1      50.034   3.645  17.083  0.00  0.00    +0.000 NA
ATOM     32  C   UNL     1      50.735   4.067  18.296  0.00  0.00    +0.000 C 
ATOM     33  C   UNL     1      49.888   2.186  17.083  0.00  0.00    +0.000 C 
ENDBRANCH  30  31
ENDBRANCH  27  30
ENDBRANCH  24  27
ENDBRANCH  20  21
ENDBRANCH  18  20
ENDBRANCH   1  18
BRANCH   1  34
ATOM     34  C   UNL     1      49.703  10.477  12.068  0.00  0.00    +0.000 C 
BRANCH  34  36
ATOM     35  C   UNL     1      48.735  11.711  10.070  0.00  0.00    +0.000 C 
ATOM     36  C   UNL     1      49.972  11.449  10.918  0.00  0.00    +0.000 C 
ENDBRANCH  34  36
ENDBRANCH   1  34
TORSDOF 14
ENDMDL
MODEL 8
REMARK VINA RESULT:    -6.347      3.066      6.242
REMARK INTER + INTRA:         -13.478
REMARK INTER:                 -11.954
REMARK INTRA:                  -1.524
REMARK UNBOUND:                -2.123
REMARK  Name = 
REMARK  17 active torsions:
REMARK  status: ('A' for Active; 'I' for Inactive)
REMARK    1  A    between atoms: C_1  and  C_2
REMARK    2  A    between atoms: C_2  and  C_3
REMARK    3  A    between atoms: C_3  and  C_4
REMARK    4  A    between atoms: C_4  and  N_5
REMARK    5  A    between atoms: C_4  and  C_19
REMARK    6  A    between atoms: N_5  and  C_6
REMARK    7  A    between atoms: C_6  and  C_7
REMARK    8  A    between atoms: C_10  and  C_11
REMARK    9  A    between atoms: C_11  and  O_12
REMARK   10  A    between atoms: C_11  and  C_13
REMARK   11  A    between atoms: C_13  and  N_14
REMARK   12  A    between atoms: N_14  and  C_15
REMARK   13  A    between atoms: N_14  and  C_16
REMARK   14  A    between atoms: C_22  and  C_23
REMARK   15  A    between atoms: C_23  and  N_24
REMARK   16  A    between atoms: N_24  and  C_25
REMARK   17  A    between atoms: C_25  and  C_26
REMARK                            x       y       z     vdW  Elec       q    Type
REMARK                         _______ _______ _______ _____ _____    ______ ____
ROOT
ATOM      1  C   UNL     1      47.671   5.208  14.934  0.00  0.00    +0.000 C 
ENDROOT
BRANCH   1   2
ATOM      2  C   UNL     1      46.654   4.960  13.823  0.00  0.00    +0.000 A 
ATOM      3  C   UNL     1      46.405   3.650  13.381  0.00  0.00    +0.000 A 
ATOM      4  C   UNL     1      45.444   3.400  12.395  0.00  0.00    +0.000 A 
ATOM      5  C   UNL     1      44.708   4.451  11.830  0.00  0.00    +0.000 A 
ATOM      6  C   UNL     1      44.981   5.759  12.243  0.00  0.00    +0.000 A 
ATOM      7  C   UNL     1      45.955   6.012  13.212  0.00  0.00    +0.000 A 
BRANCH   5   8
ATOM      8  C   UNL     1      43.654   4.185  10.781  0.00  0.00    +0.000 C 
BRANCH   8   9
ATOM      9  N   UNL     1      44.260   3.982   9.468  0.00  0.00    +0.000 NA
ATOM     10  H   UNL     1      45.164   4.455   9.448  0.00  0.00    +0.000 HD
BRANCH   9  11
ATOM     11  C   UNL     1      44.487   2.555   9.210  0.00  0.00    +0.000 C 
BRANCH  11  12
ATOM     12  C   UNL     1      45.632   2.332   8.240  0.00  0.00    +0.000 A 
ATOM     13  C   UNL     1      46.073   3.378   7.429  0.00  0.00    +0.000 A 
ATOM     14  C   UNL     1      47.136   3.155   6.560  0.00  0.00    +0.000 A 
ATOM     15  C   UNL     1      47.726   1.898   6.518  0.00  0.00    +0.000 A 
ATOM     16  C   UNL     1      47.226   0.912   7.352  0.00  0.00    +0.000 A 
ATOM     17  N   UNL     1      46.200   1.098   8.211  0.00  0.00    +0.000 NA
ENDBRANCH  11  12
ENDBRANCH   9  11
ENDBRANCH   8   9
ENDBRANCH   5   8
ENDBRANCH   1   2
BRANCH   1  18
ATOM     18  N   UNL     1      47.841   6.669  15.118  0.00  0.00    +0.000 NA
ATOM     19  H   UNL     1      47.441   7.140  14.307  0.00  0.00    +0.000 HD
BRANCH  18  20
ATOM     20  C   UNL     1      49.258   7.018  15.215  0.00  0.00    +0.000 C 
BRANCH  20  21
ATOM     21  C   UNL     1      49.933   7.463  13.946  0.00  0.00    +0.000 A 
ATOM     22  C   UNL     1      49.357   7.358  12.676  0.00  0.00    +0.000 A 
ATOM     23  C   UNL     1      49.972   7.955  11.569  0.00  0.00    +0.000 A 
ATOM     24  C   UNL     1      51.167   8.675  11.718  0.00  0.00    +0.000 A 
ATOM     25  C   UNL     1      51.736   8.778  12.995  0.00  0.00    +0.000 A 
ATOM     26  C   UNL     1      51.130   8.178  14.091  0.00  0.00    +0.000 A 
BRANCH  24  27
ATOM     27  C   UNL     1      51.827   9.347  10.526  0.00  0.00    +0.000 C 
BRANCH  27  28
ATOM     28  O   UNL     1      52.346  10.605  10.971  0.00  0.00    +0.000 OA
ATOM     29  H   UNL     1      51.599  11.203  11.120  0.00  0.00    +0.000 HD
ENDBRANCH  27  28
BRANCH  27  30
ATOM     30  C   UNL     1      52.938   8.423   9.940  0.00  0.00    +0.000 C 
BRANCH  30  31
ATOM     31  N   UNL     1      52.530   7.100   9.414  0.00  0.00    +0.000 NA
ATOM     32  C   UNL     1      52.604   7.051   7.953  0.00  0.00    +0.000 C 
ATOM     33  C   UNL     1      53.404   6.070   9.984  0.00  0.00    +0.000 C 
ENDBRANCH  30  31
ENDBRANCH  27  30
ENDBRANCH  24  27
ENDBRANCH  20  21
ENDBRANCH  18  20
ENDBRANCH   1  18
BRANCH   1  34
ATOM     34  C   UNL     1      47.308   4.483  16.262  0.00  0.00    +0.000 C 
BRANCH  34  36
ATOM     35  C   UNL     1      49.518   3.912  17.376  0.00  0.00    +0.000 C 
ATOM     36  C   UNL     1      48.261   3.373  16.706  0.00  0.00    +0.000 C 
ENDBRANCH  34  36
ENDBRANCH   1  34
TORSDOF 14
ENDMDL
MODEL 9
REMARK VINA RESULT:    -6.202      2.102      8.478
REMARK INTER + INTRA:         -13.219
REMARK INTER:                 -11.096
REMARK INTRA:                  -2.123
REMARK UNBOUND:                -2.123
REMARK  Name = 
REMARK  17 active torsions:
REMARK  status: ('A' for Active; 'I' for Inactive)
REMARK    1  A    between atoms: C_1  and  C_2
REMARK    2  A    between atoms: C_2  and  C_3
REMARK    3  A    between atoms: C_3  and  C_4
REMARK    4  A    between atoms: C_4  and  N_5
REMARK    5  A    between atoms: C_4  and  C_19
REMARK    6  A    between atoms: N_5  and  C_6
REMARK    7  A    between atoms: C_6  and  C_7
REMARK    8  A    between atoms: C_10  and  C_11
REMARK    9  A    between atoms: C_11  and  O_12
REMARK   10  A    between atoms: C_11  and  C_13
REMARK   11  A    between atoms: C_13  and  N_14
REMARK   12  A    between atoms: N_14  and  C_15
REMARK   13  A    between atoms: N_14  and  C_16
REMARK   14  A    between atoms: C_22  and  C_23
REMARK   15  A    between atoms: C_23  and  N_24
REMARK   16  A    between atoms: N_24  and  C_25
REMARK   17  A    between atoms: C_25  and  C_26
REMARK                            x       y       z     vdW  Elec       q    Type
REMARK                         _______ _______ _______ _____ _____    ______ ____
ROOT
ATOM      1  C   UNL     1      49.791   7.816  13.763  0.00  0.00    +0.000 C 
ENDROOT
BRANCH   1   2
ATOM      2  C   UNL     1      49.778   7.674  15.282  0.00  0.00    +0.000 A 
ATOM      3  C   UNL     1      50.758   6.898  15.922  0.00  0.00    +0.000 A 
ATOM      4  C   UNL     1      50.788   6.794  17.318  0.00  0.00    +0.000 A 
ATOM      5  C   UNL     1      49.842   7.463  18.106  0.00  0.00    +0.000 A 
ATOM      6  C   UNL     1      48.843   8.206  17.468  0.00  0.00    +0.000 A 
ATOM      7  C   UNL     1      48.800   8.294  16.075  0.00  0.00    +0.000 A 
BRANCH   5   8
ATOM      8  C   UNL     1      49.882   7.371  19.613  0.00  0.00    +0.000 C 
BRANCH   8   9
ATOM      9  N   UNL     1      48.641   6.807  20.138  0.00  0.00    +0.000 NA
ATOM     10  H   UNL     1      47.890   6.989  19.470  0.00  0.00    +0.000 HD
BRANCH   9  11
ATOM     11  C   UNL     1      48.756   5.354  20.309  0.00  0.00    +0.000 C 
BRANCH  11  12
ATOM     12  C   UNL     1      48.485   4.611  19.015  0.00  0.00    +0.000 A 
ATOM     13  C   UNL     1      47.342   4.900  18.271  0.00  0.00    +0.000 A 
ATOM     14  C   UNL     1      47.124   4.217  17.079  0.00  0.00    +0.000 A 
ATOM     15  C   UNL     1      48.044   3.262  16.665  0.00  0.00    +0.000 A 
ATOM     16  C   UNL     1      49.151   3.030  17.464  0.00  0.00    +0.000 A 
ATOM     17  N   UNL     1      49.395   3.681  18.623  0.00  0.00    +0.000 NA
ENDBRANCH  11  12
ENDBRANCH   9  11
ENDBRANCH   8   9
ENDBRANCH   5   8
ENDBRANCH   1   2
BRANCH   1  18
ATOM     18  N   UNL     1      49.218   6.590  13.156  0.00  0.00    +0.000 NA
ATOM     19  H   UNL     1      48.953   6.807  12.195  0.00  0.00    +0.000 HD
BRANCH  18  20
ATOM     20  C   UNL     1      48.029   6.156  13.887  0.00  0.00    +0.000 C 
BRANCH  20  21
ATOM     21  C   UNL     1      46.911   5.566  13.070  0.00  0.00    +0.000 A 
ATOM     22  C   UNL     1      46.393   6.156  11.913  0.00  0.00    +0.000 A 
ATOM     23  C   UNL     1      45.479   5.460  11.112  0.00  0.00    +0.000 A 
ATOM     24  C   UNL     1      45.078   4.159  11.451  0.00  0.00    +0.000 A 
ATOM     25  C   UNL     1      45.606   3.574  12.611  0.00  0.00    +0.000 A 
ATOM     26  C   UNL     1      46.505   4.268  13.409  0.00  0.00    +0.000 A 
BRANCH  24  27
ATOM     27  C   UNL     1      44.107   3.387  10.574  0.00  0.00    +0.000 C 
BRANCH  27  28
ATOM     28  O   UNL     1      42.799   3.542  11.136  0.00  0.00    +0.000 OA
ATOM     29  H   UNL     1      42.155   3.211  10.492  0.00  0.00    +0.000 HD
ENDBRANCH  27  28
BRANCH  27  30
ATOM     30  C   UNL     1      44.186   3.908   9.107  0.00  0.00    +0.000 C 
BRANCH  30  31
ATOM     31  N   UNL     1      44.987   3.125   8.137  0.00  0.00    +0.000 NA
ATOM     32  C   UNL     1      46.170   3.863   7.690  0.00  0.00    +0.000 C 
ATOM     33  C   UNL     1      45.403   1.868   8.767  0.00  0.00    +0.000 C 
ENDBRANCH  30  31
ENDBRANCH  27  30
ENDBRANCH  24  27
ENDBRANCH  20  21
ENDBRANCH  18  20
ENDBRANCH   1  18
BRANCH   1  34
ATOM     34  C   UNL     1      49.080   9.108  13.268  0.00  0.00    +0.000 C 
BRANCH  34  36
ATOM     35  C   UNL     1      48.749  10.559  11.209  0.00  0.00    +0.000 C 
ATOM     36  C   UNL     1      48.715   9.148  11.783  0.00  0.00    +0.000 C 
ENDBRANCH  34  36
ENDBRANCH   1  34
TORSDOF 14
ENDMDL
