MODEL 1
REMARK VINA RESULT:    -6.345      0.000      0.000
REMARK INTER + INTRA:          -9.288
REMARK INTER:                  -8.756
REMARK INTRA:                  -0.532
REMARK UNBOUND:                -0.532
REMARK  Name = 
REMARK  8 active torsions:
REMARK  status: ('A' for Active; 'I' for Inactive)
REMARK    1  A    between atoms: C_1  and  C_2
REMARK    2  A    between atoms: C_2  and  C_3
REMARK    3  A    between atoms: C_3  and  N_4
REMARK    4  A    between atoms: N_4  and  C_5
REMARK    5  A    between atoms: C_8  and  C_9
REMARK    6  A    between atoms: C_10  and  C_11
REMARK    7  A    between atoms: C_15  and  C_16
REMARK    8  A    between atoms: C_16  and  N_17
REMARK                            x       y       z     vdW  Elec       q    Type
REMARK                         _______ _______ _______ _____ _____    ______ ____
ROOT
ATOM      1  C   UNL     1      44.713   4.675  10.791  0.00  0.00    +0.000 A 
ATOM      2  N   UNL     1      45.648   5.641  10.945  0.00  0.00    +0.000 NA
ATOM      3  C   UNL     1      46.283   5.689  12.142  0.00  0.00    +0.000 A 
ATOM      4  C   UNL     1      46.028   4.798  13.180  0.00  0.00    +0.000 A 
ATOM      5  N   UNL     1      45.090   3.832  13.057  0.00  0.00    +0.000 NA
ATOM      6  C   UNL     1      44.437   3.809  11.868  0.00  0.00    +0.000 A 
ATOM      7 CL   UNL     1      43.279   2.540  11.746  0.00  0.00    +0.000 Cl
ENDROOT
BRANCH   1   8
ATOM      8  N   UNL     1      43.991   4.609   9.577  0.00  0.00    +0.000 N 
ATOM      9  H   UNL     1      43.143   4.061   9.723  0.00  0.00    +0.000 HD
BRANCH   8  10
ATOM     10  C   UNL     1      44.797   4.091   8.473  0.00  0.00    +0.000 C 
BRANCH  10  12
ATOM     11  C   UNL     1      46.210   2.053   8.109  0.00  0.00    +0.000 C 
ATOM     12  C   UNL     1      44.840   2.568   8.528  0.00  0.00    +0.000 C 
ENDBRANCH  10  12
ENDBRANCH   8  10
ENDBRANCH   1   8
BRANCH   4  13
ATOM     13  C   UNL     1      46.765   4.898  14.445  0.00  0.00    +0.000 C 
ATOM     14  C   UNL     1      47.090   3.837  15.204  0.00  0.00    +0.000 C 
BRANCH  14  15
ATOM     15  C   UNL     1      47.750   3.915  16.517  0.00  0.00    +0.000 A 
ATOM     16  C   UNL     1      48.761   3.021  16.898  0.00  0.00    +0.000 A 
ATOM     17  C   UNL     1      49.443   3.192  18.102  0.00  0.00    +0.000 A 
ATOM     18  C   UNL     1      49.138   4.270  18.933  0.00  0.00    +0.000 A 
ATOM     19  C   UNL     1      48.123   5.174  18.587  0.00  0.00    +0.000 A 
ATOM     20  C   UNL     1      47.441   4.984  17.373  0.00  0.00    +0.000 A 
BRANCH  19  21
ATOM     21  C   UNL     1      47.838   6.404  19.415  0.00  0.00    +0.000 C 
BRANCH  21  22
ATOM     22  N   UNL     1      47.214   7.487  18.658  0.00  0.00    +0.000 NA
ATOM     23  H   UNL     1      46.245   7.578  18.962  0.00  0.00    +0.000 HD
ATOM     24  H   UNL     1      47.181   7.227  17.675  0.00  0.00    +0.000 HD
ENDBRANCH  21  22
ENDBRANCH  19  21
ENDBRANCH  14  15
ENDBRANCH   4  13
TORSDOF 7
ENDMDL
MODEL 2
REMARK VINA RESULT:    -5.986      1.389      1.774
REMARK INTER + INTRA:          -8.792
REMARK INTER:                  -8.266
REMARK INTRA:                  -0.526
REMARK UNBOUND:                -0.532
REMARK  Name = 
REMARK  8 active torsions:
REMARK  status: ('A' for Active; 'I' for Inactive)
REMARK    1  A    between atoms: C_1  and  C_2
REMARK    2  A    between atoms: C_2  and  C_3
REMARK    3  A    between atoms: C_3  and  N_4
REMARK    4  A    between atoms: N_4  and  C_5
REMARK    5  A    between atoms: C_8  and  C_9
REMARK    6  A    between atoms: C_10  and  C_11
REMARK    7  A    between atoms: C_15  and  C_16
REMARK    8  A    between atoms: C_16  and  N_17
REMARK                            x       y       z     vdW  Elec       q    Type
REMARK                         _______ _______ _______ _____ _____    ______ ____
ROOT
ATOM      1  C   UNL     1      44.696   4.611  10.785  0.00  0.00    +0.000 A 
ATOM      2  N   UNL     1      45.654   5.544  10.996  0.00  0.00    +0.000 NA
ATOM      3  C   UNL     1      46.256   5.535  12.210  0.00  0.00    +0.000 A 
ATOM      4  C   UNL     1      45.947   4.618  13.211  0.00  0.00    +0.000 A 
ATOM      5  N   UNL     1      44.987   3.684  13.030  0.00  0.00    +0.000 NA
ATOM      6  C   UNL     1      44.366   3.718  11.824  0.00  0.00    +0.000 A 
ATOM      7 CL   UNL     1      43.178   2.489  11.628  0.00  0.00    +0.000 Cl
ENDROOT
BRANCH   1   8
ATOM      8  N   UNL     1      44.007   4.606   9.550  0.00  0.00    +0.000 N 
ATOM      9  H   UNL     1      43.136   4.086   9.657  0.00  0.00    +0.000 HD
BRANCH   8  10
ATOM     10  C   UNL     1      44.825   4.091   8.454  0.00  0.00    +0.000 C 
BRANCH  10  12
ATOM     11  C   UNL     1      46.166   1.998   8.131  0.00  0.00    +0.000 C 
ATOM     12  C   UNL     1      44.790   2.567   8.449  0.00  0.00    +0.000 C 
ENDBRANCH  10  12
ENDBRANCH   8  10
ENDBRANCH   1   8
BRANCH   4  13
ATOM     13  C   UNL     1      46.652   4.654  14.498  0.00  0.00    +0.000 C 
ATOM     14  C   UNL     1      47.612   5.545  14.797  0.00  0.00    +0.000 C 
BRANCH  14  15
ATOM     15  C   UNL     1      48.395   5.549  16.044  0.00  0.00    +0.000 A 
ATOM     16  C   UNL     1      49.180   6.645  16.427  0.00  0.00    +0.000 A 
ATOM     17  C   UNL     1      49.817   6.662  17.667  0.00  0.00    +0.000 A 
ATOM     18  C   UNL     1      49.664   5.592  18.548  0.00  0.00    +0.000 A 
ATOM     19  C   UNL     1      48.897   4.474  18.189  0.00  0.00    +0.000 A 
ATOM     20  C   UNL     1      48.266   4.470  16.933  0.00  0.00    +0.000 A 
BRANCH  19  21
ATOM     21  C   UNL     1      48.631   3.347  19.158  0.00  0.00    +0.000 C 
BRANCH  21  22
ATOM     22  N   UNL     1      48.443   3.794  20.537  0.00  0.00    +0.000 NA
ATOM     23  H   UNL     1      47.705   4.497  20.552  0.00  0.00    +0.000 HD
ATOM     24  H   UNL     1      49.290   4.261  20.851  0.00  0.00    +0.000 HD
ENDBRANCH  21  22
ENDBRANCH  19  21
ENDBRANCH  14  15
ENDBRANCH   4  13
TORSDOF 7
ENDMDL
MODEL 3
REMARK VINA RESULT:    -5.861      1.616      1.807
REMARK INTER + INTRA:          -8.621
REMARK INTER:                  -8.149
REMARK INTRA:                  -0.472
REMARK UNBOUND:                -0.532
REMARK  Name = 
REMARK  8 active torsions:
REMARK  status: ('A' for Active; 'I' for Inactive)
REMARK    1  A    between atoms: C_1  and  C_2
REMARK    2  A    between atoms: C_2  and  C_3
REMARK    3  A    between atoms: C_3  and  N_4
REMARK    4  A    between atoms: N_4  and  C_5
REMARK    5  A    between atoms: C_8  and  C_9
REMARK    6  A    between atoms: C_10  and  C_11
REMARK    7  A    between atoms: C_15  and  C_16
REMARK    8  A    between atoms: C_16  and  N_17
REMARK                            x       y       z     vdW  Elec       q    Type
REMARK                         _______ _______ _______ _____ _____    ______ ____
ROOT
ATOM      1  C   UNL     1      44.682   4.807  11.152  0.00  0.00    +0.000 A 
ATOM      2  N   UNL     1      45.086   3.646  11.719  0.00  0.00    +0.000 NA
ATOM      3  C   UNL     1      45.831   3.745  12.846  0.00  0.00    +0.000 A 
ATOM      4  C   UNL     1      46.173   4.959  13.434  0.00  0.00    +0.000 A 
ATOM      5  N   UNL     1      45.794   6.133  12.882  0.00  0.00    +0.000 NA
ATOM      6  C   UNL     1      45.073   6.028  11.737  0.00  0.00    +0.000 A 
ATOM      7 CL   UNL     1      44.583   7.547  11.092  0.00  0.00    +0.000 Cl
ENDROOT
BRANCH   1   8
ATOM      8  N   UNL     1      43.939   4.759   9.951  0.00  0.00    +0.000 N 
ATOM      9  H   UNL     1      42.963   4.559  10.170  0.00  0.00    +0.000 HD
BRANCH   8  10
ATOM     10  C   UNL     1      44.492   3.809   8.987  0.00  0.00    +0.000 C 
BRANCH  10  12
ATOM     11  C   UNL     1      46.196   3.515   7.172  0.00  0.00    +0.000 C 
ATOM     12  C   UNL     1      45.717   4.410   8.305  0.00  0.00    +0.000 C 
ENDBRANCH  10  12
ENDBRANCH   8  10
ENDBRANCH   1   8
BRANCH   4  13
ATOM     13  C   UNL     1      46.969   4.993  14.666  0.00  0.00    +0.000 C 
ATOM     14  C   UNL     1      47.065   3.960  15.520  0.00  0.00    +0.000 C 
BRANCH  14  15
ATOM     15  C   UNL     1      47.784   3.995  16.804  0.00  0.00    +0.000 A 
ATOM     16  C   UNL     1      48.973   3.282  17.013  0.00  0.00    +0.000 A 
ATOM     17  C   UNL     1      49.687   3.428  18.202  0.00  0.00    +0.000 A 
ATOM     18  C   UNL     1      49.235   4.302  19.189  0.00  0.00    +0.000 A 
ATOM     19  C   UNL     1      48.042   5.019  19.017  0.00  0.00    +0.000 A 
ATOM     20  C   UNL     1      47.330   4.857  17.816  0.00  0.00    +0.000 A 
BRANCH  19  21
ATOM     21  C   UNL     1      47.578   6.046  20.022  0.00  0.00    +0.000 C 
BRANCH  21  22
ATOM     22  N   UNL     1      47.226   5.476  21.320  0.00  0.00    +0.000 NA
ATOM     23  H   UNL     1      47.169   6.232  22.002  0.00  0.00    +0.000 HD
ATOM     24  H   UNL     1      47.980   4.867  21.629  0.00  0.00    +0.000 HD
ENDBRANCH  21  22
ENDBRANCH  19  21
ENDBRANCH  14  15
ENDBRANCH   4  13
TORSDOF 7
ENDMDL
MODEL 4
REMARK VINA RESULT:    -5.824      3.036      8.740
REMARK INTER + INTRA:          -8.569
REMARK INTER:                  -8.089
REMARK INTRA:                  -0.480
REMARK UNBOUND:                -0.532
REMARK  Name = 
REMARK  8 active torsions:
REMARK  status: ('A' for Active; 'I' for Inactive)
REMARK    1  A    between atoms: C_1  and  C_2
REMARK    2  A    between atoms: C_2  and  C_3
REMARK    3  A    between atoms: C_3  and  N_4
REMARK    4  A    between atoms: N_4  and  C_5
REMARK    5  A    between atoms: C_8  and  C_9
REMARK    6  A    between atoms: C_10  and  C_11
REMARK    7  A    between atoms: C_15  and  C_16
REMARK    8  A    between atoms: C_16  and  N_17
REMARK                            x       y       z     vdW  Elec       q    Type
REMARK                         _______ _______ _______ _____ _____    ______ ____
ROOT
ATOM      1  C   UNL     1      49.199   4.213  18.449  0.00  0.00    +0.000 A 
ATOM      2  N   UNL     1      48.062   3.479  18.434  0.00  0.00    +0.000 NA
ATOM      3  C   UNL     1      47.317   3.535  17.303  0.00  0.00    +0.000 A 
ATOM      4  C   UNL     1      47.676   4.282  16.185  0.00  0.00    +0.000 A 
ATOM      5  N   UNL     1      48.800   5.034  16.179  0.00  0.00    +0.000 NA
ATOM      6  C   UNL     1      49.525   4.998  17.325  0.00  0.00    +0.000 A 
ATOM      7 CL   UNL     1      50.964   5.942  17.257  0.00  0.00    +0.000 Cl
ENDROOT
BRANCH   1   8
ATOM      8  N   UNL     1      49.989   4.225  19.622  0.00  0.00    +0.000 N 
ATOM      9  H   UNL     1      49.867   3.339  20.114  0.00  0.00    +0.000 HD
BRANCH   8  10
ATOM     10  C   UNL     1      49.705   5.374  20.479  0.00  0.00    +0.000 C 
BRANCH  10  12
ATOM     11  C   UNL     1      47.491   5.690  21.613  0.00  0.00    +0.000 C 
ATOM     12  C   UNL     1      48.820   4.948  21.646  0.00  0.00    +0.000 C 
ENDBRANCH  10  12
ENDBRANCH   8  10
ENDBRANCH   1   8
BRANCH   4  13
ATOM     13  C   UNL     1      46.830   4.283  14.986  0.00  0.00    +0.000 C 
ATOM     14  C   UNL     1      47.089   5.019  13.891  0.00  0.00    +0.000 C 
BRANCH  14  15
ATOM     15  C   UNL     1      46.213   5.106  12.712  0.00  0.00    +0.000 A 
ATOM     16  C   UNL     1      46.192   6.235  11.881  0.00  0.00    +0.000 A 
ATOM     17  C   UNL     1      45.436   6.239  10.709  0.00  0.00    +0.000 A 
ATOM     18  C   UNL     1      44.705   5.110  10.342  0.00  0.00    +0.000 A 
ATOM     19  C   UNL     1      44.693   3.970  11.159  0.00  0.00    +0.000 A 
ATOM     20  C   UNL     1      45.456   3.983  12.340  0.00  0.00    +0.000 A 
BRANCH  19  21
ATOM     21  C   UNL     1      43.994   2.699  10.741  0.00  0.00    +0.000 C 
BRANCH  21  22
ATOM     22  N   UNL     1      43.078   2.176  11.752  0.00  0.00    +0.000 NA
ATOM     23  H   UNL     1      42.190   1.956  11.302  0.00  0.00    +0.000 HD
ATOM     24  H   UNL     1      42.882   2.907  12.431  0.00  0.00    +0.000 HD
ENDBRANCH  21  22
ENDBRANCH  19  21
ENDBRANCH  14  15
ENDBRANCH   4  13
TORSDOF 7
ENDMDL
MODEL 5
REMARK VINA RESULT:    -5.400      3.197      8.795
REMARK INTER + INTRA:          -7.983
REMARK INTER:                  -7.551
REMARK INTRA:                  -0.432
REMARK UNBOUND:                -0.532
REMARK  Name = 
REMARK  8 active torsions:
REMARK  status: ('A' for Active; 'I' for Inactive)
REMARK    1  A    between atoms: C_1  and  C_2
REMARK    2  A    between atoms: C_2  and  C_3
REMARK    3  A    between atoms: C_3  and  N_4
REMARK    4  A    between atoms: N_4  and  C_5
REMARK    5  A    between atoms: C_8  and  C_9
REMARK    6  A    between atoms: C_10  and  C_11
REMARK    7  A    between atoms: C_15  and  C_16
REMARK    8  A    between atoms: C_16  and  N_17
REMARK                            x       y       z     vdW  Elec       q    Type
REMARK                         _______ _______ _______ _____ _____    ______ ____
ROOT
ATOM      1  C   UNL     1      50.124   4.191  18.309  0.00  0.00    +0.000 A 
ATOM      2  N   UNL     1      49.367   5.314  18.311  0.00  0.00    +0.000 NA
ATOM      3  C   UNL     1      48.371   5.379  17.395  0.00  0.00    +0.000 A 
ATOM      4  C   UNL     1      48.094   4.358  16.490  0.00  0.00    +0.000 A 
ATOM      5  N   UNL     1      48.843   3.233  16.457  0.00  0.00    +0.000 NA
ATOM      6  C   UNL     1      49.858   3.187  17.357  0.00  0.00    +0.000 A 
ATOM      7 CL   UNL     1      50.758   1.721  17.301  0.00  0.00    +0.000 Cl
ENDROOT
BRANCH   1   8
ATOM      8  N   UNL     1      51.203   4.093  19.216  0.00  0.00    +0.000 N 
ATOM      9  H   UNL     1      51.364   3.110  19.436  0.00  0.00    +0.000 HD
BRANCH   8  10
ATOM     10  C   UNL     1      51.002   4.900  20.417  0.00  0.00    +0.000 C 
BRANCH  10  12
ATOM     11  C   UNL     1      52.444   6.937  20.183  0.00  0.00    +0.000 C 
ATOM     12  C   UNL     1      52.312   5.564  20.826  0.00  0.00    +0.000 C 
ENDBRANCH  10  12
ENDBRANCH   8  10
ENDBRANCH   1   8
BRANCH   4  13
ATOM     13  C   UNL     1      46.988   4.488  15.535  0.00  0.00    +0.000 C 
ATOM     14  C   UNL     1      47.147   4.871  14.257  0.00  0.00    +0.000 C 
BRANCH  14  15
ATOM     15  C   UNL     1      46.048   5.095  13.303  0.00  0.00    +0.000 A 
ATOM     16  C   UNL     1      45.605   6.381  12.965  0.00  0.00    +0.000 A 
ATOM     17  C   UNL     1      44.640   6.561  11.975  0.00  0.00    +0.000 A 
ATOM     18  C   UNL     1      44.119   5.461  11.296  0.00  0.00    +0.000 A 
ATOM     19  C   UNL     1      44.532   4.160  11.620  0.00  0.00    +0.000 A 
ATOM     20  C   UNL     1      45.500   3.995  12.625  0.00  0.00    +0.000 A 
BRANCH  19  21
ATOM     21  C   UNL     1      44.062   2.958  10.836  0.00  0.00    +0.000 C 
BRANCH  21  22
ATOM     22  N   UNL     1      43.014   2.194  11.510  0.00  0.00    +0.000 NA
ATOM     23  H   UNL     1      42.846   1.338  10.981  0.00  0.00    +0.000 HD
ATOM     24  H   UNL     1      42.147   2.724  11.480  0.00  0.00    +0.000 HD
ENDBRANCH  21  22
ENDBRANCH  19  21
ENDBRANCH  14  15
ENDBRANCH   4  13
TORSDOF 7
ENDMDL
MODEL 6
REMARK VINA RESULT:    -5.359      2.552      2.723
REMARK INTER + INTRA:          -7.927
REMARK INTER:                  -7.794
REMARK INTRA:                  -0.133
REMARK UNBOUND:                -0.532
REMARK  Name = 
REMARK  8 active torsions:
REMARK  status: ('A' for Active; 'I' for Inactive)
REMARK    1  A    between atoms: C_1  and  C_2
REMARK    2  A    between atoms: C_2  and  C_3
REMARK    3  A    between atoms: C_3  and  N_4
REMARK    4  A    between atoms: N_4  and  C_5
REMARK    5  A    between atoms: C_8  and  C_9
REMARK    6  A    between atoms: C_10  and  C_11
REMARK    7  A    between atoms: C_15  and  C_16
REMARK    8  A    between atoms: C_16  and  N_17
REMARK                            x       y       z     vdW  Elec       q    Type
REMARK                         _______ _______ _______ _____ _____    ______ ____
ROOT
ATOM      1  C   UNL     1      44.666   4.756  10.624  0.00  0.00    +0.000 A 
ATOM      2  N   UNL     1      45.568   5.763  10.686  0.00  0.00    +0.000 NA
ATOM      3  C   UNL     1      46.297   5.859  11.825  0.00  0.00    +0.000 A 
ATOM      4  C   UNL     1      46.169   4.975  12.893  0.00  0.00    +0.000 A 
ATOM      5  N   UNL     1      45.267   3.969  12.862  0.00  0.00    +0.000 NA
ATOM      6  C   UNL     1      44.518   3.898  11.732  0.00  0.00    +0.000 A 
ATOM      7 CL   UNL     1      43.411   2.579  11.725  0.00  0.00    +0.000 Cl
ENDROOT
BRANCH   1   8
ATOM      8  N   UNL     1      43.849   4.640   9.476  0.00  0.00    +0.000 N 
ATOM      9  H   UNL     1      42.901   4.401   9.765  0.00  0.00    +0.000 HD
BRANCH   8  10
ATOM     10  C   UNL     1      44.383   3.689   8.503  0.00  0.00    +0.000 C 
BRANCH  10  12
ATOM     11  C   UNL     1      46.234   3.383   6.839  0.00  0.00    +0.000 C 
ATOM     12  C   UNL     1      45.812   4.069   8.131  0.00  0.00    +0.000 C 
ENDBRANCH  10  12
ENDBRANCH   8  10
ENDBRANCH   1   8
BRANCH   4  13
ATOM     13  C   UNL     1      47.004   5.127  14.090  0.00  0.00    +0.000 C 
ATOM     14  C   UNL     1      47.814   6.177  14.305  0.00  0.00    +0.000 C 
BRANCH  14  15
ATOM     15  C   UNL     1      48.727   6.312  15.452  0.00  0.00    +0.000 A 
ATOM     16  C   UNL     1      48.478   5.686  16.681  0.00  0.00    +0.000 A 
ATOM     17  C   UNL     1      49.419   5.741  17.709  0.00  0.00    +0.000 A 
ATOM     18  C   UNL     1      50.628   6.407  17.517  0.00  0.00    +0.000 A 
ATOM     19  C   UNL     1      50.902   7.056  16.304  0.00  0.00    +0.000 A 
ATOM     20  C   UNL     1      49.941   6.996  15.280  0.00  0.00    +0.000 A 
BRANCH  19  21
ATOM     21  C   UNL     1      52.240   7.699  16.029  0.00  0.00    +0.000 C 
BRANCH  21  22
ATOM     22  N   UNL     1      53.224   6.781  15.460  0.00  0.00    +0.000 NA
ATOM     23  H   UNL     1      53.036   6.682  14.463  0.00  0.00    +0.000 HD
ATOM     24  H   UNL     1      53.092   5.860  15.869  0.00  0.00    +0.000 HD
ENDBRANCH  21  22
ENDBRANCH  19  21
ENDBRANCH  14  15
ENDBRANCH   4  13
TORSDOF 7
ENDMDL
MODEL 7
REMARK VINA RESULT:    -5.333      4.625      8.621
REMARK INTER + INTRA:          -7.892
REMARK INTER:                  -7.482
REMARK INTRA:                  -0.409
REMARK UNBOUND:                -0.532
REMARK  Name = 
REMARK  8 active torsions:
REMARK  status: ('A' for Active; 'I' for Inactive)
REMARK    1  A    between atoms: C_1  and  C_2
REMARK    2  A    between atoms: C_2  and  C_3
REMARK    3  A    between atoms: C_3  and  N_4
REMARK    4  A    between atoms: N_4  and  C_5
REMARK    5  A    between atoms: C_8  and  C_9
REMARK    6  A    between atoms: C_10  and  C_11
REMARK    7  A    between atoms: C_15  and  C_16
REMARK    8  A    between atoms: C_16  and  N_17
REMARK                            x       y       z     vdW  Elec       q    Type
REMARK                         _______ _______ _______ _____ _____    ______ ____
ROOT
ATOM      1  C   UNL     1      46.283   4.694  13.608  0.00  0.00    +0.000 A 
ATOM      2  N   UNL     1      44.946   4.523  13.479  0.00  0.00    +0.000 NA
ATOM      3  C   UNL     1      44.279   5.457  12.757  0.00  0.00    +0.000 A 
ATOM      4  C   UNL     1      44.902   6.542  12.148  0.00  0.00    +0.000 A 
ATOM      5  N   UNL     1      46.233   6.743  12.271  0.00  0.00    +0.000 NA
ATOM      6  C   UNL     1      46.890   5.822  13.020  0.00  0.00    +0.000 A 
ATOM      7 CL   UNL     1      48.586   6.100  13.118  0.00  0.00    +0.000 Cl
ENDROOT
BRANCH   1   8
ATOM      8  N   UNL     1      47.017   3.772  14.387  0.00  0.00    +0.000 N 
ATOM      9  H   UNL     1      46.543   2.869  14.371  0.00  0.00    +0.000 HD
BRANCH   8  10
ATOM     10  C   UNL     1      47.247   4.248  15.750  0.00  0.00    +0.000 C 
BRANCH  10  12
ATOM     11  C   UNL     1      49.064   3.590  17.348  0.00  0.00    +0.000 C 
ATOM     12  C   UNL     1      47.819   3.123  16.606  0.00  0.00    +0.000 C 
ENDBRANCH  10  12
ENDBRANCH   8  10
ENDBRANCH   1   8
BRANCH   4  13
ATOM     13  C   UNL     1      44.121   7.507  11.365  0.00  0.00    +0.000 C 
ATOM     14  C   UNL     1      44.352   8.831  11.369  0.00  0.00    +0.000 C 
BRANCH  14  15
ATOM     15  C   UNL     1      43.530   9.829  10.665  0.00  0.00    +0.000 A 
ATOM     16  C   UNL     1      44.055  10.652   9.660  0.00  0.00    +0.000 A 
ATOM     17  C   UNL     1      43.224  11.506   8.936  0.00  0.00    +0.000 A 
ATOM     18  C   UNL     1      41.854  11.535   9.193  0.00  0.00    +0.000 A 
ATOM     19  C   UNL     1      41.299  10.734  10.201  0.00  0.00    +0.000 A 
ATOM     20  C   UNL     1      42.151   9.883  10.926  0.00  0.00    +0.000 A 
BRANCH  19  21
ATOM     21  C   UNL     1      39.809  10.668  10.436  0.00  0.00    +0.000 C 
BRANCH  21  22
ATOM     22  N   UNL     1      39.413   9.644  11.399  0.00  0.00    +0.000 NA
ATOM     23  H   UNL     1      38.948   8.888  10.896  0.00  0.00    +0.000 HD
ATOM     24  H   UNL     1      38.719  10.035  12.031  0.00  0.00    +0.000 HD
ENDBRANCH  21  22
ENDBRANCH  19  21
ENDBRANCH  14  15
ENDBRANCH   4  13
TORSDOF 7
ENDMDL
MODEL 8
REMARK VINA RESULT:    -5.252      4.777      6.553
REMARK INTER + INTRA:          -7.779
REMARK INTER:                  -7.386
REMARK INTRA:                  -0.393
REMARK UNBOUND:                -0.532
REMARK  Name = 
REMARK  8 active torsions:
REMARK  status: ('A' for Active; 'I' for Inactive)
REMARK    1  A    between atoms: C_1  and  C_2
REMARK    2  A    between atoms: C_2  and  C_3
REMARK    3  A    between atoms: C_3  and  N_4
REMARK    4  A    between atoms: N_4  and  C_5
REMARK    5  A    between atoms: C_8  and  C_9
REMARK    6  A    between atoms: C_10  and  C_11
REMARK    7  A    between atoms: C_15  and  C_16
REMARK    8  A    between atoms: C_16  and  N_17
REMARK                            x       y       z     vdW  Elec       q    Type
REMARK                         _______ _______ _______ _____ _____    ______ ____
ROOT
ATOM      1  C   UNL     1      44.711   6.081  12.820  0.00  0.00    +0.000 A 
ATOM      2  N   UNL     1      45.624   5.263  13.395  0.00  0.00    +0.000 NA
ATOM      3  C   UNL     1      46.927   5.601  13.239  0.00  0.00    +0.000 A 
ATOM      4  C   UNL     1      47.348   6.732  12.545  0.00  0.00    +0.000 A 
ATOM      5  N   UNL     1      46.457   7.558  11.951  0.00  0.00    +0.000 NA
ATOM      6  C   UNL     1      45.156   7.197  12.085  0.00  0.00    +0.000 A 
ATOM      7 CL   UNL     1      44.059   8.298  11.343  0.00  0.00    +0.000 Cl
ENDROOT
BRANCH   1   8
ATOM      8  N   UNL     1      43.340   5.749  12.916  0.00  0.00    +0.000 N 
ATOM      9  H   UNL     1      43.191   5.190  13.757  0.00  0.00    +0.000 HD
BRANCH   8  10
ATOM     10  C   UNL     1      42.839   5.081  11.716  0.00  0.00    +0.000 C 
BRANCH  10  12
ATOM     11  C   UNL     1      44.004   3.206  10.528  0.00  0.00    +0.000 C 
ATOM     12  C   UNL     1      43.196   3.599  11.756  0.00  0.00    +0.000 C 
ENDBRANCH  10  12
ENDBRANCH   8  10
ENDBRANCH   1   8
BRANCH   4  13
ATOM     13  C   UNL     1      48.776   7.047  12.429  0.00  0.00    +0.000 C 
ATOM     14  C   UNL     1      49.278   7.917  11.536  0.00  0.00    +0.000 C 
BRANCH  14  15
ATOM     15  C   UNL     1      50.711   8.185  11.339  0.00  0.00    +0.000 A 
ATOM     16  C   UNL     1      51.372   9.230  11.999  0.00  0.00    +0.000 A 
ATOM     17  C   UNL     1      52.752   9.386  11.878  0.00  0.00    +0.000 A 
ATOM     18  C   UNL     1      53.494   8.489  11.110  0.00  0.00    +0.000 A 
ATOM     19  C   UNL     1      52.861   7.441  10.426  0.00  0.00    +0.000 A 
ATOM     20  C   UNL     1      51.469   7.301  10.553  0.00  0.00    +0.000 A 
BRANCH  19  21
ATOM     21  C   UNL     1      53.647   6.396   9.669  0.00  0.00    +0.000 C 
BRANCH  21  22
ATOM     22  N   UNL     1      53.736   5.115  10.365  0.00  0.00    +0.000 NA
ATOM     23  H   UNL     1      52.863   4.958  10.869  0.00  0.00    +0.000 HD
ATOM     24  H   UNL     1      54.467   5.171  11.070  0.00  0.00    +0.000 HD
ENDBRANCH  21  22
ENDBRANCH  19  21
ENDBRANCH  14  15
ENDBRANCH   4  13
TORSDOF 7
ENDMDL
MODEL 9
REMARK VINA RESULT:    -5.233      3.183      8.614
REMARK INTER + INTRA:          -7.753
REMARK INTER:                  -7.306
REMARK INTRA:                  -0.448
REMARK UNBOUND:                -0.532
REMARK  Name = 
REMARK  8 active torsions:
REMARK  status: ('A' for Active; 'I' for Inactive)
REMARK    1  A    between atoms: C_1  and  C_2
REMARK    2  A    between atoms: C_2  and  C_3
REMARK    3  A    between atoms: C_3  and  N_4
REMARK    4  A    between atoms: N_4  and  C_5
REMARK    5  A    between atoms: C_8  and  C_9
REMARK    6  A    between atoms: C_10  and  C_11
REMARK    7  A    between atoms: C_15  and  C_16
REMARK    8  A    between atoms: C_16  and  N_17
REMARK                            x       y       z     vdW  Elec       q    Type
REMARK                         _______ _______ _______ _____ _____    ______ ____
ROOT
ATOM      1  C   UNL     1      49.856   4.088  18.373  0.00  0.00    +0.000 A 
ATOM      2  N   UNL     1      49.029   5.160  18.350  0.00  0.00    +0.000 NA
ATOM      3  C   UNL     1      48.115   5.204  17.350  0.00  0.00    +0.000 A 
ATOM      4  C   UNL     1      47.988   4.209  16.385  0.00  0.00    +0.000 A 
ATOM      5  N   UNL     1      48.808   3.134  16.377  0.00  0.00    +0.000 NA
ATOM      6  C   UNL     1      49.741   3.112  17.363  0.00  0.00    +0.000 A 
ATOM      7 CL   UNL     1      50.738   1.708  17.332  0.00  0.00    +0.000 Cl
ENDROOT
BRANCH   1   8
ATOM      8  N   UNL     1      50.856   4.017  19.369  0.00  0.00    +0.000 N 
ATOM      9  H   UNL     1      50.420   3.785  20.262  0.00  0.00    +0.000 HD
BRANCH   8  10
ATOM     10  C   UNL     1      51.656   5.237  19.449  0.00  0.00    +0.000 C 
BRANCH  10  12
ATOM     11  C   UNL     1      51.026   4.907  21.853  0.00  0.00    +0.000 C 
ATOM     12  C   UNL     1      52.044   5.513  20.897  0.00  0.00    +0.000 C 
ENDBRANCH  10  12
ENDBRANCH   8  10
ENDBRANCH   1   8
BRANCH   4  13
ATOM     13  C   UNL     1      46.963   4.312  15.340  0.00  0.00    +0.000 C 
ATOM     14  C   UNL     1      47.197   4.808  14.113  0.00  0.00    +0.000 C 
BRANCH  14  15
ATOM     15  C   UNL     1      46.171   5.004  13.077  0.00  0.00    +0.000 A 
ATOM     16  C   UNL     1      45.375   3.951  12.606  0.00  0.00    +0.000 A 
ATOM     17  C   UNL     1      44.336   4.193  11.708  0.00  0.00    +0.000 A 
ATOM     18  C   UNL     1      44.066   5.493  11.282  0.00  0.00    +0.000 A 
ATOM     19  C   UNL     1      44.853   6.567  11.723  0.00  0.00    +0.000 A 
ATOM     20  C   UNL     1      45.900   6.306  12.624  0.00  0.00    +0.000 A 
BRANCH  19  21
ATOM     21  C   UNL     1      44.525   7.995  11.360  0.00  0.00    +0.000 C 
BRANCH  21  22
ATOM     22  N   UNL     1      43.136   8.190  10.951  0.00  0.00    +0.000 NA
ATOM     23  H   UNL     1      43.089   8.148   9.933  0.00  0.00    +0.000 HD
ATOM     24  H   UNL     1      42.843   9.129  11.211  0.00  0.00    +0.000 HD
ENDBRANCH  21  22
ENDBRANCH  19  21
ENDBRANCH  14  15
ENDBRANCH   4  13
TORSDOF 7
ENDMDL
