MODEL 1
REMARK VINA RESULT:    -7.784      0.000      0.000
REMARK INTER + INTRA:         -12.411
REMARK INTER:                 -11.424
REMARK INTRA:                  -0.987
REMARK UNBOUND:                -0.987
REMARK  Name = 
REMARK  9 active torsions:
REMARK  status: ('A' for Active; 'I' for Inactive)
REMARK    1  A    between atoms: C_1  and  C_2
REMARK    2  A    between atoms: C_2  and  N_3
REMARK    3  A    between atoms: C_2  and  C_20
REMARK    4  A    between atoms: N_3  and  C_4
REMARK    5  A    between atoms: C_4  and  C_5
REMARK    6  A    between atoms: C_9  and  C_10
REMARK    7  A    between atoms: C_10  and  C_11
REMARK    8  A    between atoms: C_11  and  O_12
REMARK    9  A    between atoms: O_12  and  C_13
REMARK                            x       y       z     vdW  Elec       q    Type
REMARK                         _______ _______ _______ _____ _____    ______ ____
ROOT
ATOM      1  C   UNL     1      47.048   4.946  15.096  0.00  0.00    +0.000 C 
ENDROOT
BRANCH   1   2
ATOM      2  C   UNL     1      46.571   5.369  13.723  0.00  0.00    +0.000 A 
ATOM      3  C   UNL     1      47.285   6.301  12.962  0.00  0.00    +0.000 A 
ATOM      4  C   UNL     1      46.917   6.554  11.640  0.00  0.00    +0.000 A 
ATOM      5  C   UNL     1      45.826   5.890  11.071  0.00  0.00    +0.000 A 
ATOM      6  C   UNL     1      45.061   4.991  11.828  0.00  0.00    +0.000 A 
ATOM      7  C   UNL     1      45.436   4.763  13.163  0.00  0.00    +0.000 A 
BRANCH   6   8
ATOM      8  C   UNL     1      43.911   4.261  11.161  0.00  0.00    +0.000 C 
BRANCH   8   9
ATOM      9  C   UNL     1      44.147   3.890   9.694  0.00  0.00    +0.000 C 
BRANCH   9  10
ATOM     10  O   UNL     1      44.585   2.537   9.579  0.00  0.00    +0.000 OA
BRANCH  10  11
ATOM     11  C   UNL     1      45.551   2.423   8.592  0.00  0.00    +0.000 A 
ATOM     12  N   UNL     1      45.869   3.564   7.971  0.00  0.00    +0.000 NA
ATOM     13  C   UNL     1      46.803   3.464   7.005  0.00  0.00    +0.000 A 
ATOM     14  C   UNL     1      47.424   2.286   6.661  0.00  0.00    +0.000 A 
ATOM     15  C   UNL     1      47.032   1.182   7.373  0.00  0.00    +0.000 A 
ATOM     16  N   UNL     1      46.096   1.221   8.342  0.00  0.00    +0.000 NA
ENDBRANCH  10  11
ENDBRANCH   9  10
ENDBRANCH   8   9
ENDBRANCH   6   8
ENDBRANCH   1   2
BRANCH   1  17
ATOM     17  N   UNL     1      48.429   5.327  15.334  0.00  0.00    +0.000 NA
ATOM     18  H   UNL     1      48.755   5.926  14.579  0.00  0.00    +0.000 HD
BRANCH  17  20
ATOM     19  C   UNL     1      48.744   7.500  16.598  0.00  0.00    +0.000 C 
ATOM     20  C   UNL     1      48.671   5.970  16.624  0.00  0.00    +0.000 C 
BRANCH  20  21
ATOM     21  C   UNL     1      49.770   5.299  17.428  0.00  0.00    +0.000 A 
ATOM     22  C   UNL     1      50.708   6.026  18.152  0.00  0.00    +0.000 A 
ATOM     23  S   UNL     1      52.099   5.111  18.539  0.00  0.00    +0.000 S 
ATOM     24  C   UNL     1      51.423   3.701  17.867  0.00  0.00    +0.000 A 
ATOM     25  N   UNL     1      52.145   2.555  17.752  0.00  0.00    +0.000 NA
ATOM     26  C   UNL     1      51.472   1.547  17.305  0.00  0.00    +0.000 A 
ATOM     27  N   UNL     1      50.132   1.568  17.013  0.00  0.00    +0.000 N 
ATOM     28  C   UNL     1      49.355   2.693  17.166  0.00  0.00    +0.000 A 
ATOM     29  O   UNL     1      48.132   2.626  17.084  0.00  0.00    +0.000 OA
ATOM     30  C   UNL     1      50.100   3.892  17.505  0.00  0.00    +0.000 A 
ATOM     31  H   UNL     1      49.640   0.718  16.788  0.00  0.00    +0.000 HD
ENDBRANCH  20  21
ENDBRANCH  17  20
ENDBRANCH   1  17
TORSDOF 8
ENDMDL
MODEL 2
REMARK VINA RESULT:    -7.685      1.460      1.952
REMARK INTER + INTRA:         -12.267
REMARK INTER:                 -11.085
REMARK INTRA:                  -1.182
REMARK UNBOUND:                -0.987
REMARK  Name = 
REMARK  9 active torsions:
REMARK  status: ('A' for Active; 'I' for Inactive)
REMARK    1  A    between atoms: C_1  and  C_2
REMARK    2  A    between atoms: C_2  and  N_3
REMARK    3  A    between atoms: C_2  and  C_20
REMARK    4  A    between atoms: N_3  and  C_4
REMARK    5  A    between atoms: C_4  and  C_5
REMARK    6  A    between atoms: C_9  and  C_10
REMARK    7  A    between atoms: C_10  and  C_11
REMARK    8  A    between atoms: C_11  and  O_12
REMARK    9  A    between atoms: O_12  and  C_13
REMARK                            x       y       z     vdW  Elec       q    Type
REMARK                         _______ _______ _______ _____ _____    ______ ____
ROOT
ATOM      1  C   UNL     1      48.685   7.124  12.498  0.00  0.00    +0.000 C 
ENDROOT
BRANCH   1   2
ATOM      2  C   UNL     1      47.205   6.918  12.255  0.00  0.00    +0.000 A 
ATOM      3  C   UNL     1      46.344   8.003  12.063  0.00  0.00    +0.000 A 
ATOM      4  C   UNL     1      45.018   7.786  11.682  0.00  0.00    +0.000 A 
ATOM      5  C   UNL     1      44.540   6.485  11.502  0.00  0.00    +0.000 A 
ATOM      6  C   UNL     1      45.368   5.378  11.739  0.00  0.00    +0.000 A 
ATOM      7  C   UNL     1      46.693   5.617  12.141  0.00  0.00    +0.000 A 
BRANCH   6   8
ATOM      8  C   UNL     1      44.821   3.986  11.492  0.00  0.00    +0.000 C 
BRANCH   8   9
ATOM      9  C   UNL     1      44.214   3.767  10.104  0.00  0.00    +0.000 C 
BRANCH   9  10
ATOM     10  O   UNL     1      44.438   2.430   9.659  0.00  0.00    +0.000 OA
BRANCH  10  11
ATOM     11  C   UNL     1      45.417   2.402   8.678  0.00  0.00    +0.000 A 
ATOM     12  N   UNL     1      45.654   3.573   8.076  0.00  0.00    +0.000 NA
ATOM     13  C   UNL     1      46.600   3.557   7.117  0.00  0.00    +0.000 A 
ATOM     14  C   UNL     1      47.308   2.433   6.761  0.00  0.00    +0.000 A 
ATOM     15  C   UNL     1      46.994   1.293   7.454  0.00  0.00    +0.000 A 
ATOM     16  N   UNL     1      46.051   1.248   8.415  0.00  0.00    +0.000 NA
ENDBRANCH  10  11
ENDBRANCH   9  10
ENDBRANCH   8   9
ENDBRANCH   6   8
ENDBRANCH   1   2
BRANCH   1  17
ATOM     17  N   UNL     1      49.108   6.575  13.775  0.00  0.00    +0.000 NA
ATOM     18  H   UNL     1      50.120   6.643  13.858  0.00  0.00    +0.000 HD
BRANCH  17  20
ATOM     19  C   UNL     1      48.607   8.701  15.060  0.00  0.00    +0.000 C 
ATOM     20  C   UNL     1      48.468   7.180  14.941  0.00  0.00    +0.000 C 
BRANCH  20  21
ATOM     21  C   UNL     1      48.735   6.420  16.229  0.00  0.00    +0.000 A 
ATOM     22  C   UNL     1      49.445   6.978  17.285  0.00  0.00    +0.000 A 
ATOM     23  S   UNL     1      50.041   5.803  18.375  0.00  0.00    +0.000 S 
ATOM     24  C   UNL     1      49.256   4.549  17.535  0.00  0.00    +0.000 A 
ATOM     25  N   UNL     1      49.449   3.245  17.867  0.00  0.00    +0.000 NA
ATOM     26  C   UNL     1      48.720   2.414  17.199  0.00  0.00    +0.000 A 
ATOM     27  N   UNL     1      47.779   2.772  16.267  0.00  0.00    +0.000 N 
ATOM     28  C   UNL     1      47.515   4.082  15.940  0.00  0.00    +0.000 A 
ATOM     29  O   UNL     1      46.541   4.374  15.254  0.00  0.00    +0.000 OA
ATOM     30  C   UNL     1      48.426   5.041  16.542  0.00  0.00    +0.000 A 
ATOM     31  H   UNL     1      47.156   2.084  15.872  0.00  0.00    +0.000 HD
ENDBRANCH  20  21
ENDBRANCH  17  20
ENDBRANCH   1  17
TORSDOF 8
ENDMDL
MODEL 3
REMARK VINA RESULT:    -7.676      2.293      3.239
REMARK INTER + INTRA:         -12.254
REMARK INTER:                 -11.255
REMARK INTRA:                  -0.998
REMARK UNBOUND:                -0.987
REMARK  Name = 
REMARK  9 active torsions:
REMARK  status: ('A' for Active; 'I' for Inactive)
REMARK    1  A    between atoms: C_1  and  C_2
REMARK    2  A    between atoms: C_2  and  N_3
REMARK    3  A    between atoms: C_2  and  C_20
REMARK    4  A    between atoms: N_3  and  C_4
REMARK    5  A    between atoms: C_4  and  C_5
REMARK    6  A    between atoms: C_9  and  C_10
REMARK    7  A    between atoms: C_10  and  C_11
REMARK    8  A    between atoms: C_11  and  O_12
REMARK    9  A    between atoms: O_12  and  C_13
REMARK                            x       y       z     vdW  Elec       q    Type
REMARK                         _______ _______ _______ _____ _____    ______ ____
ROOT
ATOM      1  C   UNL     1      47.019   3.992  14.417  0.00  0.00    +0.000 C 
ENDROOT
BRANCH   1   2
ATOM      2  C   UNL     1      46.484   4.834  13.279  0.00  0.00    +0.000 A 
ATOM      3  C   UNL     1      47.122   6.015  12.887  0.00  0.00    +0.000 A 
ATOM      4  C   UNL     1      46.706   6.687  11.737  0.00  0.00    +0.000 A 
ATOM      5  C   UNL     1      45.643   6.193  10.976  0.00  0.00    +0.000 A 
ATOM      6  C   UNL     1      44.951   5.040  11.376  0.00  0.00    +0.000 A 
ATOM      7  C   UNL     1      45.372   4.388  12.547  0.00  0.00    +0.000 A 
BRANCH   6   8
ATOM      8  C   UNL     1      43.830   4.515  10.500  0.00  0.00    +0.000 C 
BRANCH   8   9
ATOM      9  C   UNL     1      44.257   4.082   9.095  0.00  0.00    +0.000 C 
BRANCH   9  10
ATOM     10  O   UNL     1      44.525   2.681   9.058  0.00  0.00    +0.000 OA
BRANCH  10  11
ATOM     11  C   UNL     1      45.542   2.406   8.157  0.00  0.00    +0.000 A 
ATOM     12  N   UNL     1      45.760   3.351   7.236  0.00  0.00    +0.000 NA
ATOM     13  C   UNL     1      46.741   3.092   6.352  0.00  0.00    +0.000 A 
ATOM     14  C   UNL     1      47.503   1.947   6.369  0.00  0.00    +0.000 A 
ATOM     15  C   UNL     1      47.204   1.054   7.365  0.00  0.00    +0.000 A 
ATOM     16  N   UNL     1      46.227   1.256   8.270  0.00  0.00    +0.000 NA
ENDBRANCH  10  11
ENDBRANCH   9  10
ENDBRANCH   8   9
ENDBRANCH   6   8
ENDBRANCH   1   2
BRANCH   1  17
ATOM     17  N   UNL     1      46.929   4.680  15.693  0.00  0.00    +0.000 NA
ATOM     18  H   UNL     1      45.970   4.649  16.033  0.00  0.00    +0.000 HD
BRANCH  17  20
ATOM     19  C   UNL     1      47.393   2.908  17.444  0.00  0.00    +0.000 C 
ATOM     20  C   UNL     1      47.841   4.182  16.721  0.00  0.00    +0.000 C 
BRANCH  20  21
ATOM     21  C   UNL     1      48.363   5.276  17.636  0.00  0.00    +0.000 A 
ATOM     22  C   UNL     1      48.359   5.150  19.020  0.00  0.00    +0.000 A 
ATOM     23  S   UNL     1      48.508   6.652  19.821  0.00  0.00    +0.000 S 
ATOM     24  C   UNL     1      48.712   7.478  18.348  0.00  0.00    +0.000 A 
ATOM     25  N   UNL     1      48.770   8.835  18.299  0.00  0.00    +0.000 NA
ATOM     26  C   UNL     1      49.015   9.313  17.124  0.00  0.00    +0.000 A 
ATOM     27  N   UNL     1      49.259   8.557  16.006  0.00  0.00    +0.000 N 
ATOM     28  C   UNL     1      49.263   7.182  16.024  0.00  0.00    +0.000 A 
ATOM     29  O   UNL     1      49.674   6.542  15.061  0.00  0.00    +0.000 OA
ATOM     30  C   UNL     1      48.827   6.601  17.282  0.00  0.00    +0.000 A 
ATOM     31  H   UNL     1      49.568   8.988  15.148  0.00  0.00    +0.000 HD
ENDBRANCH  20  21
ENDBRANCH  17  20
ENDBRANCH   1  17
TORSDOF 8
ENDMDL
MODEL 4
REMARK VINA RESULT:    -7.642      1.530      2.308
REMARK INTER + INTRA:         -12.203
REMARK INTER:                 -11.128
REMARK INTRA:                  -1.075
REMARK UNBOUND:                -0.987
REMARK  Name = 
REMARK  9 active torsions:
REMARK  status: ('A' for Active; 'I' for Inactive)
REMARK    1  A    between atoms: C_1  and  C_2
REMARK    2  A    between atoms: C_2  and  N_3
REMARK    3  A    between atoms: C_2  and  C_20
REMARK    4  A    between atoms: N_3  and  C_4
REMARK    5  A    between atoms: C_4  and  C_5
REMARK    6  A    between atoms: C_9  and  C_10
REMARK    7  A    between atoms: C_10  and  C_11
REMARK    8  A    between atoms: C_11  and  O_12
REMARK    9  A    between atoms: O_12  and  C_13
REMARK                            x       y       z     vdW  Elec       q    Type
REMARK                         _______ _______ _______ _____ _____    ______ ____
ROOT
ATOM      1  C   UNL     1      46.996   4.228  15.566  0.00  0.00    +0.000 C 
ENDROOT
BRANCH   1   2
ATOM      2  C   UNL     1      46.804   4.984  14.268  0.00  0.00    +0.000 A 
ATOM      3  C   UNL     1      47.663   6.023  13.900  0.00  0.00    +0.000 A 
ATOM      4  C   UNL     1      47.566   6.596  12.630  0.00  0.00    +0.000 A 
ATOM      5  C   UNL     1      46.603   6.143  11.724  0.00  0.00    +0.000 A 
ATOM      6  C   UNL     1      45.694   5.138  12.088  0.00  0.00    +0.000 A 
ATOM      7  C   UNL     1      45.795   4.588  13.377  0.00  0.00    +0.000 A 
BRANCH   6   8
ATOM      8  C   UNL     1      44.691   4.648  11.061  0.00  0.00    +0.000 C 
BRANCH   8   9
ATOM      9  C   UNL     1      44.794   3.160  10.717  0.00  0.00    +0.000 C 
BRANCH   9  10
ATOM     10  O   UNL     1      44.279   2.906   9.411  0.00  0.00    +0.000 OA
BRANCH  10  11
ATOM     11  C   UNL     1      45.314   2.688   8.515  0.00  0.00    +0.000 A 
ATOM     12  N   UNL     1      45.631   3.734   7.744  0.00  0.00    +0.000 NA
ATOM     13  C   UNL     1      46.632   3.532   6.866  0.00  0.00    +0.000 A 
ATOM     14  C   UNL     1      47.319   2.346   6.749  0.00  0.00    +0.000 A 
ATOM     15  C   UNL     1      46.921   1.347   7.600  0.00  0.00    +0.000 A 
ATOM     16  N   UNL     1      45.920   1.490   8.490  0.00  0.00    +0.000 NA
ENDBRANCH  10  11
ENDBRANCH   9  10
ENDBRANCH   8   9
ENDBRANCH   6   8
ENDBRANCH   1   2
BRANCH   1  17
ATOM     17  N   UNL     1      48.071   3.256  15.477  0.00  0.00    +0.000 NA
ATOM     18  H   UNL     1      48.889   3.688  15.053  0.00  0.00    +0.000 HD
BRANCH  17  20
ATOM     19  C   UNL     1      47.574   3.023  17.951  0.00  0.00    +0.000 C 
ATOM     20  C   UNL     1      48.436   2.631  16.746  0.00  0.00    +0.000 C 
BRANCH  20  21
ATOM     21  C   UNL     1      49.932   2.646  17.010  0.00  0.00    +0.000 A 
ATOM     22  C   UNL     1      50.698   1.487  17.001  0.00  0.00    +0.000 A 
ATOM     23  S   UNL     1      52.196   1.678  17.802  0.00  0.00    +0.000 S 
ATOM     24  C   UNL     1      51.907   3.335  18.059  0.00  0.00    +0.000 A 
ATOM     25  N   UNL     1      52.750   4.092  18.810  0.00  0.00    +0.000 NA
ATOM     26  C   UNL     1      52.448   5.348  18.843  0.00  0.00    +0.000 A 
ATOM     27  N   UNL     1      51.413   5.922  18.151  0.00  0.00    +0.000 N 
ATOM     28  C   UNL     1      50.570   5.200  17.338  0.00  0.00    +0.000 A 
ATOM     29  O   UNL     1      49.783   5.769  16.586  0.00  0.00    +0.000 OA
ATOM     30  C   UNL     1      50.766   3.762  17.402  0.00  0.00    +0.000 A 
ATOM     31  H   UNL     1      51.306   6.924  18.118  0.00  0.00    +0.000 HD
ENDBRANCH  20  21
ENDBRANCH  17  20
ENDBRANCH   1  17
TORSDOF 8
ENDMDL
MODEL 5
REMARK VINA RESULT:    -7.517      2.092      2.587
REMARK INTER + INTRA:         -12.019
REMARK INTER:                 -10.806
REMARK INTRA:                  -1.213
REMARK UNBOUND:                -0.987
REMARK  Name = 
REMARK  9 active torsions:
REMARK  status: ('A' for Active; 'I' for Inactive)
REMARK    1  A    between atoms: C_1  and  C_2
REMARK    2  A    between atoms: C_2  and  N_3
REMARK    3  A    between atoms: C_2  and  C_20
REMARK    4  A    between atoms: N_3  and  C_4
REMARK    5  A    between atoms: C_4  and  C_5
REMARK    6  A    between atoms: C_9  and  C_10
REMARK    7  A    between atoms: C_10  and  C_11
REMARK    8  A    between atoms: C_11  and  O_12
REMARK    9  A    between atoms: O_12  and  C_13
REMARK                            x       y       z     vdW  Elec       q    Type
REMARK                         _______ _______ _______ _____ _____    ______ ____
ROOT
ATOM      1  C   UNL     1      47.963   5.836  14.899  0.00  0.00    +0.000 C 
ENDROOT
BRANCH   1   2
ATOM      2  C   UNL     1      47.140   5.849  13.628  0.00  0.00    +0.000 A 
ATOM      3  C   UNL     1      47.308   6.849  12.665  0.00  0.00    +0.000 A 
ATOM      4  C   UNL     1      46.657   6.752  11.434  0.00  0.00    +0.000 A 
ATOM      5  C   UNL     1      45.825   5.663  11.160  0.00  0.00    +0.000 A 
ATOM      6  C   UNL     1      45.598   4.673  12.128  0.00  0.00    +0.000 A 
ATOM      7  C   UNL     1      46.247   4.799  13.368  0.00  0.00    +0.000 A 
BRANCH   6   8
ATOM      8  C   UNL     1      44.720   3.488  11.775  0.00  0.00    +0.000 C 
BRANCH   8   9
ATOM      9  C   UNL     1      44.236   3.452  10.323  0.00  0.00    +0.000 C 
BRANCH   9  10
ATOM     10  O   UNL     1      44.470   2.169   9.744  0.00  0.00    +0.000 OA
BRANCH  10  11
ATOM     11  C   UNL     1      45.420   2.258   8.738  0.00  0.00    +0.000 A 
ATOM     12  N   UNL     1      45.590   3.479   8.220  0.00  0.00    +0.000 NA
ATOM     13  C   UNL     1      46.506   3.575   7.237  0.00  0.00    +0.000 A 
ATOM     14  C   UNL     1      47.249   2.514   6.777  0.00  0.00    +0.000 A 
ATOM     15  C   UNL     1      47.004   1.312   7.391  0.00  0.00    +0.000 A 
ATOM     16  N   UNL     1      46.093   1.155   8.371  0.00  0.00    +0.000 NA
ENDBRANCH  10  11
ENDBRANCH   9  10
ENDBRANCH   8   9
ENDBRANCH   6   8
ENDBRANCH   1   2
BRANCH   1  17
ATOM     17  N   UNL     1      47.375   4.987  15.920  0.00  0.00    +0.000 NA
ATOM     18  H   UNL     1      46.600   4.460  15.522  0.00  0.00    +0.000 HD
BRANCH  17  20
ATOM     19  C   UNL     1      47.758   2.701  16.945  0.00  0.00    +0.000 C 
ATOM     20  C   UNL     1      48.315   4.079  16.574  0.00  0.00    +0.000 C 
BRANCH  20  21
ATOM     21  C   UNL     1      49.125   4.747  17.671  0.00  0.00    +0.000 A 
ATOM     22  C   UNL     1      50.496   4.949  17.563  0.00  0.00    +0.000 A 
ATOM     23  S   UNL     1      51.243   5.237  19.073  0.00  0.00    +0.000 S 
ATOM     24  C   UNL     1      49.743   5.230  19.876  0.00  0.00    +0.000 A 
ATOM     25  N   UNL     1      49.665   5.299  21.232  0.00  0.00    +0.000 NA
ATOM     26  C   UNL     1      48.460   5.371  21.690  0.00  0.00    +0.000 A 
ATOM     27  N   UNL     1      47.330   5.435  20.916  0.00  0.00    +0.000 N 
ATOM     28  C   UNL     1      47.368   5.422  19.541  0.00  0.00    +0.000 A 
ATOM     29  O   UNL     1      46.364   5.676  18.882  0.00  0.00    +0.000 OA
ATOM     30  C   UNL     1      48.686   5.172  18.983  0.00  0.00    +0.000 A 
ATOM     31  H   UNL     1      46.429   5.617  21.331  0.00  0.00    +0.000 HD
ENDBRANCH  20  21
ENDBRANCH  17  20
ENDBRANCH   1  17
TORSDOF 8
ENDMDL
MODEL 6
REMARK VINA RESULT:    -7.154      1.667      2.344
REMARK INTER + INTRA:         -11.487
REMARK INTER:                 -10.135
REMARK INTRA:                  -1.351
REMARK UNBOUND:                -0.987
REMARK  Name = 
REMARK  9 active torsions:
REMARK  status: ('A' for Active; 'I' for Inactive)
REMARK    1  A    between atoms: C_1  and  C_2
REMARK    2  A    between atoms: C_2  and  N_3
REMARK    3  A    between atoms: C_2  and  C_20
REMARK    4  A    between atoms: N_3  and  C_4
REMARK    5  A    between atoms: C_4  and  C_5
REMARK    6  A    between atoms: C_9  and  C_10
REMARK    7  A    between atoms: C_10  and  C_11
REMARK    8  A    between atoms: C_11  and  O_12
REMARK    9  A    between atoms: O_12  and  C_13
REMARK                            x       y       z     vdW  Elec       q    Type
REMARK                         _______ _______ _______ _____ _____    ______ ____
ROOT
ATOM      1  C   UNL     1      48.611   7.228  14.581  0.00  0.00    +0.000 C 
ENDROOT
BRANCH   1   2
ATOM      2  C   UNL     1      47.707   6.187  13.956  0.00  0.00    +0.000 A 
ATOM      3  C   UNL     1      47.523   4.935  14.549  0.00  0.00    +0.000 A 
ATOM      4  C   UNL     1      46.564   4.054  14.044  0.00  0.00    +0.000 A 
ATOM      5  C   UNL     1      45.792   4.413  12.935  0.00  0.00    +0.000 A 
ATOM      6  C   UNL     1      45.994   5.641  12.289  0.00  0.00    +0.000 A 
ATOM      7  C   UNL     1      46.976   6.505  12.801  0.00  0.00    +0.000 A 
BRANCH   6   8
ATOM      8  C   UNL     1      45.106   6.007  11.115  0.00  0.00    +0.000 C 
BRANCH   8   9
ATOM      9  C   UNL     1      43.907   5.081  10.898  0.00  0.00    +0.000 C 
BRANCH   9  10
ATOM     10  O   UNL     1      43.670   4.879   9.506  0.00  0.00    +0.000 OA
BRANCH  10  11
ATOM     11  C   UNL     1      44.554   3.942   8.994  0.00  0.00    +0.000 A 
ATOM     12  N   UNL     1      45.377   4.394   8.043  0.00  0.00    +0.000 NA
ATOM     13  C   UNL     1      46.237   3.490   7.534  0.00  0.00    +0.000 A 
ATOM     14  C   UNL     1      46.305   2.182   7.950  0.00  0.00    +0.000 A 
ATOM     15  C   UNL     1      45.425   1.831   8.941  0.00  0.00    +0.000 A 
ATOM     16  N   UNL     1      44.537   2.689   9.479  0.00  0.00    +0.000 NA
ENDBRANCH  10  11
ENDBRANCH   9  10
ENDBRANCH   8   9
ENDBRANCH   6   8
ENDBRANCH   1   2
BRANCH   1  17
ATOM     17  N   UNL     1      48.115   7.675  15.872  0.00  0.00    +0.000 NA
ATOM     18  H   UNL     1      47.387   7.043  16.196  0.00  0.00    +0.000 HD
BRANCH  17  20
ATOM     19  C   UNL     1      50.205   8.894  16.625  0.00  0.00    +0.000 C 
ATOM     20  C   UNL     1      49.142   7.826  16.900  0.00  0.00    +0.000 C 
BRANCH  20  21
ATOM     21  C   UNL     1      49.694   6.499  17.391  0.00  0.00    +0.000 A 
ATOM     22  C   UNL     1      51.055   6.218  17.395  0.00  0.00    +0.000 A 
ATOM     23  S   UNL     1      51.385   4.544  17.500  0.00  0.00    +0.000 S 
ATOM     24  C   UNL     1      49.732   4.175  17.672  0.00  0.00    +0.000 A 
ATOM     25  N   UNL     1      49.291   2.890  17.687  0.00  0.00    +0.000 NA
ATOM     26  C   UNL     1      48.026   2.766  17.913  0.00  0.00    +0.000 A 
ATOM     27  N   UNL     1      47.172   3.807  18.177  0.00  0.00    +0.000 N 
ATOM     28  C   UNL     1      47.588   5.117  18.224  0.00  0.00    +0.000 A 
ATOM     29  O   UNL     1      46.847   5.996  18.652  0.00  0.00    +0.000 OA
ATOM     30  C   UNL     1      48.966   5.320  17.811  0.00  0.00    +0.000 A 
ATOM     31  H   UNL     1      46.222   3.634  18.469  0.00  0.00    +0.000 HD
ENDBRANCH  20  21
ENDBRANCH  17  20
ENDBRANCH   1  17
TORSDOF 8
ENDMDL
MODEL 7
REMARK VINA RESULT:    -7.101      2.089      2.946
REMARK INTER + INTRA:         -11.408
REMARK INTER:                 -10.651
REMARK INTRA:                  -0.758
REMARK UNBOUND:                -0.987
REMARK  Name = 
REMARK  9 active torsions:
REMARK  status: ('A' for Active; 'I' for Inactive)
REMARK    1  A    between atoms: C_1  and  C_2
REMARK    2  A    between atoms: C_2  and  N_3
REMARK    3  A    between atoms: C_2  and  C_20
REMARK    4  A    between atoms: N_3  and  C_4
REMARK    5  A    between atoms: C_4  and  C_5
REMARK    6  A    between atoms: C_9  and  C_10
REMARK    7  A    between atoms: C_10  and  C_11
REMARK    8  A    between atoms: C_11  and  O_12
REMARK    9  A    between atoms: O_12  and  C_13
REMARK                            x       y       z     vdW  Elec       q    Type
REMARK                         _______ _______ _______ _____ _____    ______ ____
ROOT
ATOM      1  C   UNL     1      46.996   4.326  15.018  0.00  0.00    +0.000 C 
ENDROOT
BRANCH   1   2
ATOM      2  C   UNL     1      46.693   5.076  13.738  0.00  0.00    +0.000 A 
ATOM      3  C   UNL     1      47.421   6.213  13.374  0.00  0.00    +0.000 A 
ATOM      4  C   UNL     1      47.233   6.792  12.117  0.00  0.00    +0.000 A 
ATOM      5  C   UNL     1      46.310   6.247  11.220  0.00  0.00    +0.000 A 
ATOM      6  C   UNL     1      45.529   5.139  11.581  0.00  0.00    +0.000 A 
ATOM      7  C   UNL     1      45.719   4.583  12.857  0.00  0.00    +0.000 A 
BRANCH   6   8
ATOM      8  C   UNL     1      44.569   4.554  10.563  0.00  0.00    +0.000 C 
BRANCH   8   9
ATOM      9  C   UNL     1      44.695   3.044  10.350  0.00  0.00    +0.000 C 
BRANCH   9  10
ATOM     10  O   UNL     1      44.344   2.691   9.012  0.00  0.00    +0.000 OA
BRANCH  10  11
ATOM     11  C   UNL     1      45.481   2.398   8.275  0.00  0.00    +0.000 A 
ATOM     12  N   UNL     1      45.903   1.132   8.355  0.00  0.00    +0.000 NA
ATOM     13  C   UNL     1      47.010   0.837   7.648  0.00  0.00    +0.000 A 
ATOM     14  C   UNL     1      47.684   1.747   6.868  0.00  0.00    +0.000 A 
ATOM     15  C   UNL     1      47.155   3.012   6.847  0.00  0.00    +0.000 A 
ATOM     16  N   UNL     1      46.057   3.366   7.542  0.00  0.00    +0.000 NA
ENDBRANCH  10  11
ENDBRANCH   9  10
ENDBRANCH   8   9
ENDBRANCH   6   8
ENDBRANCH   1   2
BRANCH   1  17
ATOM     17  N   UNL     1      47.845   5.095  15.911  0.00  0.00    +0.000 NA
ATOM     18  H   UNL     1      47.382   5.967  16.159  0.00  0.00    +0.000 HD
BRANCH  17  20
ATOM     19  C   UNL     1      47.539   3.060  17.390  0.00  0.00    +0.000 C 
ATOM     20  C   UNL     1      48.257   4.386  17.121  0.00  0.00    +0.000 C 
BRANCH  20  21
ATOM     21  C   UNL     1      48.378   5.294  18.332  0.00  0.00    +0.000 A 
ATOM     22  C   UNL     1      47.278   5.926  18.899  0.00  0.00    +0.000 A 
ATOM     23  S   UNL     1      47.712   7.249  19.889  0.00  0.00    +0.000 S 
ATOM     24  C   UNL     1      49.370   6.925  19.687  0.00  0.00    +0.000 A 
ATOM     25  N   UNL     1      50.320   7.764  20.177  0.00  0.00    +0.000 NA
ATOM     26  C   UNL     1      51.531   7.342  20.022  0.00  0.00    +0.000 A 
ATOM     27  N   UNL     1      51.874   6.133  19.472  0.00  0.00    +0.000 N 
ATOM     28  C   UNL     1      50.941   5.232  19.014  0.00  0.00    +0.000 A 
ATOM     29  O   UNL     1      51.269   4.088  18.711  0.00  0.00    +0.000 OA
ATOM     30  C   UNL     1      49.578   5.734  19.012  0.00  0.00    +0.000 A 
ATOM     31  H   UNL     1      52.828   5.808  19.495  0.00  0.00    +0.000 HD
ENDBRANCH  20  21
ENDBRANCH  17  20
ENDBRANCH   1  17
TORSDOF 8
ENDMDL
MODEL 8
REMARK VINA RESULT:    -7.017      2.911      3.761
REMARK INTER + INTRA:         -11.285
REMARK INTER:                 -10.151
REMARK INTRA:                  -1.134
REMARK UNBOUND:                -0.987
REMARK  Name = 
REMARK  9 active torsions:
REMARK  status: ('A' for Active; 'I' for Inactive)
REMARK    1  A    between atoms: C_1  and  C_2
REMARK    2  A    between atoms: C_2  and  N_3
REMARK    3  A    between atoms: C_2  and  C_20
REMARK    4  A    between atoms: N_3  and  C_4
REMARK    5  A    between atoms: C_4  and  C_5
REMARK    6  A    between atoms: C_9  and  C_10
REMARK    7  A    between atoms: C_10  and  C_11
REMARK    8  A    between atoms: C_11  and  O_12
REMARK    9  A    between atoms: O_12  and  C_13
REMARK                            x       y       z     vdW  Elec       q    Type
REMARK                         _______ _______ _______ _____ _____    ______ ____
ROOT
ATOM      1  C   UNL     1      47.361   8.174  12.992  0.00  0.00    +0.000 C 
ENDROOT
BRANCH   1   2
ATOM      2  C   UNL     1      46.802   6.772  12.865  0.00  0.00    +0.000 A 
ATOM      3  C   UNL     1      47.237   5.739  13.701  0.00  0.00    +0.000 A 
ATOM      4  C   UNL     1      46.594   4.500  13.675  0.00  0.00    +0.000 A 
ATOM      5  C   UNL     1      45.523   4.279  12.805  0.00  0.00    +0.000 A 
ATOM      6  C   UNL     1      45.102   5.281  11.918  0.00  0.00    +0.000 A 
ATOM      7  C   UNL     1      45.773   6.515  11.947  0.00  0.00    +0.000 A 
BRANCH   6   8
ATOM      8  C   UNL     1      43.909   5.014  11.021  0.00  0.00    +0.000 C 
BRANCH   8   9
ATOM      9  C   UNL     1      44.070   3.824  10.070  0.00  0.00    +0.000 C 
BRANCH   9  10
ATOM     10  O   UNL     1      44.410   4.269   8.758  0.00  0.00    +0.000 OA
BRANCH  10  11
ATOM     11  C   UNL     1      45.376   3.444   8.202  0.00  0.00    +0.000 A 
ATOM     12  N   UNL     1      45.403   2.196   8.680  0.00  0.00    +0.000 NA
ATOM     13  C   UNL     1      46.342   1.387   8.151  0.00  0.00    +0.000 A 
ATOM     14  C   UNL     1      47.225   1.778   7.172  0.00  0.00    +0.000 A 
ATOM     15  C   UNL     1      47.096   3.075   6.746  0.00  0.00    +0.000 A 
ATOM     16  N   UNL     1      46.183   3.931   7.245  0.00  0.00    +0.000 NA
ENDBRANCH  10  11
ENDBRANCH   9  10
ENDBRANCH   8   9
ENDBRANCH   6   8
ENDBRANCH   1   2
BRANCH   1  17
ATOM     17  N   UNL     1      47.161   8.721  14.322  0.00  0.00    +0.000 NA
ATOM     18  H   UNL     1      46.728   8.020  14.920  0.00  0.00    +0.000 HD
BRANCH  17  20
ATOM     19  C   UNL     1      49.401   9.864  14.008  0.00  0.00    +0.000 C 
ATOM     20  C   UNL     1      48.370   9.242  14.956  0.00  0.00    +0.000 C 
BRANCH  20  21
ATOM     21  C   UNL     1      48.955   8.297  15.991  0.00  0.00    +0.000 A 
ATOM     22  C   UNL     1      49.918   7.348  15.669  0.00  0.00    +0.000 A 
ATOM     23  S   UNL     1      50.041   6.107  16.837  0.00  0.00    +0.000 S 
ATOM     24  C   UNL     1      48.913   6.878  17.852  0.00  0.00    +0.000 A 
ATOM     25  N   UNL     1      48.458   6.283  18.986  0.00  0.00    +0.000 NA
ATOM     26  C   UNL     1      47.674   7.025  19.696  0.00  0.00    +0.000 A 
ATOM     27  N   UNL     1      47.348   8.324  19.403  0.00  0.00    +0.000 N 
ATOM     28  C   UNL     1      47.830   8.980  18.294  0.00  0.00    +0.000 A 
ATOM     29  O   UNL     1      47.678  10.192  18.166  0.00  0.00    +0.000 OA
ATOM     30  C   UNL     1      48.577   8.135  17.379  0.00  0.00    +0.000 A 
ATOM     31  H   UNL     1      46.834   8.889  20.062  0.00  0.00    +0.000 HD
ENDBRANCH  20  21
ENDBRANCH  17  20
ENDBRANCH   1  17
TORSDOF 8
ENDMDL
MODEL 9
REMARK VINA RESULT:    -6.881      1.794      2.460
REMARK INTER + INTRA:         -11.087
REMARK INTER:                 -10.082
REMARK INTRA:                  -1.004
REMARK UNBOUND:                -0.987
REMARK  Name = 
REMARK  9 active torsions:
REMARK  status: ('A' for Active; 'I' for Inactive)
REMARK    1  A    between atoms: C_1  and  C_2
REMARK    2  A    between atoms: C_2  and  N_3
REMARK    3  A    between atoms: C_2  and  C_20
REMARK    4  A    between atoms: N_3  and  C_4
REMARK    5  A    between atoms: C_4  and  C_5
REMARK    6  A    between atoms: C_9  and  C_10
REMARK    7  A    between atoms: C_10  and  C_11
REMARK    8  A    between atoms: C_11  and  O_12
REMARK    9  A    between atoms: O_12  and  C_13
REMARK                            x       y       z     vdW  Elec       q    Type
REMARK                         _______ _______ _______ _____ _____    ______ ____
ROOT
ATOM      1  C   UNL     1      48.152   6.583  13.547  0.00  0.00    +0.000 C 
ENDROOT
BRANCH   1   2
ATOM      2  C   UNL     1      46.785   6.612  12.899  0.00  0.00    +0.000 A 
ATOM      3  C   UNL     1      46.228   7.807  12.431  0.00  0.00    +0.000 A 
ATOM      4  C   UNL     1      45.042   7.786  11.695  0.00  0.00    +0.000 A 
ATOM      5  C   UNL     1      44.397   6.575  11.431  0.00  0.00    +0.000 A 
ATOM      6  C   UNL     1      44.905   5.368  11.934  0.00  0.00    +0.000 A 
ATOM      7  C   UNL     1      46.089   5.412  12.689  0.00  0.00    +0.000 A 
BRANCH   6   8
ATOM      8  C   UNL     1      44.196   4.072  11.590  0.00  0.00    +0.000 C 
BRANCH   8   9
ATOM      9  C   UNL     1      45.029   3.075  10.780  0.00  0.00    +0.000 C 
BRANCH   9  10
ATOM     10  O   UNL     1      44.405   2.795   9.528  0.00  0.00    +0.000 OA
BRANCH  10  11
ATOM     11  C   UNL     1      45.359   2.652   8.532  0.00  0.00    +0.000 A 
ATOM     12  N   UNL     1      45.954   1.455   8.480  0.00  0.00    +0.000 NA
ATOM     13  C   UNL     1      46.887   1.307   7.520  0.00  0.00    +0.000 A 
ATOM     14  C   UNL     1      47.224   2.293   6.623  0.00  0.00    +0.000 A 
ATOM     15  C   UNL     1      46.539   3.473   6.758  0.00  0.00    +0.000 A 
ATOM     16  N   UNL     1      45.604   3.681   7.706  0.00  0.00    +0.000 NA
ENDBRANCH  10  11
ENDBRANCH   9  10
ENDBRANCH   8   9
ENDBRANCH   6   8
ENDBRANCH   1   2
BRANCH   1  17
ATOM     17  N   UNL     1      48.068   6.454  14.991  0.00  0.00    +0.000 NA
ATOM     18  H   UNL     1      48.298   5.501  15.264  0.00  0.00    +0.000 HD
BRANCH  17  20
ATOM     19  C   UNL     1      50.338   7.549  15.253  0.00  0.00    +0.000 C 
ATOM     20  C   UNL     1      48.892   7.402  15.738  0.00  0.00    +0.000 C 
BRANCH  20  21
ATOM     21  C   UNL     1      48.743   7.266  17.243  0.00  0.00    +0.000 A 
ATOM     22  C   UNL     1      48.235   8.290  18.034  0.00  0.00    +0.000 A 
ATOM     23  S   UNL     1      48.629   8.107  19.687  0.00  0.00    +0.000 S 
ATOM     24  C   UNL     1      49.366   6.600  19.399  0.00  0.00    +0.000 A 
ATOM     25  N   UNL     1      50.032   5.938  20.382  0.00  0.00    +0.000 NA
ATOM     26  C   UNL     1      50.462   4.770  20.037  0.00  0.00    +0.000 A 
ATOM     27  N   UNL     1      50.240   4.183  18.817  0.00  0.00    +0.000 N 
ATOM     28  C   UNL     1      49.525   4.796  17.815  0.00  0.00    +0.000 A 
ATOM     29  O   UNL     1      49.180   4.171  16.816  0.00  0.00    +0.000 OA
ATOM     30  C   UNL     1      49.168   6.176  18.095  0.00  0.00    +0.000 A 
ATOM     31  H   UNL     1      50.493   3.220  18.654  0.00  0.00    +0.000 HD
ENDBRANCH  20  21
ENDBRANCH  17  20
ENDBRANCH   1  17
TORSDOF 8
ENDMDL
