MODEL 1
REMARK VINA RESULT:    -7.938      0.000      0.000
REMARK INTER + INTRA:         -11.054
REMARK INTER:                 -10.258
REMARK INTRA:                  -0.795
REMARK UNBOUND:                -0.795
REMARK  Name = 
REMARK  5 active torsions:
REMARK  status: ('A' for Active; 'I' for Inactive)
REMARK    1  A    between atoms: C_2  and  C_3
REMARK    2  A    between atoms: C_6  and  N_7
REMARK    3  A    between atoms: N_7  and  C_8
REMARK    4  A    between atoms: C_8  and  C_9
REMARK    5  A    between atoms: C_14  and  N_15
REMARK                            x       y       z     vdW  Elec       q    Type
REMARK                         _______ _______ _______ _____ _____    ______ ____
ROOT
ATOM      1  C   UNL     1      44.856   4.658  11.879  0.00  0.00    +0.000 A 
ATOM      2  C   UNL     1      45.523   3.724  12.679  0.00  0.00    +0.000 A 
ATOM      3  C   UNL     1      46.647   4.106  13.396  0.00  0.00    +0.000 A 
ATOM      4  F   UNL     1      47.280   3.203  14.157  0.00  0.00    +0.000 F 
ATOM      5  C   UNL     1      47.118   5.411  13.349  0.00  0.00    +0.000 A 
ATOM      6  C   UNL     1      46.471   6.385  12.577  0.00  0.00    +0.000 A 
ATOM      7  C   UNL     1      45.353   5.975  11.825  0.00  0.00    +0.000 A 
ENDROOT
BRANCH   6   8
ATOM      8  N   UNL     1      46.849   7.715  12.610  0.00  0.00    +0.000 N 
ATOM      9  C   UNL     1      45.881   8.755  12.957  0.00  0.00    +0.000 C 
ATOM     10  C   UNL     1      46.062   9.912  11.974  0.00  0.00    +0.000 C 
ATOM     11  C   UNL     1      47.501  10.424  11.984  0.00  0.00    +0.000 C 
ATOM     12  C   UNL     1      48.504   9.290  11.759  0.00  0.00    +0.000 C 
ATOM     13  C   UNL     1      48.256   8.105  12.697  0.00  0.00    +0.000 C 
ENDBRANCH   6   8
BRANCH   1  14
ATOM     14  C   UNL     1      43.637   4.241  11.089  0.00  0.00    +0.000 C 
BRANCH  14  15
ATOM     15  N   UNL     1      43.851   4.548   9.686  0.00  0.00    +0.000 N 
ATOM     16  H   UNL     1      43.908   5.545   9.488  0.00  0.00    +0.000 HD
BRANCH  15  20
ATOM     17  C   UNL     1      46.708   2.725   7.386  0.00  0.00    +0.000 A 
ATOM     18  C   UNL     1      46.550   4.100   7.424  0.00  0.00    +0.000 A 
ATOM     19  N   UNL     1      45.627   4.710   8.217  0.00  0.00    +0.000 NA
ATOM     20  C   UNL     1      44.845   3.908   8.972  0.00  0.00    +0.000 A 
ATOM     21  C   UNL     1      45.012   2.523   8.911  0.00  0.00    +0.000 A 
ATOM     22  N   UNL     1      45.943   1.901   8.139  0.00  0.00    +0.000 NA
BRANCH  17  24
ATOM     23  N   UNL     1      48.444   1.588   5.828  0.00  0.00    +0.000 NA
ATOM     24  C   UNL     1      47.681   2.114   6.530  0.00  0.00    +0.000 C 
ENDBRANCH  17  24
ENDBRANCH  15  20
ENDBRANCH  14  15
ENDBRANCH   1  14
TORSDOF 5
ENDMDL
MODEL 2
REMARK VINA RESULT:    -7.526      2.113      3.287
REMARK INTER + INTRA:         -10.522
REMARK INTER:                  -9.777
REMARK INTRA:                  -0.745
REMARK UNBOUND:                -0.795
REMARK  Name = 
REMARK  5 active torsions:
REMARK  status: ('A' for Active; 'I' for Inactive)
REMARK    1  A    between atoms: C_2  and  C_3
REMARK    2  A    between atoms: C_6  and  N_7
REMARK    3  A    between atoms: N_7  and  C_8
REMARK    4  A    between atoms: C_8  and  C_9
REMARK    5  A    between atoms: C_14  and  N_15
REMARK                            x       y       z     vdW  Elec       q    Type
REMARK                         _______ _______ _______ _____ _____    ______ ____
ROOT
ATOM      1  C   UNL     1      44.497   4.881  11.909  0.00  0.00    +0.000 A 
ATOM      2  C   UNL     1      44.363   6.170  11.382  0.00  0.00    +0.000 A 
ATOM      3  C   UNL     1      45.115   7.211  11.903  0.00  0.00    +0.000 A 
ATOM      4  F   UNL     1      44.979   8.442  11.394  0.00  0.00    +0.000 F 
ATOM      5  C   UNL     1      46.020   6.996  12.936  0.00  0.00    +0.000 A 
ATOM      6  C   UNL     1      46.201   5.718  13.481  0.00  0.00    +0.000 A 
ATOM      7  C   UNL     1      45.404   4.677  12.968  0.00  0.00    +0.000 A 
ENDROOT
BRANCH   6   8
ATOM      8  N   UNL     1      47.180   5.457  14.423  0.00  0.00    +0.000 N 
ATOM      9  C   UNL     1      47.261   4.147  15.068  0.00  0.00    +0.000 C 
ATOM     10  C   UNL     1      47.491   4.372  16.562  0.00  0.00    +0.000 C 
ATOM     11  C   UNL     1      48.736   5.223  16.806  0.00  0.00    +0.000 C 
ATOM     12  C   UNL     1      48.690   6.528  16.008  0.00  0.00    +0.000 C 
ATOM     13  C   UNL     1      48.377   6.290  14.529  0.00  0.00    +0.000 C 
ENDBRANCH   6   8
BRANCH   1  14
ATOM     14  C   UNL     1      43.669   3.747  11.349  0.00  0.00    +0.000 C 
BRANCH  14  15
ATOM     15  N   UNL     1      43.635   3.853   9.901  0.00  0.00    +0.000 N 
ATOM     16  H   UNL     1      43.405   4.786   9.564  0.00  0.00    +0.000 HD
BRANCH  15  20
ATOM     17  C   UNL     1      46.603   2.442   7.457  0.00  0.00    +0.000 A 
ATOM     18  C   UNL     1      46.200   3.766   7.449  0.00  0.00    +0.000 A 
ATOM     19  N   UNL     1      45.242   4.246   8.287  0.00  0.00    +0.000 NA
ATOM     20  C   UNL     1      44.675   3.361   9.137  0.00  0.00    +0.000 A 
ATOM     21  C   UNL     1      45.087   2.027   9.122  0.00  0.00    +0.000 A 
ATOM     22  N   UNL     1      46.057   1.539   8.304  0.00  0.00    +0.000 NA
BRANCH  17  24
ATOM     23  N   UNL     1      48.447   1.613   5.829  0.00  0.00    +0.000 NA
ATOM     24  C   UNL     1      47.607   1.967   6.552  0.00  0.00    +0.000 C 
ENDBRANCH  17  24
ENDBRANCH  15  20
ENDBRANCH  14  15
ENDBRANCH   1  14
TORSDOF 5
ENDMDL
MODEL 3
REMARK VINA RESULT:    -7.159      2.776      7.097
REMARK INTER + INTRA:         -10.047
REMARK INTER:                  -9.370
REMARK INTRA:                  -0.677
REMARK UNBOUND:                -0.795
REMARK  Name = 
REMARK  5 active torsions:
REMARK  status: ('A' for Active; 'I' for Inactive)
REMARK    1  A    between atoms: C_2  and  C_3
REMARK    2  A    between atoms: C_6  and  N_7
REMARK    3  A    between atoms: N_7  and  C_8
REMARK    4  A    between atoms: C_8  and  C_9
REMARK    5  A    between atoms: C_14  and  N_15
REMARK                            x       y       z     vdW  Elec       q    Type
REMARK                         _______ _______ _______ _____ _____    ______ ____
ROOT
ATOM      1  C   UNL     1      45.432   6.279  11.470  0.00  0.00    +0.000 A 
ATOM      2  C   UNL     1      44.118   6.210  11.944  0.00  0.00    +0.000 A 
ATOM      3  C   UNL     1      43.207   5.364  11.331  0.00  0.00    +0.000 A 
ATOM      4  F   UNL     1      41.949   5.305  11.791  0.00  0.00    +0.000 F 
ATOM      5  C   UNL     1      43.579   4.564  10.258  0.00  0.00    +0.000 A 
ATOM      6  C   UNL     1      44.889   4.586   9.763  0.00  0.00    +0.000 A 
ATOM      7  C   UNL     1      45.795   5.477  10.370  0.00  0.00    +0.000 A 
ENDROOT
BRANCH   6   8
ATOM      8  N   UNL     1      45.313   3.713   8.777  0.00  0.00    +0.000 N 
ATOM      9  C   UNL     1      44.785   2.351   8.712  0.00  0.00    +0.000 C 
ATOM     10  C   UNL     1      45.958   1.404   8.457  0.00  0.00    +0.000 C 
ATOM     11  C   UNL     1      46.719   1.798   7.193  0.00  0.00    +0.000 C 
ATOM     12  C   UNL     1      47.139   3.269   7.224  0.00  0.00    +0.000 C 
ATOM     13  C   UNL     1      45.968   4.197   7.562  0.00  0.00    +0.000 C 
ENDBRANCH   6   8
BRANCH   1  14
ATOM     14  C   UNL     1      46.425   7.209  12.130  0.00  0.00    +0.000 C 
BRANCH  14  15
ATOM     15  N   UNL     1      47.581   6.442  12.560  0.00  0.00    +0.000 N 
ATOM     16  H   UNL     1      48.465   6.932  12.439  0.00  0.00    +0.000 HD
BRANCH  15  20
ATOM     17  C   UNL     1      47.832   4.578  16.198  0.00  0.00    +0.000 A 
ATOM     18  C   UNL     1      48.511   5.751  15.915  0.00  0.00    +0.000 A 
ATOM     19  N   UNL     1      48.398   6.393  14.721  0.00  0.00    +0.000 NA
ATOM     20  C   UNL     1      47.594   5.826  13.796  0.00  0.00    +0.000 A 
ATOM     21  C   UNL     1      46.927   4.636  14.096  0.00  0.00    +0.000 A 
ATOM     22  N   UNL     1      47.014   3.995  15.292  0.00  0.00    +0.000 NA
BRANCH  17  24
ATOM     23  N   UNL     1      48.069   3.368  18.482  0.00  0.00    +0.000 NA
ATOM     24  C   UNL     1      47.983   3.921  17.463  0.00  0.00    +0.000 C 
ENDBRANCH  17  24
ENDBRANCH  15  20
ENDBRANCH  14  15
ENDBRANCH   1  14
TORSDOF 5
ENDMDL
MODEL 4
REMARK VINA RESULT:    -6.708      1.948      6.818
REMARK INTER + INTRA:          -9.464
REMARK INTER:                  -8.736
REMARK INTRA:                  -0.728
REMARK UNBOUND:                -0.795
REMARK  Name = 
REMARK  5 active torsions:
REMARK  status: ('A' for Active; 'I' for Inactive)
REMARK    1  A    between atoms: C_2  and  C_3
REMARK    2  A    between atoms: C_6  and  N_7
REMARK    3  A    between atoms: N_7  and  C_8
REMARK    4  A    between atoms: C_8  and  C_9
REMARK    5  A    between atoms: C_14  and  N_15
REMARK                            x       y       z     vdW  Elec       q    Type
REMARK                         _______ _______ _______ _____ _____    ______ ____
ROOT
ATOM      1  C   UNL     1      44.648   5.486  11.155  0.00  0.00    +0.000 A 
ATOM      2  C   UNL     1      44.041   4.681  12.125  0.00  0.00    +0.000 A 
ATOM      3  C   UNL     1      43.873   3.326  11.891  0.00  0.00    +0.000 A 
ATOM      4  F   UNL     1      43.287   2.564  12.825  0.00  0.00    +0.000 F 
ATOM      5  C   UNL     1      44.314   2.741  10.711  0.00  0.00    +0.000 A 
ATOM      6  C   UNL     1      44.946   3.504   9.721  0.00  0.00    +0.000 A 
ATOM      7  C   UNL     1      45.076   4.886   9.954  0.00  0.00    +0.000 A 
ENDROOT
BRANCH   6   8
ATOM      8  N   UNL     1      45.500   2.924   8.593  0.00  0.00    +0.000 N 
ATOM      9  C   UNL     1      45.411   1.480   8.379  0.00  0.00    +0.000 C 
ATOM     10  C   UNL     1      46.779   0.989   7.908  0.00  0.00    +0.000 C 
ATOM     11  C   UNL     1      47.233   1.740   6.657  0.00  0.00    +0.000 C 
ATOM     12  C   UNL     1      47.183   3.256   6.862  0.00  0.00    +0.000 C 
ATOM     13  C   UNL     1      45.832   3.720   7.413  0.00  0.00    +0.000 C 
ENDBRANCH   6   8
BRANCH   1  14
ATOM     14  C   UNL     1      44.824   6.967  11.404  0.00  0.00    +0.000 C 
BRANCH  14  15
ATOM     15  N   UNL     1      45.152   7.178  12.803  0.00  0.00    +0.000 N 
ATOM     16  H   UNL     1      44.711   6.511  13.433  0.00  0.00    +0.000 HD
BRANCH  15  20
ATOM     17  C   UNL     1      49.088   7.750  13.778  0.00  0.00    +0.000 A 
ATOM     18  C   UNL     1      48.239   8.798  13.469  0.00  0.00    +0.000 A 
ATOM     19  N   UNL     1      46.921   8.614  13.183  0.00  0.00    +0.000 NA
ATOM     20  C   UNL     1      46.465   7.343  13.198  0.00  0.00    +0.000 A 
ATOM     21  C   UNL     1      47.339   6.298  13.501  0.00  0.00    +0.000 A 
ATOM     22  N   UNL     1      48.653   6.469  13.809  0.00  0.00    +0.000 NA
BRANCH  17  24
ATOM     23  N   UNL     1      51.591   8.152  14.334  0.00  0.00    +0.000 NA
ATOM     24  C   UNL     1      50.474   7.977  14.063  0.00  0.00    +0.000 C 
ENDBRANCH  17  24
ENDBRANCH  15  20
ENDBRANCH  14  15
ENDBRANCH   1  14
TORSDOF 5
ENDMDL
MODEL 5
REMARK VINA RESULT:    -6.261      2.611      7.566
REMARK INTER + INTRA:          -8.886
REMARK INTER:                  -8.218
REMARK INTRA:                  -0.668
REMARK UNBOUND:                -0.795
REMARK  Name = 
REMARK  5 active torsions:
REMARK  status: ('A' for Active; 'I' for Inactive)
REMARK    1  A    between atoms: C_2  and  C_3
REMARK    2  A    between atoms: C_6  and  N_7
REMARK    3  A    between atoms: N_7  and  C_8
REMARK    4  A    between atoms: C_8  and  C_9
REMARK    5  A    between atoms: C_14  and  N_15
REMARK                            x       y       z     vdW  Elec       q    Type
REMARK                         _______ _______ _______ _____ _____    ______ ____
ROOT
ATOM      1  C   UNL     1      45.412   6.234  11.928  0.00  0.00    +0.000 A 
ATOM      2  C   UNL     1      44.581   5.638  12.885  0.00  0.00    +0.000 A 
ATOM      3  C   UNL     1      43.942   4.443  12.595  0.00  0.00    +0.000 A 
ATOM      4  F   UNL     1      43.147   3.882  13.516  0.00  0.00    +0.000 F 
ATOM      5  C   UNL     1      44.123   3.810  11.372  0.00  0.00    +0.000 A 
ATOM      6  C   UNL     1      44.961   4.359  10.393  0.00  0.00    +0.000 A 
ATOM      7  C   UNL     1      45.575   5.593  10.685  0.00  0.00    +0.000 A 
ENDROOT
BRANCH   6   8
ATOM      8  N   UNL     1      45.251   3.688   9.218  0.00  0.00    +0.000 N 
ATOM      9  C   UNL     1      44.811   2.307   9.022  0.00  0.00    +0.000 C 
ATOM     10  C   UNL     1      45.976   1.525   8.417  0.00  0.00    +0.000 C 
ATOM     11  C   UNL     1      46.462   2.174   7.122  0.00  0.00    +0.000 C 
ATOM     12  C   UNL     1      46.782   3.657   7.322  0.00  0.00    +0.000 C 
ATOM     13  C   UNL     1      45.637   4.409   8.005  0.00  0.00    +0.000 C 
ENDBRANCH   6   8
BRANCH   1  14
ATOM     14  C   UNL     1      46.102   7.543  12.238  0.00  0.00    +0.000 C 
BRANCH  14  15
ATOM     15  N   UNL     1      47.508   7.289  12.500  0.00  0.00    +0.000 N 
ATOM     16  H   UNL     1      48.133   7.692  11.804  0.00  0.00    +0.000 HD
BRANCH  15  20
ATOM     17  C   UNL     1      48.967   7.827  16.287  0.00  0.00    +0.000 A 
ATOM     18  C   UNL     1      49.145   6.649  15.583  0.00  0.00    +0.000 A 
ATOM     19  N   UNL     1      48.695   6.482  14.310  0.00  0.00    +0.000 NA
ATOM     20  C   UNL     1      48.043   7.524  13.751  0.00  0.00    +0.000 A 
ATOM     21  C   UNL     1      47.864   8.700  14.481  0.00  0.00    +0.000 A 
ATOM     22  N   UNL     1      48.325   8.889  15.746  0.00  0.00    +0.000 NA
BRANCH  17  24
ATOM     23  N   UNL     1      49.858   8.108  18.709  0.00  0.00    +0.000 NA
ATOM     24  C   UNL     1      49.444   7.966  17.632  0.00  0.00    +0.000 C 
ENDBRANCH  17  24
ENDBRANCH  15  20
ENDBRANCH  14  15
ENDBRANCH   1  14
TORSDOF 5
ENDMDL
MODEL 6
REMARK VINA RESULT:    -6.249      4.445      7.533
REMARK INTER + INTRA:          -8.870
REMARK INTER:                  -8.133
REMARK INTRA:                  -0.738
REMARK UNBOUND:                -0.795
REMARK  Name = 
REMARK  5 active torsions:
REMARK  status: ('A' for Active; 'I' for Inactive)
REMARK    1  A    between atoms: C_2  and  C_3
REMARK    2  A    between atoms: C_6  and  N_7
REMARK    3  A    between atoms: N_7  and  C_8
REMARK    4  A    between atoms: C_8  and  C_9
REMARK    5  A    between atoms: C_14  and  N_15
REMARK                            x       y       z     vdW  Elec       q    Type
REMARK                         _______ _______ _______ _____ _____    ______ ____
ROOT
ATOM      1  C   UNL     1      48.094   6.604  14.291  0.00  0.00    +0.000 A 
ATOM      2  C   UNL     1      48.611   7.617  13.476  0.00  0.00    +0.000 A 
ATOM      3  C   UNL     1      48.194   7.722  12.158  0.00  0.00    +0.000 A 
ATOM      4  F   UNL     1      48.697   8.694  11.384  0.00  0.00    +0.000 F 
ATOM      5  C   UNL     1      47.253   6.847  11.630  0.00  0.00    +0.000 A 
ATOM      6  C   UNL     1      46.694   5.830  12.415  0.00  0.00    +0.000 A 
ATOM      7  C   UNL     1      47.154   5.710  13.741  0.00  0.00    +0.000 A 
ENDROOT
BRANCH   6   8
ATOM      8  N   UNL     1      45.670   5.026  11.949  0.00  0.00    +0.000 N 
ATOM      9  C   UNL     1      45.051   5.287  10.650  0.00  0.00    +0.000 C 
ATOM     10  C   UNL     1      43.538   5.161  10.816  0.00  0.00    +0.000 C 
ATOM     11  C   UNL     1      43.158   3.794  11.381  0.00  0.00    +0.000 C 
ATOM     12  C   UNL     1      43.925   3.483  12.668  0.00  0.00    +0.000 C 
ATOM     13  C   UNL     1      45.433   3.695  12.507  0.00  0.00    +0.000 C 
ENDBRANCH   6   8
BRANCH   1  14
ATOM     14  C   UNL     1      48.555   6.481  15.725  0.00  0.00    +0.000 C 
BRANCH  14  15
ATOM     15  N   UNL     1      48.030   5.249  16.290  0.00  0.00    +0.000 N 
ATOM     16  H   UNL     1      47.277   4.836  15.743  0.00  0.00    +0.000 HD
BRANCH  15  20
ATOM     17  C   UNL     1      50.712   2.331  17.319  0.00  0.00    +0.000 A 
ATOM     18  C   UNL     1      50.947   3.674  17.558  0.00  0.00    +0.000 A 
ATOM     19  N   UNL     1      50.041   4.642  17.252  0.00  0.00    +0.000 NA
ATOM     20  C   UNL     1      48.885   4.238  16.683  0.00  0.00    +0.000 A 
ATOM     21  C   UNL     1      48.671   2.880  16.439  0.00  0.00    +0.000 A 
ATOM     22  N   UNL     1      49.558   1.900  16.757  0.00  0.00    +0.000 NA
BRANCH  17  24
ATOM     23  N   UNL     1      52.464   0.502  17.891  0.00  0.00    +0.000 NA
ATOM     24  C   UNL     1      51.694   1.338  17.641  0.00  0.00    +0.000 C 
ENDBRANCH  17  24
ENDBRANCH  15  20
ENDBRANCH  14  15
ENDBRANCH   1  14
TORSDOF 5
ENDMDL
MODEL 7
REMARK VINA RESULT:    -6.201      2.272      3.251
REMARK INTER + INTRA:          -8.809
REMARK INTER:                  -8.083
REMARK INTRA:                  -0.726
REMARK UNBOUND:                -0.795
REMARK  Name = 
REMARK  5 active torsions:
REMARK  status: ('A' for Active; 'I' for Inactive)
REMARK    1  A    between atoms: C_2  and  C_3
REMARK    2  A    between atoms: C_6  and  N_7
REMARK    3  A    between atoms: N_7  and  C_8
REMARK    4  A    between atoms: C_8  and  C_9
REMARK    5  A    between atoms: C_14  and  N_15
REMARK                            x       y       z     vdW  Elec       q    Type
REMARK                         _______ _______ _______ _____ _____    ______ ____
ROOT
ATOM      1  C   UNL     1      45.314   7.147  11.802  0.00  0.00    +0.000 A 
ATOM      2  C   UNL     1      44.519   8.298  11.759  0.00  0.00    +0.000 A 
ATOM      3  C   UNL     1      45.109   9.548  11.861  0.00  0.00    +0.000 A 
ATOM      4  F   UNL     1      44.340  10.645  11.822  0.00  0.00    +0.000 F 
ATOM      5  C   UNL     1      46.486   9.685  11.989  0.00  0.00    +0.000 A 
ATOM      6  C   UNL     1      47.322   8.561  12.016  0.00  0.00    +0.000 A 
ATOM      7  C   UNL     1      46.708   7.296  11.949  0.00  0.00    +0.000 A 
ENDROOT
BRANCH   6   8
ATOM      8  N   UNL     1      48.701   8.675  12.020  0.00  0.00    +0.000 N 
ATOM      9  C   UNL     1      49.340   9.956  12.320  0.00  0.00    +0.000 C 
ATOM     10  C   UNL     1      50.468  10.167  11.310  0.00  0.00    +0.000 C 
ATOM     11  C   UNL     1      51.454   9.000  11.335  0.00  0.00    +0.000 C 
ATOM     12  C   UNL     1      50.741   7.657  11.159  0.00  0.00    +0.000 C 
ATOM     13  C   UNL     1      49.562   7.498  12.123  0.00  0.00    +0.000 C 
ENDBRANCH   6   8
BRANCH   1  14
ATOM     14  C   UNL     1      44.672   5.782  11.701  0.00  0.00    +0.000 C 
BRANCH  14  15
ATOM     15  N   UNL     1      44.332   5.518  10.314  0.00  0.00    +0.000 N 
ATOM     16  H   UNL     1      44.287   6.356   9.737  0.00  0.00    +0.000 HD
BRANCH  15  20
ATOM     17  C   UNL     1      46.195   2.678   8.028  0.00  0.00    +0.000 A 
ATOM     18  C   UNL     1      46.370   4.034   7.816  0.00  0.00    +0.000 A 
ATOM     19  N   UNL     1      45.783   4.980   8.598  0.00  0.00    +0.000 NA
ATOM     20  C   UNL     1      44.996   4.538   9.603  0.00  0.00    +0.000 A 
ATOM     21  C   UNL     1      44.823   3.166   9.794  0.00  0.00    +0.000 A 
ATOM     22  N   UNL     1      45.419   2.210   9.033  0.00  0.00    +0.000 NA
BRANCH  17  24
ATOM     23  N   UNL     1      47.303   0.891   6.504  0.00  0.00    +0.000 NA
ATOM     24  C   UNL     1      46.819   1.708   7.176  0.00  0.00    +0.000 C 
ENDBRANCH  17  24
ENDBRANCH  15  20
ENDBRANCH  14  15
ENDBRANCH   1  14
TORSDOF 5
ENDMDL
MODEL 8
REMARK VINA RESULT:    -6.003      3.915      7.244
REMARK INTER + INTRA:          -8.553
REMARK INTER:                  -7.908
REMARK INTRA:                  -0.645
REMARK UNBOUND:                -0.795
REMARK  Name = 
REMARK  5 active torsions:
REMARK  status: ('A' for Active; 'I' for Inactive)
REMARK    1  A    between atoms: C_2  and  C_3
REMARK    2  A    between atoms: C_6  and  N_7
REMARK    3  A    between atoms: N_7  and  C_8
REMARK    4  A    between atoms: C_8  and  C_9
REMARK    5  A    between atoms: C_14  and  N_15
REMARK                            x       y       z     vdW  Elec       q    Type
REMARK                         _______ _______ _______ _____ _____    ______ ____
ROOT
ATOM      1  C   UNL     1      46.951   6.806  13.302  0.00  0.00    +0.000 A 
ATOM      2  C   UNL     1      46.377   8.082  13.279  0.00  0.00    +0.000 A 
ATOM      3  C   UNL     1      45.404   8.384  12.339  0.00  0.00    +0.000 A 
ATOM      4  F   UNL     1      44.862   9.609  12.322  0.00  0.00    +0.000 F 
ATOM      5  C   UNL     1      44.972   7.434  11.422  0.00  0.00    +0.000 A 
ATOM      6  C   UNL     1      45.504   6.138  11.422  0.00  0.00    +0.000 A 
ATOM      7  C   UNL     1      46.518   5.855  12.357  0.00  0.00    +0.000 A 
ENDROOT
BRANCH   6   8
ATOM      8  N   UNL     1      45.005   5.142  10.601  0.00  0.00    +0.000 N 
ATOM      9  C   UNL     1      43.763   4.450  10.942  0.00  0.00    +0.000 C 
ATOM     10  C   UNL     1      43.977   2.956  10.706  0.00  0.00    +0.000 C 
ATOM     11  C   UNL     1      44.424   2.683   9.271  0.00  0.00    +0.000 C 
ATOM     12  C   UNL     1      45.644   3.526   8.892  0.00  0.00    +0.000 C 
ATOM     13  C   UNL     1      45.443   5.010   9.212  0.00  0.00    +0.000 C 
ENDBRANCH   6   8
BRANCH   1  14
ATOM     14  C   UNL     1      48.019   6.477  14.320  0.00  0.00    +0.000 C 
BRANCH  14  15
ATOM     15  N   UNL     1      47.450   5.623  15.348  0.00  0.00    +0.000 N 
ATOM     16  H   UNL     1      46.527   5.261  15.115  0.00  0.00    +0.000 HD
BRANCH  15  20
ATOM     17  C   UNL     1      49.824   2.653  16.868  0.00  0.00    +0.000 A 
ATOM     18  C   UNL     1      50.040   3.992  17.145  0.00  0.00    +0.000 A 
ATOM     19  N   UNL     1      49.229   4.977  16.672  0.00  0.00    +0.000 NA
ATOM     20  C   UNL     1      48.192   4.596  15.896  0.00  0.00    +0.000 A 
ATOM     21  C   UNL     1      47.998   3.241  15.619  0.00  0.00    +0.000 A 
ATOM     22  N   UNL     1      48.787   2.244  16.100  0.00  0.00    +0.000 NA
BRANCH  17  24
ATOM     23  N   UNL     1      51.387   0.802  17.801  0.00  0.00    +0.000 NA
ATOM     24  C   UNL     1      50.705   1.640  17.371  0.00  0.00    +0.000 C 
ENDBRANCH  17  24
ENDBRANCH  15  20
ENDBRANCH  14  15
ENDBRANCH   1  14
TORSDOF 5
ENDMDL
MODEL 9
REMARK VINA RESULT:    -5.604      3.355      7.913
REMARK INTER + INTRA:          -8.037
REMARK INTER:                  -7.223
REMARK INTRA:                  -0.815
REMARK UNBOUND:                -0.795
REMARK  Name = 
REMARK  5 active torsions:
REMARK  status: ('A' for Active; 'I' for Inactive)
REMARK    1  A    between atoms: C_2  and  C_3
REMARK    2  A    between atoms: C_6  and  N_7
REMARK    3  A    between atoms: N_7  and  C_8
REMARK    4  A    between atoms: C_8  and  C_9
REMARK    5  A    between atoms: C_14  and  N_15
REMARK                            x       y       z     vdW  Elec       q    Type
REMARK                         _______ _______ _______ _____ _____    ______ ____
ROOT
ATOM      1  C   UNL     1      47.840   8.117  12.230  0.00  0.00    +0.000 A 
ATOM      2  C   UNL     1      46.936   9.157  12.472  0.00  0.00    +0.000 A 
ATOM      3  C   UNL     1      45.579   8.951  12.280  0.00  0.00    +0.000 A 
ATOM      4  F   UNL     1      44.721   9.954  12.511  0.00  0.00    +0.000 F 
ATOM      5  C   UNL     1      45.092   7.718  11.866  0.00  0.00    +0.000 A 
ATOM      6  C   UNL     1      45.958   6.642  11.632  0.00  0.00    +0.000 A 
ATOM      7  C   UNL     1      47.337   6.875  11.794  0.00  0.00    +0.000 A 
ENDROOT
BRANCH   6   8
ATOM      8  N   UNL     1      45.488   5.375  11.338  0.00  0.00    +0.000 N 
ATOM      9  C   UNL     1      45.359   4.933   9.950  0.00  0.00    +0.000 C 
ATOM     10  C   UNL     1      44.013   4.224   9.805  0.00  0.00    +0.000 C 
ATOM     11  C   UNL     1      43.887   3.072  10.800  0.00  0.00    +0.000 C 
ATOM     12  C   UNL     1      44.166   3.533  12.233  0.00  0.00    +0.000 C 
ATOM     13  C   UNL     1      45.478   4.313  12.344  0.00  0.00    +0.000 C 
ENDBRANCH   6   8
BRANCH   1  14
ATOM     14  C   UNL     1      49.322   8.343  12.429  0.00  0.00    +0.000 C 
BRANCH  14  15
ATOM     15  N   UNL     1      49.846   7.312  13.308  0.00  0.00    +0.000 N 
ATOM     16  H   UNL     1      50.848   7.158  13.206  0.00  0.00    +0.000 HD
BRANCH  15  20
ATOM     17  C   UNL     1      48.746   7.266  17.252  0.00  0.00    +0.000 A 
ATOM     18  C   UNL     1      48.743   6.127  16.466  0.00  0.00    +0.000 A 
ATOM     19  N   UNL     1      49.145   6.132  15.166  0.00  0.00    +0.000 NA
ATOM     20  C   UNL     1      49.543   7.317  14.655  0.00  0.00    +0.000 A 
ATOM     21  C   UNL     1      49.528   8.457  15.460  0.00  0.00    +0.000 A 
ATOM     22  N   UNL     1      49.148   8.464  16.765  0.00  0.00    +0.000 NA
BRANCH  17  24
ATOM     23  N   UNL     1      47.950   7.156  19.720  0.00  0.00    +0.000 NA
ATOM     24  C   UNL     1      48.304   7.229  18.614  0.00  0.00    +0.000 C 
ENDBRANCH  17  24
ENDBRANCH  15  20
ENDBRANCH  14  15
ENDBRANCH   1  14
TORSDOF 5
ENDMDL
