MODEL 1
REMARK VINA RESULT:    -8.450      0.000      0.000
REMARK INTER + INTRA:         -11.321
REMARK INTER:                 -10.426
REMARK INTRA:                  -0.896
REMARK UNBOUND:                -0.896
REMARK  Name = 
REMARK  4 active torsions:
REMARK  status: ('A' for Active; 'I' for Inactive)
REMARK    1  A    between atoms: C_7  and  N_8
REMARK    2  A    between atoms: N_8  and  C_9
REMARK    3  A    between atoms: C_9  and  C_10
REMARK    4  A    between atoms: C_14  and  C_15
REMARK                            x       y       z     vdW  Elec       q    Type
REMARK                         _______ _______ _______ _____ _____    ______ ____
ROOT
ATOM      1  C   UNL     1      43.822   5.050  10.871  0.00  0.00    +0.000 A 
ATOM      2  C   UNL     1      43.153   4.072  11.592  0.00  0.00    +0.000 A 
ATOM      3  N   UNL     1      43.229   2.753  11.318  0.00  0.00    +0.000 NA
ATOM      4  C   UNL     1      44.016   2.392  10.272  0.00  0.00    +0.000 A 
ATOM      5  C   UNL     1      44.743   3.270   9.465  0.00  0.00    +0.000 A 
ATOM      6  C   UNL     1      44.610   4.630   9.787  0.00  0.00    +0.000 A 
ENDROOT
BRANCH   5   7
ATOM      7  C   UNL     1      45.613   2.801   8.364  0.00  0.00    +0.000 A 
ATOM      8  C   UNL     1      45.971   3.647   7.297  0.00  0.00    +0.000 A 
ATOM      9  C   UNL     1      46.824   3.217   6.274  0.00  0.00    +0.000 A 
ATOM     10  C   UNL     1      47.331   1.922   6.288  0.00  0.00    +0.000 A 
ATOM     11  C   UNL     1      46.984   1.058   7.321  0.00  0.00    +0.000 A 
ATOM     12  C   UNL     1      46.139   1.495   8.347  0.00  0.00    +0.000 A 
ENDBRANCH   5   7
BRANCH   1  13
ATOM     13  C   UNL     1      43.721   6.503  11.251  0.00  0.00    +0.000 C 
BRANCH  13  14
ATOM     14  N   UNL     1      44.270   6.716  12.583  0.00  0.00    +0.000 N 
ATOM     15  H   UNL     1      43.702   6.321  13.330  0.00  0.00    +0.000 HD
BRANCH  14  22
ATOM     16  F   UNL     1      45.492   4.482  14.018  0.00  0.00    +0.000 F 
ATOM     17  C   UNL     1      46.234   5.440  13.442  0.00  0.00    +0.000 A 
ATOM     18  C   UNL     1      47.614   5.339  13.512  0.00  0.00    +0.000 A 
ATOM     19  N   UNL     1      48.468   6.236  12.970  0.00  0.00    +0.000 NA
ATOM     20  C   UNL     1      47.899   7.275  12.326  0.00  0.00    +0.000 A 
ATOM     21  C   UNL     1      46.525   7.463  12.215  0.00  0.00    +0.000 A 
ATOM     22  C   UNL     1      45.647   6.541  12.801  0.00  0.00    +0.000 A 
ENDBRANCH  14  22
ENDBRANCH  13  14
ENDBRANCH   1  13
TORSDOF 4
ENDMDL
MODEL 2
REMARK VINA RESULT:    -7.757      2.506      6.219
REMARK INTER + INTRA:         -10.466
REMARK INTER:                 -10.042
REMARK INTRA:                  -0.424
REMARK UNBOUND:                -0.896
REMARK  Name = 
REMARK  4 active torsions:
REMARK  status: ('A' for Active; 'I' for Inactive)
REMARK    1  A    between atoms: C_7  and  N_8
REMARK    2  A    between atoms: N_8  and  C_9
REMARK    3  A    between atoms: C_9  and  C_10
REMARK    4  A    between atoms: C_14  and  C_15
REMARK                            x       y       z     vdW  Elec       q    Type
REMARK                         _______ _______ _______ _____ _____    ______ ____
ROOT
ATOM      1  C   UNL     1      44.856   4.226  10.779  0.00  0.00    +0.000 A 
ATOM      2  C   UNL     1      44.832   3.522  11.974  0.00  0.00    +0.000 A 
ATOM      3  N   UNL     1      45.397   3.964  13.117  0.00  0.00    +0.000 NA
ATOM      4  C   UNL     1      46.013   5.172  13.066  0.00  0.00    +0.000 A 
ATOM      5  C   UNL     1      46.110   5.984  11.932  0.00  0.00    +0.000 A 
ATOM      6  C   UNL     1      45.520   5.463  10.770  0.00  0.00    +0.000 A 
ENDROOT
BRANCH   5   7
ATOM      7  C   UNL     1      46.765   7.310  11.959  0.00  0.00    +0.000 A 
ATOM      8  C   UNL     1      48.153   7.450  11.772  0.00  0.00    +0.000 A 
ATOM      9  C   UNL     1      48.769   8.707  11.760  0.00  0.00    +0.000 A 
ATOM     10  C   UNL     1      48.010   9.857  11.949  0.00  0.00    +0.000 A 
ATOM     11  C   UNL     1      46.638   9.750  12.149  0.00  0.00    +0.000 A 
ATOM     12  C   UNL     1      46.024   8.492  12.151  0.00  0.00    +0.000 A 
ENDBRANCH   5   7
BRANCH   1  13
ATOM     13  C   UNL     1      44.177   3.691   9.547  0.00  0.00    +0.000 C 
BRANCH  13  14
ATOM     14  N   UNL     1      44.978   3.975   8.364  0.00  0.00    +0.000 N 
ATOM     15  H   UNL     1      45.299   4.939   8.307  0.00  0.00    +0.000 HD
BRANCH  14  22
ATOM     16  F   UNL     1      44.976   1.113   8.959  0.00  0.00    +0.000 F 
ATOM     17  C   UNL     1      45.925   1.674   8.193  0.00  0.00    +0.000 A 
ATOM     18  C   UNL     1      46.905   0.857   7.652  0.00  0.00    +0.000 A 
ATOM     19  N   UNL     1      47.910   1.299   6.864  0.00  0.00    +0.000 NA
ATOM     20  C   UNL     1      47.918   2.623   6.609  0.00  0.00    +0.000 A 
ATOM     21  C   UNL     1      46.981   3.519   7.116  0.00  0.00    +0.000 A 
ATOM     22  C   UNL     1      45.957   3.054   7.953  0.00  0.00    +0.000 A 
ENDBRANCH  14  22
ENDBRANCH  13  14
ENDBRANCH   1  13
TORSDOF 4
ENDMDL
MODEL 3
REMARK VINA RESULT:    -7.412      2.711      3.401
REMARK INTER + INTRA:         -10.041
REMARK INTER:                  -9.535
REMARK INTRA:                  -0.506
REMARK UNBOUND:                -0.896
REMARK  Name = 
REMARK  4 active torsions:
REMARK  status: ('A' for Active; 'I' for Inactive)
REMARK    1  A    between atoms: C_7  and  N_8
REMARK    2  A    between atoms: N_8  and  C_9
REMARK    3  A    between atoms: C_9  and  C_10
REMARK    4  A    between atoms: C_14  and  C_15
REMARK                            x       y       z     vdW  Elec       q    Type
REMARK                         _______ _______ _______ _____ _____    ______ ____
ROOT
ATOM      1  C   UNL     1      44.684   5.443  10.929  0.00  0.00    +0.000 A 
ATOM      2  C   UNL     1      43.663   4.683  11.482  0.00  0.00    +0.000 A 
ATOM      3  N   UNL     1      43.316   3.456  11.041  0.00  0.00    +0.000 NA
ATOM      4  C   UNL     1      44.027   2.960   9.996  0.00  0.00    +0.000 A 
ATOM      5  C   UNL     1      45.076   3.616   9.347  0.00  0.00    +0.000 A 
ATOM      6  C   UNL     1      45.379   4.896   9.839  0.00  0.00    +0.000 A 
ENDROOT
BRANCH   5   7
ATOM      7  C   UNL     1      45.834   2.997   8.237  0.00  0.00    +0.000 A 
ATOM      8  C   UNL     1      46.208   3.737   7.099  0.00  0.00    +0.000 A 
ATOM      9  C   UNL     1      46.957   3.163   6.065  0.00  0.00    +0.000 A 
ATOM     10  C   UNL     1      47.339   1.828   6.139  0.00  0.00    +0.000 A 
ATOM     11  C   UNL     1      46.973   1.068   7.245  0.00  0.00    +0.000 A 
ATOM     12  C   UNL     1      46.233   1.648   8.281  0.00  0.00    +0.000 A 
ENDBRANCH   5   7
BRANCH   1  13
ATOM     13  C   UNL     1      45.042   6.791  11.492  0.00  0.00    +0.000 C 
BRANCH  13  14
ATOM     14  N   UNL     1      43.948   7.732  11.286  0.00  0.00    +0.000 N 
ATOM     15  H   UNL     1      43.121   7.529  11.842  0.00  0.00    +0.000 HD
BRANCH  14  22
ATOM     16  F   UNL     1      42.182   9.754  10.132  0.00  0.00    +0.000 F 
ATOM     17  C   UNL     1      43.350  10.082  10.704  0.00  0.00    +0.000 A 
ATOM     18  C   UNL     1      43.701  11.421  10.769  0.00  0.00    +0.000 A 
ATOM     19  N   UNL     1      44.846  11.879  11.322  0.00  0.00    +0.000 NA
ATOM     20  C   UNL     1      45.667  10.940  11.836  0.00  0.00    +0.000 A 
ATOM     21  C   UNL     1      45.402   9.575  11.807  0.00  0.00    +0.000 A 
ATOM     22  C   UNL     1      44.223   9.108  11.208  0.00  0.00    +0.000 A 
ENDBRANCH  14  22
ENDBRANCH  13  14
ENDBRANCH   1  13
TORSDOF 4
ENDMDL
MODEL 4
REMARK VINA RESULT:    -7.339      2.635      6.372
REMARK INTER + INTRA:          -9.951
REMARK INTER:                  -9.250
REMARK INTRA:                  -0.701
REMARK UNBOUND:                -0.896
REMARK  Name = 
REMARK  4 active torsions:
REMARK  status: ('A' for Active; 'I' for Inactive)
REMARK    1  A    between atoms: C_7  and  N_8
REMARK    2  A    between atoms: N_8  and  C_9
REMARK    3  A    between atoms: C_9  and  C_10
REMARK    4  A    between atoms: C_14  and  C_15
REMARK                            x       y       z     vdW  Elec       q    Type
REMARK                         _______ _______ _______ _____ _____    ______ ____
ROOT
ATOM      1  C   UNL     1      44.905   4.354  11.015  0.00  0.00    +0.000 A 
ATOM      2  C   UNL     1      44.863   3.717  12.247  0.00  0.00    +0.000 A 
ATOM      3  N   UNL     1      45.468   4.188  13.357  0.00  0.00    +0.000 NA
ATOM      4  C   UNL     1      46.145   5.358  13.233  0.00  0.00    +0.000 A 
ATOM      5  C   UNL     1      46.266   6.102  12.057  0.00  0.00    +0.000 A 
ATOM      6  C   UNL     1      45.632   5.552  10.932  0.00  0.00    +0.000 A 
ENDROOT
BRANCH   5   7
ATOM      7  C   UNL     1      46.989   7.392  12.004  0.00  0.00    +0.000 A 
ATOM      8  C   UNL     1      48.365   7.453  11.712  0.00  0.00    +0.000 A 
ATOM      9  C   UNL     1      49.042   8.675  11.625  0.00  0.00    +0.000 A 
ATOM     10  C   UNL     1      48.360   9.867  11.841  0.00  0.00    +0.000 A 
ATOM     11  C   UNL     1      47.003   9.838  12.144  0.00  0.00    +0.000 A 
ATOM     12  C   UNL     1      46.327   8.615  12.221  0.00  0.00    +0.000 A 
ENDBRANCH   5   7
BRANCH   1  13
ATOM     13  C   UNL     1      44.179   3.790   9.824  0.00  0.00    +0.000 C 
BRANCH  13  14
ATOM     14  N   UNL     1      44.916   4.080   8.601  0.00  0.00    +0.000 N 
ATOM     15  H   UNL     1      45.342   5.004   8.586  0.00  0.00    +0.000 HD
BRANCH  14  22
ATOM     16  F   UNL     1      47.148   4.571   6.778  0.00  0.00    +0.000 F 
ATOM     17  C   UNL     1      46.851   3.336   7.213  0.00  0.00    +0.000 A 
ATOM     18  C   UNL     1      47.650   2.282   6.802  0.00  0.00    +0.000 A 
ATOM     19  N   UNL     1      47.457   0.996   7.171  0.00  0.00    +0.000 NA
ATOM     20  C   UNL     1      46.414   0.771   7.996  0.00  0.00    +0.000 A 
ATOM     21  C   UNL     1      45.554   1.767   8.451  0.00  0.00    +0.000 A 
ATOM     22  C   UNL     1      45.747   3.093   8.042  0.00  0.00    +0.000 A 
ENDBRANCH  14  22
ENDBRANCH  13  14
ENDBRANCH   1  13
TORSDOF 4
ENDMDL
MODEL 5
REMARK VINA RESULT:    -6.993      1.507      2.069
REMARK INTER + INTRA:          -9.523
REMARK INTER:                  -8.907
REMARK INTRA:                  -0.616
REMARK UNBOUND:                -0.896
REMARK  Name = 
REMARK  4 active torsions:
REMARK  status: ('A' for Active; 'I' for Inactive)
REMARK    1  A    between atoms: C_7  and  N_8
REMARK    2  A    between atoms: N_8  and  C_9
REMARK    3  A    between atoms: C_9  and  C_10
REMARK    4  A    between atoms: C_14  and  C_15
REMARK                            x       y       z     vdW  Elec       q    Type
REMARK                         _______ _______ _______ _____ _____    ______ ____
ROOT
ATOM      1  C   UNL     1      44.310   5.500  11.259  0.00  0.00    +0.000 A 
ATOM      2  C   UNL     1      43.359   4.675  11.841  0.00  0.00    +0.000 A 
ATOM      3  N   UNL     1      43.110   3.412  11.437  0.00  0.00    +0.000 NA
ATOM      4  C   UNL     1      43.852   2.947  10.400  0.00  0.00    +0.000 A 
ATOM      5  C   UNL     1      44.840   3.667   9.724  0.00  0.00    +0.000 A 
ATOM      6  C   UNL     1      45.041   4.980  10.178  0.00  0.00    +0.000 A 
ENDROOT
BRANCH   5   7
ATOM      7  C   UNL     1      45.639   3.081   8.625  0.00  0.00    +0.000 A 
ATOM      8  C   UNL     1      45.921   1.703   8.575  0.00  0.00    +0.000 A 
ATOM      9  C   UNL     1      46.645   1.141   7.516  0.00  0.00    +0.000 A 
ATOM     10  C   UNL     1      47.115   1.949   6.487  0.00  0.00    +0.000 A 
ATOM     11  C   UNL     1      46.864   3.316   6.516  0.00  0.00    +0.000 A 
ATOM     12  C   UNL     1      46.131   3.873   7.570  0.00  0.00    +0.000 A 
ENDBRANCH   5   7
BRANCH   1  13
ATOM     13  C   UNL     1      44.561   6.888  11.781  0.00  0.00    +0.000 C 
BRANCH  13  14
ATOM     14  N   UNL     1      45.475   6.845  12.914  0.00  0.00    +0.000 N 
ATOM     15  H   UNL     1      45.581   5.919  13.321  0.00  0.00    +0.000 HD
BRANCH  14  22
ATOM     16  F   UNL     1      47.515   6.540  10.843  0.00  0.00    +0.000 F 
ATOM     17  C   UNL     1      47.640   7.442  11.829  0.00  0.00    +0.000 A 
ATOM     18  C   UNL     1      48.756   8.263  11.835  0.00  0.00    +0.000 A 
ATOM     19  N   UNL     1      48.995   9.210  12.769  0.00  0.00    +0.000 NA
ATOM     20  C   UNL     1      48.060   9.334  13.734  0.00  0.00    +0.000 A 
ATOM     21  C   UNL     1      46.915   8.547  13.812  0.00  0.00    +0.000 A 
ATOM     22  C   UNL     1      46.689   7.550  12.853  0.00  0.00    +0.000 A 
ENDBRANCH  14  22
ENDBRANCH  13  14
ENDBRANCH   1  13
TORSDOF 4
ENDMDL
MODEL 6
REMARK VINA RESULT:    -6.739      2.200      6.091
REMARK INTER + INTRA:          -9.211
REMARK INTER:                  -8.459
REMARK INTRA:                  -0.751
REMARK UNBOUND:                -0.896
REMARK  Name = 
REMARK  4 active torsions:
REMARK  status: ('A' for Active; 'I' for Inactive)
REMARK    1  A    between atoms: C_7  and  N_8
REMARK    2  A    between atoms: N_8  and  C_9
REMARK    3  A    between atoms: C_9  and  C_10
REMARK    4  A    between atoms: C_14  and  C_15
REMARK                            x       y       z     vdW  Elec       q    Type
REMARK                         _______ _______ _______ _____ _____    ______ ____
ROOT
ATOM      1  C   UNL     1      45.482   5.573  12.325  0.00  0.00    +0.000 A 
ATOM      2  C   UNL     1      46.103   4.679  13.185  0.00  0.00    +0.000 A 
ATOM      3  N   UNL     1      47.365   4.826  13.638  0.00  0.00    +0.000 NA
ATOM      4  C   UNL     1      48.041   5.924  13.214  0.00  0.00    +0.000 A 
ATOM      5  C   UNL     1      47.538   6.901  12.352  0.00  0.00    +0.000 A 
ATOM      6  C   UNL     1      46.227   6.684  11.900  0.00  0.00    +0.000 A 
ENDROOT
BRANCH   5   7
ATOM      7  C   UNL     1      48.321   8.095  11.962  0.00  0.00    +0.000 A 
ATOM      8  C   UNL     1      47.736   9.374  11.913  0.00  0.00    +0.000 A 
ATOM      9  C   UNL     1      48.483  10.510  11.579  0.00  0.00    +0.000 A 
ATOM     10  C   UNL     1      49.835  10.390  11.275  0.00  0.00    +0.000 A 
ATOM     11  C   UNL     1      50.438   9.138  11.302  0.00  0.00    +0.000 A 
ATOM     12  C   UNL     1      49.690   8.006  11.644  0.00  0.00    +0.000 A 
ENDBRANCH   5   7
BRANCH   1  13
ATOM     13  C   UNL     1      44.058   5.367  11.884  0.00  0.00    +0.000 C 
BRANCH  13  14
ATOM     14  N   UNL     1      43.983   5.309  10.430  0.00  0.00    +0.000 N 
ATOM     15  H   UNL     1      44.114   6.210   9.976  0.00  0.00    +0.000 HD
BRANCH  14  22
ATOM     16  F   UNL     1      43.512   2.459  10.871  0.00  0.00    +0.000 F 
ATOM     17  C   UNL     1      44.350   2.896   9.919  0.00  0.00    +0.000 A 
ATOM     18  C   UNL     1      44.978   1.961   9.113  0.00  0.00    +0.000 A 
ATOM     19  N   UNL     1      45.839   2.273   8.119  0.00  0.00    +0.000 NA
ATOM     20  C   UNL     1      46.069   3.589   7.932  0.00  0.00    +0.000 A 
ATOM     21  C   UNL     1      45.491   4.596   8.699  0.00  0.00    +0.000 A 
ATOM     22  C   UNL     1      44.618   4.260   9.744  0.00  0.00    +0.000 A 
ENDBRANCH  14  22
ENDBRANCH  13  14
ENDBRANCH   1  13
TORSDOF 4
ENDMDL
MODEL 7
REMARK VINA RESULT:    -6.679      1.527      2.325
REMARK INTER + INTRA:          -9.137
REMARK INTER:                  -8.312
REMARK INTRA:                  -0.825
REMARK UNBOUND:                -0.896
REMARK  Name = 
REMARK  4 active torsions:
REMARK  status: ('A' for Active; 'I' for Inactive)
REMARK    1  A    between atoms: C_7  and  N_8
REMARK    2  A    between atoms: N_8  and  C_9
REMARK    3  A    between atoms: C_9  and  C_10
REMARK    4  A    between atoms: C_14  and  C_15
REMARK                            x       y       z     vdW  Elec       q    Type
REMARK                         _______ _______ _______ _____ _____    ______ ____
ROOT
ATOM      1  C   UNL     1      44.702   3.666  11.475  0.00  0.00    +0.000 A 
ATOM      2  C   UNL     1      43.664   4.516  11.123  0.00  0.00    +0.000 A 
ATOM      3  N   UNL     1      43.367   4.853   9.851  0.00  0.00    +0.000 NA
ATOM      4  C   UNL     1      44.143   4.310   8.879  0.00  0.00    +0.000 A 
ATOM      5  C   UNL     1      45.217   3.442   9.092  0.00  0.00    +0.000 A 
ATOM      6  C   UNL     1      45.489   3.143  10.437  0.00  0.00    +0.000 A 
ENDROOT
BRANCH   5   7
ATOM      7  C   UNL     1      45.997   2.856   7.980  0.00  0.00    +0.000 A 
ATOM      8  C   UNL     1      46.433   1.518   8.011  0.00  0.00    +0.000 A 
ATOM      9  C   UNL     1      47.139   0.951   6.943  0.00  0.00    +0.000 A 
ATOM     10  C   UNL     1      47.437   1.716   5.821  0.00  0.00    +0.000 A 
ATOM     11  C   UNL     1      47.032   3.045   5.766  0.00  0.00    +0.000 A 
ATOM     12  C   UNL     1      46.318   3.605   6.831  0.00  0.00    +0.000 A 
ENDBRANCH   5   7
BRANCH   1  13
ATOM     13  C   UNL     1      44.959   3.305  12.913  0.00  0.00    +0.000 C 
BRANCH  13  14
ATOM     14  N   UNL     1      45.088   4.510  13.721  0.00  0.00    +0.000 N 
ATOM     15  H   UNL     1      44.520   4.502  14.565  0.00  0.00    +0.000 HD
BRANCH  14  22
ATOM     16  F   UNL     1      46.439   6.378  11.924  0.00  0.00    +0.000 F 
ATOM     17  C   UNL     1      46.981   6.010  13.095  0.00  0.00    +0.000 A 
ATOM     18  C   UNL     1      48.198   6.560  13.461  0.00  0.00    +0.000 A 
ATOM     19  N   UNL     1      48.844   6.272  14.613  0.00  0.00    +0.000 NA
ATOM     20  C   UNL     1      48.227   5.395  15.430  0.00  0.00    +0.000 A 
ATOM     21  C   UNL     1      47.009   4.786  15.140  0.00  0.00    +0.000 A 
ATOM     22  C   UNL     1      46.360   5.072  13.931  0.00  0.00    +0.000 A 
ENDBRANCH  14  22
ENDBRANCH  13  14
ENDBRANCH   1  13
TORSDOF 4
ENDMDL
MODEL 8
REMARK VINA RESULT:    -6.616      1.767      2.753
REMARK INTER + INTRA:          -9.059
REMARK INTER:                  -8.231
REMARK INTRA:                  -0.827
REMARK UNBOUND:                -0.896
REMARK  Name = 
REMARK  4 active torsions:
REMARK  status: ('A' for Active; 'I' for Inactive)
REMARK    1  A    between atoms: C_7  and  N_8
REMARK    2  A    between atoms: N_8  and  C_9
REMARK    3  A    between atoms: C_9  and  C_10
REMARK    4  A    between atoms: C_14  and  C_15
REMARK                            x       y       z     vdW  Elec       q    Type
REMARK                         _______ _______ _______ _____ _____    ______ ____
ROOT
ATOM      1  C   UNL     1      45.385   6.245  12.049  0.00  0.00    +0.000 A 
ATOM      2  C   UNL     1      44.016   6.219  12.274  0.00  0.00    +0.000 A 
ATOM      3  N   UNL     1      43.148   5.485  11.547  0.00  0.00    +0.000 NA
ATOM      4  C   UNL     1      43.674   4.735  10.546  0.00  0.00    +0.000 A 
ATOM      5  C   UNL     1      45.029   4.667  10.211  0.00  0.00    +0.000 A 
ATOM      6  C   UNL     1      45.880   5.466  10.991  0.00  0.00    +0.000 A 
ENDROOT
BRANCH   5   7
ATOM      7  C   UNL     1      45.537   3.795   9.128  0.00  0.00    +0.000 A 
ATOM      8  C   UNL     1      45.451   2.393   9.212  0.00  0.00    +0.000 A 
ATOM      9  C   UNL     1      45.898   1.568   8.173  0.00  0.00    +0.000 A 
ATOM     10  C   UNL     1      46.453   2.128   7.028  0.00  0.00    +0.000 A 
ATOM     11  C   UNL     1      46.563   3.510   6.921  0.00  0.00    +0.000 A 
ATOM     12  C   UNL     1      46.107   4.332   7.958  0.00  0.00    +0.000 A 
ENDBRANCH   5   7
BRANCH   1  13
ATOM     13  C   UNL     1      46.301   7.060  12.919  0.00  0.00    +0.000 C 
BRANCH  13  14
ATOM     14  N   UNL     1      47.516   6.313  13.214  0.00  0.00    +0.000 N 
ATOM     15  H   UNL     1      48.369   6.781  12.915  0.00  0.00    +0.000 HD
BRANCH  14  22
ATOM     16  F   UNL     1      46.304   3.763  13.969  0.00  0.00    +0.000 F 
ATOM     17  C   UNL     1      47.118   4.430  14.801  0.00  0.00    +0.000 A 
ATOM     18  C   UNL     1      47.407   3.869  16.034  0.00  0.00    +0.000 A 
ATOM     19  N   UNL     1      48.213   4.439  16.957  0.00  0.00    +0.000 NA
ATOM     20  C   UNL     1      48.755   5.625  16.612  0.00  0.00    +0.000 A 
ATOM     21  C   UNL     1      48.514   6.267  15.400  0.00  0.00    +0.000 A 
ATOM     22  C   UNL     1      47.656   5.679  14.460  0.00  0.00    +0.000 A 
ENDBRANCH  14  22
ENDBRANCH  13  14
ENDBRANCH   1  13
TORSDOF 4
ENDMDL
MODEL 9
REMARK VINA RESULT:    -6.422      2.534      4.674
REMARK INTER + INTRA:          -8.819
REMARK INTER:                  -7.996
REMARK INTRA:                  -0.823
REMARK UNBOUND:                -0.896
REMARK  Name = 
REMARK  4 active torsions:
REMARK  status: ('A' for Active; 'I' for Inactive)
REMARK    1  A    between atoms: C_7  and  N_8
REMARK    2  A    between atoms: N_8  and  C_9
REMARK    3  A    between atoms: C_9  and  C_10
REMARK    4  A    between atoms: C_14  and  C_15
REMARK                            x       y       z     vdW  Elec       q    Type
REMARK                         _______ _______ _______ _____ _____    ______ ____
ROOT
ATOM      1  C   UNL     1      47.361   7.043  13.314  0.00  0.00    +0.000 A 
ATOM      2  C   UNL     1      46.600   8.203  13.289  0.00  0.00    +0.000 A 
ATOM      3  N   UNL     1      45.516   8.373  12.504  0.00  0.00    +0.000 NA
ATOM      4  C   UNL     1      45.171   7.331  11.705  0.00  0.00    +0.000 A 
ATOM      5  C   UNL     1      45.847   6.110  11.631  0.00  0.00    +0.000 A 
ATOM      6  C   UNL     1      46.977   5.999  12.457  0.00  0.00    +0.000 A 
ENDROOT
BRANCH   5   7
ATOM      7  C   UNL     1      45.391   5.002  10.763  0.00  0.00    +0.000 A 
ATOM      8  C   UNL     1      44.769   3.857  11.297  0.00  0.00    +0.000 A 
ATOM      9  C   UNL     1      44.304   2.824  10.475  0.00  0.00    +0.000 A 
ATOM     10  C   UNL     1      44.461   2.907   9.096  0.00  0.00    +0.000 A 
ATOM     11  C   UNL     1      45.083   4.019   8.540  0.00  0.00    +0.000 A 
ATOM     12  C   UNL     1      45.538   5.055   9.364  0.00  0.00    +0.000 A 
ENDBRANCH   5   7
BRANCH   1  13
ATOM     13  C   UNL     1      48.540   6.906  14.239  0.00  0.00    +0.000 C 
BRANCH  13  14
ATOM     14  N   UNL     1      48.087   6.735  15.613  0.00  0.00    +0.000 N 
ATOM     15  H   UNL     1      47.164   7.123  15.792  0.00  0.00    +0.000 HD
BRANCH  14  22
ATOM     16  F   UNL     1      46.503   4.313  15.207  0.00  0.00    +0.000 F 
ATOM     17  C   UNL     1      47.566   4.331  16.025  0.00  0.00    +0.000 A 
ATOM     18  C   UNL     1      47.927   3.156  16.664  0.00  0.00    +0.000 A 
ATOM     19  N   UNL     1      48.977   3.045  17.509  0.00  0.00    +0.000 NA
ATOM     20  C   UNL     1      49.694   4.170  17.708  0.00  0.00    +0.000 A 
ATOM     21  C   UNL     1      49.398   5.395  17.117  0.00  0.00    +0.000 A 
ATOM     22  C   UNL     1      48.292   5.506  16.263  0.00  0.00    +0.000 A 
ENDBRANCH  14  22
ENDBRANCH  13  14
ENDBRANCH   1  13
TORSDOF 4
ENDMDL
