MODEL 1
REMARK VINA RESULT:    -6.289      0.000      0.000
REMARK INTER + INTRA:          -9.268
REMARK INTER:                  -8.863
REMARK INTRA:                  -0.405
REMARK UNBOUND:                -0.405
REMARK  Name = 
REMARK  8 active torsions:
REMARK  status: ('A' for Active; 'I' for Inactive)
REMARK    1  A    between atoms: N_1  and  C_2
REMARK    2  A    between atoms: C_2  and  C_3
REMARK    3  A    between atoms: C_7  and  C_8
REMARK    4  A    between atoms: C_9  and  N_10
REMARK    5  A    between atoms: C_14  and  C_15
REMARK    6  A    between atoms: C_15  and  C_16
REMARK    7  A    between atoms: C_16  and  C_17
REMARK    8  A    between atoms: C_17  and  O_18
REMARK                            x       y       z     vdW  Elec       q    Type
REMARK                         _______ _______ _______ _____ _____    ______ ____
ROOT
ATOM      1  N   UNL     1      45.820   5.645  12.927  0.00  0.00    +0.000 N 
ATOM      2  C   UNL     1      45.537   5.030  11.700  0.00  0.00    +0.000 A 
ATOM      3  C   UNL     1      45.196   3.680  11.634  0.00  0.00    +0.000 A 
ATOM      4  C   UNL     1      45.019   3.061  10.398  0.00  0.00    +0.000 A 
ATOM      5  C   UNL     1      45.167   3.809   9.238  0.00  0.00    +0.000 A 
ATOM      6  C   UNL     1      45.443   5.164   9.393  0.00  0.00    +0.000 A 
ATOM      7  N   UNL     1      45.623   5.785  10.587  0.00  0.00    +0.000 NA
ATOM      8  H   UNL     1      45.994   6.641  12.832  0.00  0.00    +0.000 HD
ENDROOT
BRANCH   1  10
ATOM      9  C   UNL     1      47.387   5.330  14.799  0.00  0.00    +0.000 C 
ATOM     10  C   UNL     1      46.338   5.012  14.030  0.00  0.00    +0.000 C 
BRANCH   9  15
ATOM     11  C   UNL     1      48.159   4.386  18.386  0.00  0.00    +0.000 A 
ATOM     12  C   UNL     1      48.295   2.995  18.277  0.00  0.00    +0.000 A 
ATOM     13  C   UNL     1      48.202   2.371  17.037  0.00  0.00    +0.000 A 
ATOM     14  C   UNL     1      47.946   3.130  15.896  0.00  0.00    +0.000 A 
ATOM     15  C   UNL     1      47.750   4.518  15.978  0.00  0.00    +0.000 A 
ATOM     16  C   UNL     1      47.890   5.139  17.227  0.00  0.00    +0.000 A 
BRANCH  11  17
ATOM     17  C   UNL     1      48.244   5.053  19.737  0.00  0.00    +0.000 C 
BRANCH  17  18
ATOM     18  N   UNL     1      48.501   4.091  20.804  0.00  0.00    +0.000 NA
ATOM     19  H   UNL     1      48.164   3.176  20.513  0.00  0.00    +0.000 HD
ATOM     20  H   UNL     1      47.951   4.356  21.621  0.00  0.00    +0.000 HD
ENDBRANCH  17  18
ENDBRANCH  11  17
ENDBRANCH   9  15
ENDBRANCH   1  10
BRANCH   5  21
ATOM     21  C   UNL     1      45.030   3.164   7.885  0.00  0.00    +0.000 C 
BRANCH  21  22
ATOM     22  C   UNL     1      46.356   2.963   7.150  0.00  0.00    +0.000 C 
BRANCH  22  23
ATOM     23  C   UNL     1      46.985   1.595   7.389  0.00  0.00    +0.000 C 
BRANCH  23  24
ATOM     24  O   UNL     1      48.173   1.476   6.614  0.00  0.00    +0.000 OA
ATOM     25  H   UNL     1      48.059   0.727   6.005  0.00  0.00    +0.000 HD
ENDBRANCH  23  24
ENDBRANCH  22  23
ENDBRANCH  21  22
ENDBRANCH   5  21
TORSDOF 8
ENDMDL
MODEL 2
REMARK VINA RESULT:    -6.184      5.093      7.295
REMARK INTER + INTRA:          -9.120
REMARK INTER:                  -8.658
REMARK INTRA:                  -0.462
REMARK UNBOUND:                -0.405
REMARK  Name = 
REMARK  8 active torsions:
REMARK  status: ('A' for Active; 'I' for Inactive)
REMARK    1  A    between atoms: N_1  and  C_2
REMARK    2  A    between atoms: C_2  and  C_3
REMARK    3  A    between atoms: C_7  and  C_8
REMARK    4  A    between atoms: C_9  and  N_10
REMARK    5  A    between atoms: C_14  and  C_15
REMARK    6  A    between atoms: C_15  and  C_16
REMARK    7  A    between atoms: C_16  and  C_17
REMARK    8  A    between atoms: C_17  and  O_18
REMARK                            x       y       z     vdW  Elec       q    Type
REMARK                         _______ _______ _______ _____ _____    ______ ____
ROOT
ATOM      1  N   UNL     1      44.658   5.921  11.842  0.00  0.00    +0.000 N 
ATOM      2  C   UNL     1      45.011   5.003  10.842  0.00  0.00    +0.000 A 
ATOM      3  C   UNL     1      45.612   5.424   9.658  0.00  0.00    +0.000 A 
ATOM      4  C   UNL     1      45.860   4.512   8.634  0.00  0.00    +0.000 A 
ATOM      5  C   UNL     1      45.520   3.178   8.818  0.00  0.00    +0.000 A 
ATOM      6  C   UNL     1      44.985   2.828  10.053  0.00  0.00    +0.000 A 
ATOM      7  N   UNL     1      44.731   3.703  11.062  0.00  0.00    +0.000 NA
ATOM      8  H   UNL     1      44.285   5.469  12.671  0.00  0.00    +0.000 HD
ENDROOT
BRANCH   1  10
ATOM      9  C   UNL     1      45.062   8.346  11.730  0.00  0.00    +0.000 C 
ATOM     10  C   UNL     1      44.322   7.234  11.627  0.00  0.00    +0.000 C 
BRANCH   9  15
ATOM     11  C   UNL     1      42.598  11.025  10.682  0.00  0.00    +0.000 A 
ATOM     12  C   UNL     1      43.341  12.188  10.923  0.00  0.00    +0.000 A 
ATOM     13  C   UNL     1      44.660  12.105  11.363  0.00  0.00    +0.000 A 
ATOM     14  C   UNL     1      45.238  10.857  11.590  0.00  0.00    +0.000 A 
ATOM     15  C   UNL     1      44.502   9.674  11.410  0.00  0.00    +0.000 A 
ATOM     16  C   UNL     1      43.191   9.772  10.925  0.00  0.00    +0.000 A 
BRANCH  11  17
ATOM     17  C   UNL     1      41.163  11.124  10.222  0.00  0.00    +0.000 C 
BRANCH  17  18
ATOM     18  N   UNL     1      40.353  10.020  10.729  0.00  0.00    +0.000 NA
ATOM     19  H   UNL     1      40.919   9.453  11.354  0.00  0.00    +0.000 HD
ATOM     20  H   UNL     1      40.095   9.419   9.946  0.00  0.00    +0.000 HD
ENDBRANCH  17  18
ENDBRANCH  11  17
ENDBRANCH   9  15
ENDBRANCH   1  10
BRANCH   5  21
ATOM     21  C   UNL     1      45.731   2.174   7.717  0.00  0.00    +0.000 C 
BRANCH  21  22
ATOM     22  C   UNL     1      46.663   2.653   6.603  0.00  0.00    +0.000 C 
BRANCH  22  23
ATOM     23  C   UNL     1      48.075   2.086   6.703  0.00  0.00    +0.000 C 
BRANCH  23  24
ATOM     24  O   UNL     1      48.567   1.801   5.398  0.00  0.00    +0.000 OA
ATOM     25  H   UNL     1      48.801   2.644   4.976  0.00  0.00    +0.000 HD
ENDBRANCH  23  24
ENDBRANCH  22  23
ENDBRANCH  21  22
ENDBRANCH   5  21
TORSDOF 8
ENDMDL
MODEL 3
REMARK VINA RESULT:    -5.930      1.541      1.949
REMARK INTER + INTRA:          -8.762
REMARK INTER:                  -8.300
REMARK INTRA:                  -0.461
REMARK UNBOUND:                -0.405
REMARK  Name = 
REMARK  8 active torsions:
REMARK  status: ('A' for Active; 'I' for Inactive)
REMARK    1  A    between atoms: N_1  and  C_2
REMARK    2  A    between atoms: C_2  and  C_3
REMARK    3  A    between atoms: C_7  and  C_8
REMARK    4  A    between atoms: C_9  and  N_10
REMARK    5  A    between atoms: C_14  and  C_15
REMARK    6  A    between atoms: C_15  and  C_16
REMARK    7  A    between atoms: C_16  and  C_17
REMARK    8  A    between atoms: C_17  and  O_18
REMARK                            x       y       z     vdW  Elec       q    Type
REMARK                         _______ _______ _______ _____ _____    ______ ____
ROOT
ATOM      1  N   UNL     1      46.495   6.302  12.913  0.00  0.00    +0.000 N 
ATOM      2  C   UNL     1      45.923   5.422  11.983  0.00  0.00    +0.000 A 
ATOM      3  C   UNL     1      45.531   4.137  12.353  0.00  0.00    +0.000 A 
ATOM      4  C   UNL     1      45.061   3.244  11.393  0.00  0.00    +0.000 A 
ATOM      5  C   UNL     1      44.970   3.655  10.070  0.00  0.00    +0.000 A 
ATOM      6  C   UNL     1      45.319   4.974   9.795  0.00  0.00    +0.000 A 
ATOM      7  N   UNL     1      45.783   5.859  10.716  0.00  0.00    +0.000 NA
ATOM      8  H   UNL     1      46.676   7.220  12.520  0.00  0.00    +0.000 HD
ENDROOT
BRANCH   1  10
ATOM      9  C   UNL     1      48.092   6.623  14.759  0.00  0.00    +0.000 C 
ATOM     10  C   UNL     1      47.225   5.925  14.014  0.00  0.00    +0.000 C 
BRANCH   9  15
ATOM     11  C   UNL     1      48.746   4.325  17.699  0.00  0.00    +0.000 A 
ATOM     12  C   UNL     1      50.016   4.757  18.104  0.00  0.00    +0.000 A 
ATOM     13  C   UNL     1      50.632   5.831  17.469  0.00  0.00    +0.000 A 
ATOM     14  C   UNL     1      49.994   6.467  16.405  0.00  0.00    +0.000 A 
ATOM     15  C   UNL     1      48.745   6.025  15.940  0.00  0.00    +0.000 A 
ATOM     16  C   UNL     1      48.117   4.971  16.617  0.00  0.00    +0.000 A 
BRANCH  11  17
ATOM     17  C   UNL     1      48.091   3.149  18.381  0.00  0.00    +0.000 C 
BRANCH  17  18
ATOM     18  N   UNL     1      46.803   2.818  17.778  0.00  0.00    +0.000 NA
ATOM     19  H   UNL     1      46.827   3.062  16.791  0.00  0.00    +0.000 HD
ATOM     20  H   UNL     1      46.084   3.403  18.203  0.00  0.00    +0.000 HD
ENDBRANCH  17  18
ENDBRANCH  11  17
ENDBRANCH   9  15
ENDBRANCH   1  10
BRANCH   5  21
ATOM     21  C   UNL     1      44.511   2.702   9.000  0.00  0.00    +0.000 C 
BRANCH  21  22
ATOM     22  C   UNL     1      45.521   1.603   8.666  0.00  0.00    +0.000 C 
BRANCH  22  23
ATOM     23  C   UNL     1      46.602   2.045   7.686  0.00  0.00    +0.000 C 
BRANCH  23  24
ATOM     24  O   UNL     1      47.394   0.923   7.313  0.00  0.00    +0.000 OA
ATOM     25  H   UNL     1      48.089   1.235   6.709  0.00  0.00    +0.000 HD
ENDBRANCH  23  24
ENDBRANCH  22  23
ENDBRANCH  21  22
ENDBRANCH   5  21
TORSDOF 8
ENDMDL
MODEL 4
REMARK VINA RESULT:    -5.919      2.274      3.616
REMARK INTER + INTRA:          -8.746
REMARK INTER:                  -8.275
REMARK INTRA:                  -0.471
REMARK UNBOUND:                -0.405
REMARK  Name = 
REMARK  8 active torsions:
REMARK  status: ('A' for Active; 'I' for Inactive)
REMARK    1  A    between atoms: N_1  and  C_2
REMARK    2  A    between atoms: C_2  and  C_3
REMARK    3  A    between atoms: C_7  and  C_8
REMARK    4  A    between atoms: C_9  and  N_10
REMARK    5  A    between atoms: C_14  and  C_15
REMARK    6  A    between atoms: C_15  and  C_16
REMARK    7  A    between atoms: C_16  and  C_17
REMARK    8  A    between atoms: C_17  and  O_18
REMARK                            x       y       z     vdW  Elec       q    Type
REMARK                         _______ _______ _______ _____ _____    ______ ____
ROOT
ATOM      1  N   UNL     1      47.352   3.393  15.187  0.00  0.00    +0.000 N 
ATOM      2  C   UNL     1      46.769   3.904  14.019  0.00  0.00    +0.000 A 
ATOM      3  C   UNL     1      46.867   5.256  13.697  0.00  0.00    +0.000 A 
ATOM      4  C   UNL     1      46.194   5.763  12.587  0.00  0.00    +0.000 A 
ATOM      5  C   UNL     1      45.444   4.903  11.797  0.00  0.00    +0.000 A 
ATOM      6  C   UNL     1      45.452   3.556  12.149  0.00  0.00    +0.000 A 
ATOM      7  N   UNL     1      46.097   3.043  13.229  0.00  0.00    +0.000 NA
ATOM      8  H   UNL     1      47.254   2.385  15.263  0.00  0.00    +0.000 HD
ENDROOT
BRANCH   1  10
ATOM      9  C   UNL     1      47.983   3.693  17.547  0.00  0.00    +0.000 C 
ATOM     10  C   UNL     1      47.555   4.102  16.346  0.00  0.00    +0.000 C 
BRANCH   9  15
ATOM     11  C   UNL     1      47.896   6.906  19.553  0.00  0.00    +0.000 A 
ATOM     12  C   UNL     1      48.368   6.463  20.796  0.00  0.00    +0.000 A 
ATOM     13  C   UNL     1      48.775   5.143  20.967  0.00  0.00    +0.000 A 
ATOM     14  C   UNL     1      48.689   4.247  19.903  0.00  0.00    +0.000 A 
ATOM     15  C   UNL     1      48.169   4.645  18.661  0.00  0.00    +0.000 A 
ATOM     16  C   UNL     1      47.805   5.988  18.490  0.00  0.00    +0.000 A 
BRANCH  11  17
ATOM     17  C   UNL     1      47.440   8.335  19.379  0.00  0.00    +0.000 C 
BRANCH  17  18
ATOM     18  N   UNL     1      47.568   8.782  17.995  0.00  0.00    +0.000 NA
ATOM     19  H   UNL     1      47.192   9.724  17.916  0.00  0.00    +0.000 HD
ATOM     20  H   UNL     1      46.986   8.187  17.406  0.00  0.00    +0.000 HD
ENDBRANCH  17  18
ENDBRANCH  11  17
ENDBRANCH   9  15
ENDBRANCH   1  10
BRANCH   5  21
ATOM     21  C   UNL     1      44.667   5.424  10.619  0.00  0.00    +0.000 C 
BRANCH  21  22
ATOM     22  C   UNL     1      44.014   4.333   9.768  0.00  0.00    +0.000 C 
BRANCH  22  23
ATOM     23  C   UNL     1      44.765   4.038   8.474  0.00  0.00    +0.000 C 
BRANCH  23  24
ATOM     24  O   UNL     1      45.745   5.045   8.251  0.00  0.00    +0.000 OA
ATOM     25  H   UNL     1      45.296   5.907   8.263  0.00  0.00    +0.000 HD
ENDBRANCH  23  24
ENDBRANCH  22  23
ENDBRANCH  21  22
ENDBRANCH   5  21
TORSDOF 8
ENDMDL
MODEL 5
REMARK VINA RESULT:    -5.882      2.080      2.724
REMARK INTER + INTRA:          -8.694
REMARK INTER:                  -8.223
REMARK INTRA:                  -0.471
REMARK UNBOUND:                -0.405
REMARK  Name = 
REMARK  8 active torsions:
REMARK  status: ('A' for Active; 'I' for Inactive)
REMARK    1  A    between atoms: N_1  and  C_2
REMARK    2  A    between atoms: C_2  and  C_3
REMARK    3  A    between atoms: C_7  and  C_8
REMARK    4  A    between atoms: C_9  and  N_10
REMARK    5  A    between atoms: C_14  and  C_15
REMARK    6  A    between atoms: C_15  and  C_16
REMARK    7  A    between atoms: C_16  and  C_17
REMARK    8  A    between atoms: C_17  and  O_18
REMARK                            x       y       z     vdW  Elec       q    Type
REMARK                         _______ _______ _______ _____ _____    ______ ____
ROOT
ATOM      1  N   UNL     1      46.913   6.401  13.901  0.00  0.00    +0.000 N 
ATOM      2  C   UNL     1      46.246   5.654  12.919  0.00  0.00    +0.000 A 
ATOM      3  C   UNL     1      45.854   4.338  13.158  0.00  0.00    +0.000 A 
ATOM      4  C   UNL     1      45.287   3.579  12.137  0.00  0.00    +0.000 A 
ATOM      5  C   UNL     1      45.098   4.156  10.888  0.00  0.00    +0.000 A 
ATOM      6  C   UNL     1      45.456   5.494  10.751  0.00  0.00    +0.000 A 
ATOM      7  N   UNL     1      46.014   6.249  11.732  0.00  0.00    +0.000 NA
ATOM      8  H   UNL     1      47.083   7.359  13.612  0.00  0.00    +0.000 HD
ENDROOT
BRANCH   1  10
ATOM      9  C   UNL     1      48.511   6.492  15.771  0.00  0.00    +0.000 C 
ATOM     10  C   UNL     1      47.720   5.878  14.881  0.00  0.00    +0.000 C 
BRANCH   9  15
ATOM     11  C   UNL     1      50.175   3.585  17.540  0.00  0.00    +0.000 A 
ATOM     12  C   UNL     1      50.838   4.245  18.583  0.00  0.00    +0.000 A 
ATOM     13  C   UNL     1      50.695   5.619  18.753  0.00  0.00    +0.000 A 
ATOM     14  C   UNL     1      49.908   6.350  17.864  0.00  0.00    +0.000 A 
ATOM     15  C   UNL     1      49.274   5.727  16.776  0.00  0.00    +0.000 A 
ATOM     16  C   UNL     1      49.391   4.337  16.644  0.00  0.00    +0.000 A 
BRANCH  11  17
ATOM     17  C   UNL     1      50.348   2.097  17.352  0.00  0.00    +0.000 C 
BRANCH  17  18
ATOM     18  N   UNL     1      49.667   1.618  16.153  0.00  0.00    +0.000 NA
ATOM     19  H   UNL     1      49.961   0.662  15.965  0.00  0.00    +0.000 HD
ATOM     20  H   UNL     1      49.975   2.177  15.358  0.00  0.00    +0.000 HD
ENDBRANCH  17  18
ENDBRANCH  11  17
ENDBRANCH   9  15
ENDBRANCH   1  10
BRANCH   5  21
ATOM     21  C   UNL     1      44.531   3.352   9.749  0.00  0.00    +0.000 C 
BRANCH  21  22
ATOM     22  C   UNL     1      44.746   3.981   8.372  0.00  0.00    +0.000 C 
BRANCH  22  23
ATOM     23  C   UNL     1      45.885   3.345   7.582  0.00  0.00    +0.000 C 
BRANCH  23  24
ATOM     24  O   UNL     1      46.770   4.361   7.122  0.00  0.00    +0.000 OA
ATOM     25  H   UNL     1      46.237   5.044   6.681  0.00  0.00    +0.000 HD
ENDBRANCH  23  24
ENDBRANCH  22  23
ENDBRANCH  21  22
ENDBRANCH   5  21
TORSDOF 8
ENDMDL
MODEL 6
REMARK VINA RESULT:    -5.875      2.020      3.465
REMARK INTER + INTRA:          -8.685
REMARK INTER:                  -8.237
REMARK INTRA:                  -0.448
REMARK UNBOUND:                -0.405
REMARK  Name = 
REMARK  8 active torsions:
REMARK  status: ('A' for Active; 'I' for Inactive)
REMARK    1  A    between atoms: N_1  and  C_2
REMARK    2  A    between atoms: C_2  and  C_3
REMARK    3  A    between atoms: C_7  and  C_8
REMARK    4  A    between atoms: C_9  and  N_10
REMARK    5  A    between atoms: C_14  and  C_15
REMARK    6  A    between atoms: C_15  and  C_16
REMARK    7  A    between atoms: C_16  and  C_17
REMARK    8  A    between atoms: C_17  and  O_18
REMARK                            x       y       z     vdW  Elec       q    Type
REMARK                         _______ _______ _______ _____ _____    ______ ____
ROOT
ATOM      1  N   UNL     1      47.298   3.786  15.228  0.00  0.00    +0.000 N 
ATOM      2  C   UNL     1      46.694   4.123  14.009  0.00  0.00    +0.000 A 
ATOM      3  C   UNL     1      46.672   5.442  13.556  0.00  0.00    +0.000 A 
ATOM      4  C   UNL     1      45.978   5.772  12.394  0.00  0.00    +0.000 A 
ATOM      5  C   UNL     1      45.328   4.771  11.684  0.00  0.00    +0.000 A 
ATOM      6  C   UNL     1      45.455   3.473  12.167  0.00  0.00    +0.000 A 
ATOM      7  N   UNL     1      46.122   3.130  13.299  0.00  0.00    +0.000 NA
ATOM      8  H   UNL     1      47.293   2.786  15.402  0.00  0.00    +0.000 HD
ENDROOT
BRANCH   1  10
ATOM      9  C   UNL     1      48.452   5.336  16.753  0.00  0.00    +0.000 C 
ATOM     10  C   UNL     1      47.409   4.620  16.313  0.00  0.00    +0.000 C 
BRANCH   9  15
ATOM     11  C   UNL     1      47.763   6.475  20.300  0.00  0.00    +0.000 A 
ATOM     12  C   UNL     1      48.240   7.792  20.260  0.00  0.00    +0.000 A 
ATOM     13  C   UNL     1      48.724   8.332  19.072  0.00  0.00    +0.000 A 
ATOM     14  C   UNL     1      48.759   7.550  17.918  0.00  0.00    +0.000 A 
ATOM     15  C   UNL     1      48.340   6.210  17.938  0.00  0.00    +0.000 A 
ATOM     16  C   UNL     1      47.814   5.693  19.130  0.00  0.00    +0.000 A 
BRANCH  11  17
ATOM     17  C   UNL     1      47.256   5.890  21.596  0.00  0.00    +0.000 C 
BRANCH  17  18
ATOM     18  N   UNL     1      47.812   4.564  21.850  0.00  0.00    +0.000 NA
ATOM     19  H   UNL     1      48.475   4.625  22.618  0.00  0.00    +0.000 HD
ATOM     20  H   UNL     1      48.343   4.272  21.030  0.00  0.00    +0.000 HD
ENDBRANCH  17  18
ENDBRANCH  11  17
ENDBRANCH   9  15
ENDBRANCH   1  10
BRANCH   5  21
ATOM     21  C   UNL     1      44.531   5.099  10.451  0.00  0.00    +0.000 C 
BRANCH  21  22
ATOM     22  C   UNL     1      44.290   3.906   9.526  0.00  0.00    +0.000 C 
BRANCH  22  23
ATOM     23  C   UNL     1      45.189   3.897   8.294  0.00  0.00    +0.000 C 
BRANCH  23  24
ATOM     24  O   UNL     1      45.940   5.104   8.244  0.00  0.00    +0.000 OA
ATOM     25  H   UNL     1      46.693   5.013   8.852  0.00  0.00    +0.000 HD
ENDBRANCH  23  24
ENDBRANCH  22  23
ENDBRANCH  21  22
ENDBRANCH   5  21
TORSDOF 8
ENDMDL
MODEL 7
REMARK VINA RESULT:    -5.834      2.065      2.485
REMARK INTER + INTRA:          -8.627
REMARK INTER:                  -8.247
REMARK INTRA:                  -0.380
REMARK UNBOUND:                -0.405
REMARK  Name = 
REMARK  8 active torsions:
REMARK  status: ('A' for Active; 'I' for Inactive)
REMARK    1  A    between atoms: N_1  and  C_2
REMARK    2  A    between atoms: C_2  and  C_3
REMARK    3  A    between atoms: C_7  and  C_8
REMARK    4  A    between atoms: C_9  and  N_10
REMARK    5  A    between atoms: C_14  and  C_15
REMARK    6  A    between atoms: C_15  and  C_16
REMARK    7  A    between atoms: C_16  and  C_17
REMARK    8  A    between atoms: C_17  and  O_18
REMARK                            x       y       z     vdW  Elec       q    Type
REMARK                         _______ _______ _______ _____ _____    ______ ____
ROOT
ATOM      1  N   UNL     1      46.137   4.843  14.820  0.00  0.00    +0.000 N 
ATOM      2  C   UNL     1      45.637   4.583  13.536  0.00  0.00    +0.000 A 
ATOM      3  C   UNL     1      45.932   3.391  12.877  0.00  0.00    +0.000 A 
ATOM      4  C   UNL     1      45.512   3.195  11.562  0.00  0.00    +0.000 A 
ATOM      5  C   UNL     1      44.782   4.191  10.928  0.00  0.00    +0.000 A 
ATOM      6  C   UNL     1      44.474   5.322  11.678  0.00  0.00    +0.000 A 
ATOM      7  N   UNL     1      44.877   5.534  12.958  0.00  0.00    +0.000 NA
ATOM      8  H   UNL     1      45.794   5.720  15.201  0.00  0.00    +0.000 HD
ENDROOT
BRANCH   1  10
ATOM      9  C   UNL     1      47.660   4.071  16.593  0.00  0.00    +0.000 C 
ATOM     10  C   UNL     1      47.310   4.344  15.329  0.00  0.00    +0.000 C 
BRANCH   9  15
ATOM     11  C   UNL     1      51.172   3.737  17.974  0.00  0.00    +0.000 A 
ATOM     12  C   UNL     1      51.451   2.395  17.685  0.00  0.00    +0.000 A 
ATOM     13  C   UNL     1      50.532   1.617  16.987  0.00  0.00    +0.000 A 
ATOM     14  C   UNL     1      49.313   2.168  16.595  0.00  0.00    +0.000 A 
ATOM     15  C   UNL     1      48.980   3.494  16.917  0.00  0.00    +0.000 A 
ATOM     16  C   UNL     1      49.933   4.278  17.581  0.00  0.00    +0.000 A 
BRANCH  11  17
ATOM     17  C   UNL     1      52.166   4.570  18.746  0.00  0.00    +0.000 C 
BRANCH  17  18
ATOM     18  N   UNL     1      52.559   3.928  19.998  0.00  0.00    +0.000 NA
ATOM     19  H   UNL     1      53.570   3.820  20.011  0.00  0.00    +0.000 HD
ATOM     20  H   UNL     1      52.166   2.987  20.017  0.00  0.00    +0.000 HD
ENDBRANCH  17  18
ENDBRANCH  11  17
ENDBRANCH   9  15
ENDBRANCH   1  10
BRANCH   5  21
ATOM     21  C   UNL     1      44.353   4.032   9.494  0.00  0.00    +0.000 C 
BRANCH  21  22
ATOM     22  C   UNL     1      45.366   4.558   8.476  0.00  0.00    +0.000 C 
BRANCH  22  23
ATOM     23  C   UNL     1      45.909   3.481   7.544  0.00  0.00    +0.000 C 
BRANCH  23  24
ATOM     24  O   UNL     1      46.738   4.080   6.555  0.00  0.00    +0.000 OA
ATOM     25  H   UNL     1      47.575   3.586   6.526  0.00  0.00    +0.000 HD
ENDBRANCH  23  24
ENDBRANCH  22  23
ENDBRANCH  21  22
ENDBRANCH   5  21
TORSDOF 8
ENDMDL
MODEL 8
REMARK VINA RESULT:    -5.581      4.241      5.104
REMARK INTER + INTRA:          -8.270
REMARK INTER:                  -7.927
REMARK INTRA:                  -0.342
REMARK UNBOUND:                -0.405
REMARK  Name = 
REMARK  8 active torsions:
REMARK  status: ('A' for Active; 'I' for Inactive)
REMARK    1  A    between atoms: N_1  and  C_2
REMARK    2  A    between atoms: C_2  and  C_3
REMARK    3  A    between atoms: C_7  and  C_8
REMARK    4  A    between atoms: C_9  and  N_10
REMARK    5  A    between atoms: C_14  and  C_15
REMARK    6  A    between atoms: C_15  and  C_16
REMARK    7  A    between atoms: C_16  and  C_17
REMARK    8  A    between atoms: C_17  and  O_18
REMARK                            x       y       z     vdW  Elec       q    Type
REMARK                         _______ _______ _______ _____ _____    ______ ____
ROOT
ATOM      1  N   UNL     1      46.449   3.892  14.518  0.00  0.00    +0.000 N 
ATOM      2  C   UNL     1      46.053   4.939  13.674  0.00  0.00    +0.000 A 
ATOM      3  C   UNL     1      46.990   5.805  13.113  0.00  0.00    +0.000 A 
ATOM      4  C   UNL     1      46.570   6.901  12.361  0.00  0.00    +0.000 A 
ATOM      5  C   UNL     1      45.212   7.106  12.161  0.00  0.00    +0.000 A 
ATOM      6  C   UNL     1      44.346   6.159  12.700  0.00  0.00    +0.000 A 
ATOM      7  N   UNL     1      44.734   5.087  13.439  0.00  0.00    +0.000 NA
ATOM      8  H   UNL     1      45.670   3.307  14.805  0.00  0.00    +0.000 HD
ENDROOT
BRANCH   1  10
ATOM      9  C   UNL     1      47.798   3.293  16.488  0.00  0.00    +0.000 C 
ATOM     10  C   UNL     1      47.567   3.898  15.315  0.00  0.00    +0.000 C 
BRANCH   9  15
ATOM     11  C   UNL     1      51.285   2.421  17.684  0.00  0.00    +0.000 A 
ATOM     12  C   UNL     1      51.664   3.616  18.310  0.00  0.00    +0.000 A 
ATOM     13  C   UNL     1      50.771   4.679  18.403  0.00  0.00    +0.000 A 
ATOM     14  C   UNL     1      49.498   4.566  17.846  0.00  0.00    +0.000 A 
ATOM     15  C   UNL     1      49.106   3.402  17.164  0.00  0.00    +0.000 A 
ATOM     16  C   UNL     1      50.000   2.324  17.118  0.00  0.00    +0.000 A 
BRANCH  11  17
ATOM     17  C   UNL     1      52.266   1.278  17.572  0.00  0.00    +0.000 C 
BRANCH  17  18
ATOM     18  N   UNL     1      51.748   0.056  18.181  0.00  0.00    +0.000 NA
ATOM     19  H   UNL     1      51.916   0.088  19.183  0.00  0.00    +0.000 HD
ATOM     20  H   UNL     1      52.280  -0.737  17.823  0.00  0.00    +0.000 HD
ENDBRANCH  17  18
ENDBRANCH  11  17
ENDBRANCH   9  15
ENDBRANCH   1  10
BRANCH   5  21
ATOM     21  C   UNL     1      44.721   8.304  11.394  0.00  0.00    +0.000 C 
BRANCH  21  22
ATOM     22  C   UNL     1      43.247   8.230  10.996  0.00  0.00    +0.000 C 
BRANCH  22  23
ATOM     23  C   UNL     1      42.625   9.592  10.702  0.00  0.00    +0.000 C 
BRANCH  23  24
ATOM     24  O   UNL     1      41.261   9.589  11.107  0.00  0.00    +0.000 OA
ATOM     25  H   UNL     1      41.199   9.103  11.946  0.00  0.00    +0.000 HD
ENDBRANCH  23  24
ENDBRANCH  22  23
ENDBRANCH  21  22
ENDBRANCH   5  21
TORSDOF 8
ENDMDL
MODEL 9
REMARK VINA RESULT:    -5.442      5.097      6.779
REMARK INTER + INTRA:          -8.075
REMARK INTER:                  -7.627
REMARK INTRA:                  -0.448
REMARK UNBOUND:                -0.405
REMARK  Name = 
REMARK  8 active torsions:
REMARK  status: ('A' for Active; 'I' for Inactive)
REMARK    1  A    between atoms: N_1  and  C_2
REMARK    2  A    between atoms: C_2  and  C_3
REMARK    3  A    between atoms: C_7  and  C_8
REMARK    4  A    between atoms: C_9  and  N_10
REMARK    5  A    between atoms: C_14  and  C_15
REMARK    6  A    between atoms: C_15  and  C_16
REMARK    7  A    between atoms: C_16  and  C_17
REMARK    8  A    between atoms: C_17  and  O_18
REMARK                            x       y       z     vdW  Elec       q    Type
REMARK                         _______ _______ _______ _____ _____    ______ ____
ROOT
ATOM      1  N   UNL     1      44.456   6.065  11.597  0.00  0.00    +0.000 N 
ATOM      2  C   UNL     1      44.807   5.168  10.578  0.00  0.00    +0.000 A 
ATOM      3  C   UNL     1      45.799   5.484   9.651  0.00  0.00    +0.000 A 
ATOM      4  C   UNL     1      46.062   4.626   8.586  0.00  0.00    +0.000 A 
ATOM      5  C   UNL     1      45.339   3.446   8.470  0.00  0.00    +0.000 A 
ATOM      6  C   UNL     1      44.412   3.175   9.473  0.00  0.00    +0.000 A 
ATOM      7  N   UNL     1      44.139   4.000  10.517  0.00  0.00    +0.000 NA
ATOM      8  H   UNL     1      43.763   5.680  12.232  0.00  0.00    +0.000 HD
ENDROOT
BRANCH   1  10
ATOM      9  C   UNL     1      45.279   8.291  12.252  0.00  0.00    +0.000 C 
ATOM     10  C   UNL     1      44.558   7.432  11.518  0.00  0.00    +0.000 C 
BRANCH   9  15
ATOM     11  C   UNL     1      46.517  11.821  11.655  0.00  0.00    +0.000 A 
ATOM     12  C   UNL     1      45.329  12.467  11.288  0.00  0.00    +0.000 A 
ATOM     13  C   UNL     1      44.119  11.779  11.296  0.00  0.00    +0.000 A 
ATOM     14  C   UNL     1      44.090  10.430  11.647  0.00  0.00    +0.000 A 
ATOM     15  C   UNL     1      45.271   9.739  11.966  0.00  0.00    +0.000 A 
ATOM     16  C   UNL     1      46.475  10.456  11.997  0.00  0.00    +0.000 A 
BRANCH  11  17
ATOM     17  C   UNL     1      47.828  12.569  11.627  0.00  0.00    +0.000 C 
BRANCH  17  18
ATOM     18  N   UNL     1      48.299  12.790  10.263  0.00  0.00    +0.000 NA
ATOM     19  H   UNL     1      47.959  12.038   9.670  0.00  0.00    +0.000 HD
ATOM     20  H   UNL     1      49.317  12.728  10.256  0.00  0.00    +0.000 HD
ENDBRANCH  17  18
ENDBRANCH  11  17
ENDBRANCH   9  15
ENDBRANCH   1  10
BRANCH   5  21
ATOM     21  C   UNL     1      45.563   2.519   7.307  0.00  0.00    +0.000 C 
BRANCH  21  22
ATOM     22  C   UNL     1      46.927   1.827   7.312  0.00  0.00    +0.000 C 
BRANCH  22  23
ATOM     23  C   UNL     1      47.735   2.062   6.040  0.00  0.00    +0.000 C 
BRANCH  23  24
ATOM     24  O   UNL     1      48.949   2.730   6.364  0.00  0.00    +0.000 OA
ATOM     25  H   UNL     1      49.346   3.048   5.536  0.00  0.00    +0.000 HD
ENDBRANCH  23  24
ENDBRANCH  22  23
ENDBRANCH  21  22
ENDBRANCH   5  21
TORSDOF 8
ENDMDL
