MODEL 1
REMARK VINA RESULT:    -7.388      0.000      0.000
REMARK INTER + INTRA:         -10.743
REMARK INTER:                  -9.980
REMARK INTRA:                  -0.763
REMARK UNBOUND:                -0.763
REMARK  Name = 
REMARK  6 active torsions:
REMARK  status: ('A' for Active; 'I' for Inactive)
REMARK    1  A    between atoms: C_2  and  C_3
REMARK    2  A    between atoms: C_5  and  C_6
REMARK    3  A    between atoms: C_6  and  C_7
REMARK    4  A    between atoms: C_7  and  O_8
REMARK    5  A    between atoms: O_8  and  C_9
REMARK    6  A    between atoms: C_12  and  C_13
REMARK                            x       y       z     vdW  Elec       q    Type
REMARK                         _______ _______ _______ _____ _____    ______ ____
ROOT
ATOM      1  O   UNL     1      43.635   3.568  10.571  0.00  0.00    +0.000 OA
ENDROOT
BRANCH   1   2
ATOM      2  C   UNL     1      44.543   3.347   9.570  0.00  0.00    +0.000 A 
ATOM      3  C   UNL     1      45.107   4.328   8.754  0.00  0.00    +0.000 A 
ATOM      4  C   UNL     1      46.032   3.969   7.777  0.00  0.00    +0.000 A 
ATOM      5  C   UNL     1      46.368   2.631   7.640  0.00  0.00    +0.000 A 
ATOM      6  N   UNL     1      45.839   1.639   8.408  0.00  0.00    +0.000 NA
ATOM      7  C   UNL     1      44.940   2.030   9.349  0.00  0.00    +0.000 A 
BRANCH   5   8
ATOM      8  C   UNL     1      47.373   2.237   6.603  0.00  0.00    +0.000 C 
ATOM      9  N   UNL     1      47.427   3.038   5.495  0.00  0.00    +0.000 N 
ATOM     10  O   UNL     1      48.103   1.262   6.726  0.00  0.00    +0.000 OA
ATOM     11  H   UNL     1      46.802   3.832   5.419  0.00  0.00    +0.000 HD
ATOM     12  H   UNL     1      48.074   2.814   4.754  0.00  0.00    +0.000 HD
ENDBRANCH   5   8
ENDBRANCH   1   2
BRANCH   1  13
ATOM     13  C   UNL     1      43.225   4.929  10.750  0.00  0.00    +0.000 C 
BRANCH  13  14
ATOM     14  C   UNL     1      43.407   5.341  12.211  0.00  0.00    +0.000 C 
BRANCH  14  17
ATOM     15  C   UNL     1      46.740   4.657  13.903  0.00  0.00    +0.000 A 
ATOM     16  C   UNL     1      45.386   4.570  13.592  0.00  0.00    +0.000 A 
ATOM     17  C   UNL     1      44.865   5.405  12.597  0.00  0.00    +0.000 A 
ATOM     18  C   UNL     1      45.737   6.283  11.946  0.00  0.00    +0.000 A 
ATOM     19  C   UNL     1      47.072   6.301  12.323  0.00  0.00    +0.000 A 
ATOM     20  N   UNL     1      47.592   5.510  13.284  0.00  0.00    +0.000 NA
BRANCH  15  22
ATOM     21  N   UNL     1      47.791   3.196  15.778  0.00  0.00    +0.000 NA
ATOM     22  C   UNL     1      47.312   3.828  14.928  0.00  0.00    +0.000 C 
ENDBRANCH  15  22
ENDBRANCH  14  17
ENDBRANCH  13  14
ENDBRANCH   1  13
TORSDOF 6
ENDMDL
MODEL 2
REMARK VINA RESULT:    -7.342      1.452      2.462
REMARK INTER + INTRA:         -10.680
REMARK INTER:                  -9.985
REMARK INTRA:                  -0.696
REMARK UNBOUND:                -0.763
REMARK  Name = 
REMARK  6 active torsions:
REMARK  status: ('A' for Active; 'I' for Inactive)
REMARK    1  A    between atoms: C_2  and  C_3
REMARK    2  A    between atoms: C_5  and  C_6
REMARK    3  A    between atoms: C_6  and  C_7
REMARK    4  A    between atoms: C_7  and  O_8
REMARK    5  A    between atoms: O_8  and  C_9
REMARK    6  A    between atoms: C_12  and  C_13
REMARK                            x       y       z     vdW  Elec       q    Type
REMARK                         _______ _______ _______ _____ _____    ______ ____
ROOT
ATOM      1  O   UNL     1      43.418   3.566  10.526  0.00  0.00    +0.000 OA
ENDROOT
BRANCH   1   2
ATOM      2  C   UNL     1      44.393   3.364   9.586  0.00  0.00    +0.000 A 
ATOM      3  C   UNL     1      45.055   4.363   8.874  0.00  0.00    +0.000 A 
ATOM      4  C   UNL     1      46.040   4.021   7.951  0.00  0.00    +0.000 A 
ATOM      5  C   UNL     1      46.336   2.679   7.763  0.00  0.00    +0.000 A 
ATOM      6  N   UNL     1      45.712   1.669   8.429  0.00  0.00    +0.000 NA
ATOM      7  C   UNL     1      44.757   2.045   9.320  0.00  0.00    +0.000 A 
BRANCH   5   8
ATOM      8  C   UNL     1      47.405   2.302   6.784  0.00  0.00    +0.000 C 
ATOM      9  N   UNL     1      47.470   3.068   5.652  0.00  0.00    +0.000 N 
ATOM     10  O   UNL     1      48.174   1.369   6.974  0.00  0.00    +0.000 OA
ATOM     11  H   UNL     1      46.811   3.827   5.522  0.00  0.00    +0.000 HD
ATOM     12  H   UNL     1      48.159   2.852   4.949  0.00  0.00    +0.000 HD
ENDBRANCH   5   8
ENDBRANCH   1   2
BRANCH   1  13
ATOM     13  C   UNL     1      43.614   2.897  11.779  0.00  0.00    +0.000 C 
BRANCH  13  14
ATOM     14  C   UNL     1      43.494   3.898  12.928  0.00  0.00    +0.000 C 
BRANCH  14  17
ATOM     15  C   UNL     1      45.577   7.071  12.750  0.00  0.00    +0.000 A 
ATOM     16  C   UNL     1      44.475   6.222  12.698  0.00  0.00    +0.000 A 
ATOM     17  C   UNL     1      44.658   4.860  12.957  0.00  0.00    +0.000 A 
ATOM     18  C   UNL     1      45.944   4.413  13.275  0.00  0.00    +0.000 A 
ATOM     19  C   UNL     1      46.983   5.331  13.304  0.00  0.00    +0.000 A 
ATOM     20  N   UNL     1      46.829   6.648  13.049  0.00  0.00    +0.000 NA
BRANCH  15  22
ATOM     21  N   UNL     1      45.353   9.619  12.291  0.00  0.00    +0.000 NA
ATOM     22  C   UNL     1      45.436   8.475  12.477  0.00  0.00    +0.000 C 
ENDBRANCH  15  22
ENDBRANCH  14  17
ENDBRANCH  13  14
ENDBRANCH   1  13
TORSDOF 6
ENDMDL
MODEL 3
REMARK VINA RESULT:    -7.270      1.185      2.420
REMARK INTER + INTRA:         -10.583
REMARK INTER:                  -9.893
REMARK INTRA:                  -0.690
REMARK UNBOUND:                -0.763
REMARK  Name = 
REMARK  6 active torsions:
REMARK  status: ('A' for Active; 'I' for Inactive)
REMARK    1  A    between atoms: C_2  and  C_3
REMARK    2  A    between atoms: C_5  and  C_6
REMARK    3  A    between atoms: C_6  and  C_7
REMARK    4  A    between atoms: C_7  and  O_8
REMARK    5  A    between atoms: O_8  and  C_9
REMARK    6  A    between atoms: C_12  and  C_13
REMARK                            x       y       z     vdW  Elec       q    Type
REMARK                         _______ _______ _______ _____ _____    ______ ____
ROOT
ATOM      1  O   UNL     1      43.619   4.638  10.012  0.00  0.00    +0.000 OA
ENDROOT
BRANCH   1   2
ATOM      2  C   UNL     1      44.511   3.867   9.316  0.00  0.00    +0.000 A 
ATOM      3  C   UNL     1      44.623   2.479   9.396  0.00  0.00    +0.000 A 
ATOM      4  C   UNL     1      45.570   1.813   8.621  0.00  0.00    +0.000 A 
ATOM      5  C   UNL     1      46.384   2.560   7.783  0.00  0.00    +0.000 A 
ATOM      6  N   UNL     1      46.317   3.915   7.676  0.00  0.00    +0.000 NA
ATOM      7  C   UNL     1      45.381   4.527   8.449  0.00  0.00    +0.000 A 
BRANCH   5   8
ATOM      8  C   UNL     1      47.394   1.851   6.933  0.00  0.00    +0.000 C 
ATOM      9  N   UNL     1      48.428   2.620   6.473  0.00  0.00    +0.000 N 
ATOM     10  O   UNL     1      47.308   0.661   6.660  0.00  0.00    +0.000 OA
ATOM     11  H   UNL     1      48.463   3.605   6.710  0.00  0.00    +0.000 HD
ATOM     12  H   UNL     1      49.131   2.202   5.883  0.00  0.00    +0.000 HD
ENDBRANCH   5   8
ENDBRANCH   1   2
BRANCH   1  13
ATOM     13  C   UNL     1      43.330   4.202  11.347  0.00  0.00    +0.000 C 
BRANCH  13  14
ATOM     14  C   UNL     1      43.623   5.329  12.337  0.00  0.00    +0.000 C 
BRANCH  14  17
ATOM     15  C   UNL     1      47.276   6.362  12.497  0.00  0.00    +0.000 A 
ATOM     16  C   UNL     1      45.937   6.338  12.119  0.00  0.00    +0.000 A 
ATOM     17  C   UNL     1      45.088   5.390  12.700  0.00  0.00    +0.000 A 
ATOM     18  C   UNL     1      45.622   4.517  13.652  0.00  0.00    +0.000 A 
ATOM     19  C   UNL     1      46.969   4.615  13.967  0.00  0.00    +0.000 A 
ATOM     20  N   UNL     1      47.807   5.516  13.412  0.00  0.00    +0.000 NA
BRANCH  15  22
ATOM     21  N   UNL     1      48.942   8.082  11.485  0.00  0.00    +0.000 NA
ATOM     22  C   UNL     1      48.186   7.310  11.913  0.00  0.00    +0.000 C 
ENDBRANCH  15  22
ENDBRANCH  14  17
ENDBRANCH  13  14
ENDBRANCH   1  13
TORSDOF 6
ENDMDL
MODEL 4
REMARK VINA RESULT:    -6.455      1.723      2.198
REMARK INTER + INTRA:          -9.482
REMARK INTER:                  -9.070
REMARK INTRA:                  -0.412
REMARK UNBOUND:                -0.763
REMARK  Name = 
REMARK  6 active torsions:
REMARK  status: ('A' for Active; 'I' for Inactive)
REMARK    1  A    between atoms: C_2  and  C_3
REMARK    2  A    between atoms: C_5  and  C_6
REMARK    3  A    between atoms: C_6  and  C_7
REMARK    4  A    between atoms: C_7  and  O_8
REMARK    5  A    between atoms: O_8  and  C_9
REMARK    6  A    between atoms: C_12  and  C_13
REMARK                            x       y       z     vdW  Elec       q    Type
REMARK                         _______ _______ _______ _____ _____    ______ ____
ROOT
ATOM      1  O   UNL     1      43.909   4.332  10.380  0.00  0.00    +0.000 OA
ENDROOT
BRANCH   1   2
ATOM      2  C   UNL     1      44.749   3.732   9.481  0.00  0.00    +0.000 A 
ATOM      3  C   UNL     1      44.960   2.359   9.355  0.00  0.00    +0.000 A 
ATOM      4  C   UNL     1      45.837   1.877   8.386  0.00  0.00    +0.000 A 
ATOM      5  C   UNL     1      46.484   2.789   7.565  0.00  0.00    +0.000 A 
ATOM      6  N   UNL     1      46.315   4.137   7.654  0.00  0.00    +0.000 NA
ATOM      7  C   UNL     1      45.452   4.566   8.613  0.00  0.00    +0.000 A 
BRANCH   5   8
ATOM      8  C   UNL     1      47.416   2.280   6.510  0.00  0.00    +0.000 C 
ATOM      9  N   UNL     1      47.476   3.022   5.362  0.00  0.00    +0.000 N 
ATOM     10  O   UNL     1      48.085   1.265   6.653  0.00  0.00    +0.000 OA
ATOM     11  H   UNL     1      46.902   3.852   5.272  0.00  0.00    +0.000 HD
ATOM     12  H   UNL     1      48.074   2.721   4.609  0.00  0.00    +0.000 HD
ENDBRANCH   5   8
ENDBRANCH   1   2
BRANCH   1  13
ATOM     13  C   UNL     1      44.533   4.865  11.555  0.00  0.00    +0.000 C 
BRANCH  13  14
ATOM     14  C   UNL     1      44.092   6.314  11.766  0.00  0.00    +0.000 C 
BRANCH  14  17
ATOM     15  C   UNL     1      47.297   7.460  13.455  0.00  0.00    +0.000 A 
ATOM     16  C   UNL     1      46.270   6.626  13.021  0.00  0.00    +0.000 A 
ATOM     17  C   UNL     1      45.223   7.176  12.274  0.00  0.00    +0.000 A 
ATOM     18  C   UNL     1      45.263   8.542  11.981  0.00  0.00    +0.000 A 
ATOM     19  C   UNL     1      46.327   9.296  12.456  0.00  0.00    +0.000 A 
ATOM     20  N   UNL     1      47.342   8.787  13.184  0.00  0.00    +0.000 NA
BRANCH  15  22
ATOM     21  N   UNL     1      49.294   6.531  14.834  0.00  0.00    +0.000 NA
ATOM     22  C   UNL     1      48.384   6.939  14.237  0.00  0.00    +0.000 C 
ENDBRANCH  15  22
ENDBRANCH  14  17
ENDBRANCH  13  14
ENDBRANCH   1  13
TORSDOF 6
ENDMDL
MODEL 5
REMARK VINA RESULT:    -6.110      2.867      3.999
REMARK INTER + INTRA:          -9.016
REMARK INTER:                  -8.652
REMARK INTRA:                  -0.364
REMARK UNBOUND:                -0.763
REMARK  Name = 
REMARK  6 active torsions:
REMARK  status: ('A' for Active; 'I' for Inactive)
REMARK    1  A    between atoms: C_2  and  C_3
REMARK    2  A    between atoms: C_5  and  C_6
REMARK    3  A    between atoms: C_6  and  C_7
REMARK    4  A    between atoms: C_7  and  O_8
REMARK    5  A    between atoms: O_8  and  C_9
REMARK    6  A    between atoms: C_12  and  C_13
REMARK                            x       y       z     vdW  Elec       q    Type
REMARK                         _______ _______ _______ _____ _____    ______ ____
ROOT
ATOM      1  O   UNL     1      44.021   4.842  10.090  0.00  0.00    +0.000 OA
ENDROOT
BRANCH   1   2
ATOM      2  C   UNL     1      44.808   4.010   9.339  0.00  0.00    +0.000 A 
ATOM      3  C   UNL     1      44.832   2.618   9.424  0.00  0.00    +0.000 A 
ATOM      4  C   UNL     1      45.674   1.886   8.590  0.00  0.00    +0.000 A 
ATOM      5  C   UNL     1      46.476   2.573   7.690  0.00  0.00    +0.000 A 
ATOM      6  N   UNL     1      46.492   3.929   7.576  0.00  0.00    +0.000 NA
ATOM      7  C   UNL     1      45.656   4.606   8.408  0.00  0.00    +0.000 A 
BRANCH   5   8
ATOM      8  C   UNL     1      47.373   1.794   6.778  0.00  0.00    +0.000 C 
ATOM      9  N   UNL     1      48.362   2.512   6.163  0.00  0.00    +0.000 N 
ATOM     10  O   UNL     1      47.238   0.593   6.586  0.00  0.00    +0.000 OA
ATOM     11  H   UNL     1      48.440   3.508   6.336  0.00  0.00    +0.000 HD
ATOM     12  H   UNL     1      48.988   2.046   5.525  0.00  0.00    +0.000 HD
ENDBRANCH   5   8
ENDBRANCH   1   2
BRANCH   1  13
ATOM     13  C   UNL     1      44.651   5.429  11.235  0.00  0.00    +0.000 C 
BRANCH  13  14
ATOM     14  C   UNL     1      43.983   6.762  11.572  0.00  0.00    +0.000 C 
BRANCH  14  17
ATOM     15  C   UNL     1      45.593  10.190  11.884  0.00  0.00    +0.000 A 
ATOM     16  C   UNL     1      44.624   9.210  11.684  0.00  0.00    +0.000 A 
ATOM     17  C   UNL     1      44.997   7.864  11.766  0.00  0.00    +0.000 A 
ATOM     18  C   UNL     1      46.329   7.562  12.065  0.00  0.00    +0.000 A 
ATOM     19  C   UNL     1      47.225   8.604  12.250  0.00  0.00    +0.000 A 
ATOM     20  N   UNL     1      46.888   9.909  12.166  0.00  0.00    +0.000 NA
BRANCH  15  22
ATOM     21  N   UNL     1      44.944  12.703  11.747  0.00  0.00    +0.000 NA
ATOM     22  C   UNL     1      45.256  11.584  11.794  0.00  0.00    +0.000 C 
ENDBRANCH  15  22
ENDBRANCH  14  17
ENDBRANCH  13  14
ENDBRANCH   1  13
TORSDOF 6
ENDMDL
MODEL 6
REMARK VINA RESULT:    -6.092      2.752      6.805
REMARK INTER + INTRA:          -8.992
REMARK INTER:                  -8.351
REMARK INTRA:                  -0.641
REMARK UNBOUND:                -0.763
REMARK  Name = 
REMARK  6 active torsions:
REMARK  status: ('A' for Active; 'I' for Inactive)
REMARK    1  A    between atoms: C_2  and  C_3
REMARK    2  A    between atoms: C_5  and  C_6
REMARK    3  A    between atoms: C_6  and  C_7
REMARK    4  A    between atoms: C_7  and  O_8
REMARK    5  A    between atoms: O_8  and  C_9
REMARK    6  A    between atoms: C_12  and  C_13
REMARK                            x       y       z     vdW  Elec       q    Type
REMARK                         _______ _______ _______ _____ _____    ______ ____
ROOT
ATOM      1  O   UNL     1      46.978   6.349  12.585  0.00  0.00    +0.000 OA
ENDROOT
BRANCH   1   2
ATOM      2  C   UNL     1      47.301   5.689  13.741  0.00  0.00    +0.000 A 
ATOM      3  C   UNL     1      48.020   6.226  14.809  0.00  0.00    +0.000 A 
ATOM      4  C   UNL     1      48.271   5.448  15.937  0.00  0.00    +0.000 A 
ATOM      5  C   UNL     1      47.795   4.146  15.964  0.00  0.00    +0.000 A 
ATOM      6  N   UNL     1      47.096   3.577  14.944  0.00  0.00    +0.000 NA
ATOM      7  C   UNL     1      46.873   4.369  13.861  0.00  0.00    +0.000 A 
BRANCH   5   8
ATOM      8  C   UNL     1      48.046   3.307  17.179  0.00  0.00    +0.000 C 
ATOM      9  N   UNL     1      46.951   2.675  17.701  0.00  0.00    +0.000 N 
ATOM     10  O   UNL     1      49.156   3.190  17.682  0.00  0.00    +0.000 OA
ATOM     11  H   UNL     1      46.045   2.801  17.265  0.00  0.00    +0.000 HD
ATOM     12  H   UNL     1      47.055   2.108  18.528  0.00  0.00    +0.000 HD
ENDBRANCH   5   8
ENDBRANCH   1   2
BRANCH   1  13
ATOM     13  C   UNL     1      45.761   7.105  12.620  0.00  0.00    +0.000 C 
BRANCH  13  14
ATOM     14  C   UNL     1      44.980   6.895  11.323  0.00  0.00    +0.000 C 
BRANCH  14  17
ATOM     15  C   UNL     1      44.648   3.291  10.164  0.00  0.00    +0.000 A 
ATOM     16  C   UNL     1      45.108   4.603  10.253  0.00  0.00    +0.000 A 
ATOM     17  C   UNL     1      44.510   5.467  11.176  0.00  0.00    +0.000 A 
ATOM     18  C   UNL     1      43.484   4.968  11.984  0.00  0.00    +0.000 A 
ATOM     19  C   UNL     1      43.092   3.647  11.826  0.00  0.00    +0.000 A 
ATOM     20  N   UNL     1      43.649   2.799  10.936  0.00  0.00    +0.000 NA
BRANCH  15  22
ATOM     21  N   UNL     1      45.722   1.620   8.489  0.00  0.00    +0.000 NA
ATOM     22  C   UNL     1      45.224   2.374   9.220  0.00  0.00    +0.000 C 
ENDBRANCH  15  22
ENDBRANCH  14  17
ENDBRANCH  13  14
ENDBRANCH   1  13
TORSDOF 6
ENDMDL
MODEL 7
REMARK VINA RESULT:    -5.521      3.795      8.367
REMARK INTER + INTRA:          -8.221
REMARK INTER:                  -7.832
REMARK INTRA:                  -0.390
REMARK UNBOUND:                -0.763
REMARK  Name = 
REMARK  6 active torsions:
REMARK  status: ('A' for Active; 'I' for Inactive)
REMARK    1  A    between atoms: C_2  and  C_3
REMARK    2  A    between atoms: C_5  and  C_6
REMARK    3  A    between atoms: C_6  and  C_7
REMARK    4  A    between atoms: C_7  and  O_8
REMARK    5  A    between atoms: O_8  and  C_9
REMARK    6  A    between atoms: C_12  and  C_13
REMARK                            x       y       z     vdW  Elec       q    Type
REMARK                         _______ _______ _______ _____ _____    ______ ____
ROOT
ATOM      1  O   UNL     1      46.771   3.905  14.851  0.00  0.00    +0.000 OA
ENDROOT
BRANCH   1   2
ATOM      2  C   UNL     1      47.430   4.164  16.023  0.00  0.00    +0.000 A 
ATOM      3  C   UNL     1      48.099   5.348  16.334  0.00  0.00    +0.000 A 
ATOM      4  C   UNL     1      48.721   5.489  17.573  0.00  0.00    +0.000 A 
ATOM      5  C   UNL     1      48.656   4.433  18.470  0.00  0.00    +0.000 A 
ATOM      6  N   UNL     1      48.021   3.258  18.209  0.00  0.00    +0.000 NA
ATOM      7  C   UNL     1      47.428   3.161  16.990  0.00  0.00    +0.000 A 
BRANCH   5   8
ATOM      8  C   UNL     1      49.308   4.581  19.811  0.00  0.00    +0.000 C 
ATOM      9  N   UNL     1      50.664   4.403  19.835  0.00  0.00    +0.000 N 
ATOM     10  O   UNL     1      48.677   4.842  20.827  0.00  0.00    +0.000 OA
ATOM     11  H   UNL     1      51.155   4.178  18.977  0.00  0.00    +0.000 HD
ATOM     12  H   UNL     1      51.157   4.474  20.711  0.00  0.00    +0.000 HD
ENDBRANCH   5   8
ENDBRANCH   1   2
BRANCH   1  13
ATOM     13  C   UNL     1      46.935   4.882  13.815  0.00  0.00    +0.000 C 
BRANCH  13  14
ATOM     14  C   UNL     1      45.571   5.426  13.392  0.00  0.00    +0.000 C 
BRANCH  14  17
ATOM     15  C   UNL     1      44.793   3.850  10.024  0.00  0.00    +0.000 A 
ATOM     16  C   UNL     1      45.395   4.656  10.985  0.00  0.00    +0.000 A 
ATOM     17  C   UNL     1      44.943   4.584  12.307  0.00  0.00    +0.000 A 
ATOM     18  C   UNL     1      43.913   3.689  12.607  0.00  0.00    +0.000 A 
ATOM     19  C   UNL     1      43.372   2.924  11.584  0.00  0.00    +0.000 A 
ATOM     20  N   UNL     1      43.788   2.984  10.301  0.00  0.00    +0.000 NA
BRANCH  15  22
ATOM     21  N   UNL     1      45.546   3.992   7.540  0.00  0.00    +0.000 NA
ATOM     22  C   UNL     1      45.217   3.903   8.651  0.00  0.00    +0.000 C 
ENDBRANCH  15  22
ENDBRANCH  14  17
ENDBRANCH  13  14
ENDBRANCH   1  13
TORSDOF 6
ENDMDL
MODEL 8
REMARK VINA RESULT:    -5.447      3.042      5.165
REMARK INTER + INTRA:          -8.121
REMARK INTER:                  -7.599
REMARK INTRA:                  -0.522
REMARK UNBOUND:                -0.763
REMARK  Name = 
REMARK  6 active torsions:
REMARK  status: ('A' for Active; 'I' for Inactive)
REMARK    1  A    between atoms: C_2  and  C_3
REMARK    2  A    between atoms: C_5  and  C_6
REMARK    3  A    between atoms: C_6  and  C_7
REMARK    4  A    between atoms: C_7  and  O_8
REMARK    5  A    between atoms: O_8  and  C_9
REMARK    6  A    between atoms: C_12  and  C_13
REMARK                            x       y       z     vdW  Elec       q    Type
REMARK                         _______ _______ _______ _____ _____    ______ ____
ROOT
ATOM      1  O   UNL     1      47.295   7.288  13.130  0.00  0.00    +0.000 OA
ENDROOT
BRANCH   1   2
ATOM      2  C   UNL     1      46.580   6.212  12.677  0.00  0.00    +0.000 A 
ATOM      3  C   UNL     1      46.318   5.048  13.399  0.00  0.00    +0.000 A 
ATOM      4  C   UNL     1      45.564   4.028  12.822  0.00  0.00    +0.000 A 
ATOM      5  C   UNL     1      45.092   4.203  11.530  0.00  0.00    +0.000 A 
ATOM      6  N   UNL     1      45.327   5.318  10.785  0.00  0.00    +0.000 NA
ATOM      7  C   UNL     1      46.067   6.288  11.383  0.00  0.00    +0.000 A 
BRANCH   5   8
ATOM      8  C   UNL     1      44.266   3.120  10.907  0.00  0.00    +0.000 C 
ATOM      9  N   UNL     1      44.904   2.351   9.972  0.00  0.00    +0.000 N 
ATOM     10  O   UNL     1      43.095   2.927  11.206  0.00  0.00    +0.000 OA
ATOM     11  H   UNL     1      45.872   2.543   9.741  0.00  0.00    +0.000 HD
ATOM     12  H   UNL     1      44.395   1.615   9.507  0.00  0.00    +0.000 HD
ENDBRANCH   5   8
ENDBRANCH   1   2
BRANCH   1  13
ATOM     13  C   UNL     1      48.672   7.036  13.438  0.00  0.00    +0.000 C 
BRANCH  13  14
ATOM     14  C   UNL     1      49.011   7.609  14.814  0.00  0.00    +0.000 C 
BRANCH  14  17
ATOM     15  C   UNL     1      48.526   4.562  17.032  0.00  0.00    +0.000 A 
ATOM     16  C   UNL     1      48.261   5.554  16.092  0.00  0.00    +0.000 A 
ATOM     17  C   UNL     1      49.241   6.519  15.834  0.00  0.00    +0.000 A 
ATOM     18  C   UNL     1      50.454   6.433  16.523  0.00  0.00    +0.000 A 
ATOM     19  C   UNL     1      50.629   5.409  17.442  0.00  0.00    +0.000 A 
ATOM     20  N   UNL     1      49.694   4.473  17.712  0.00  0.00    +0.000 NA
BRANCH  15  22
ATOM     21  N   UNL     1      46.745   2.766  17.630  0.00  0.00    +0.000 NA
ATOM     22  C   UNL     1      47.541   3.560  17.338  0.00  0.00    +0.000 C 
ENDBRANCH  15  22
ENDBRANCH  14  17
ENDBRANCH  13  14
ENDBRANCH   1  13
TORSDOF 6
ENDMDL
MODEL 9
REMARK VINA RESULT:    -5.439      3.865      6.355
REMARK INTER + INTRA:          -8.110
REMARK INTER:                  -7.722
REMARK INTRA:                  -0.389
REMARK UNBOUND:                -0.763
REMARK  Name = 
REMARK  6 active torsions:
REMARK  status: ('A' for Active; 'I' for Inactive)
REMARK    1  A    between atoms: C_2  and  C_3
REMARK    2  A    between atoms: C_5  and  C_6
REMARK    3  A    between atoms: C_6  and  C_7
REMARK    4  A    between atoms: C_7  and  O_8
REMARK    5  A    between atoms: O_8  and  C_9
REMARK    6  A    between atoms: C_12  and  C_13
REMARK                            x       y       z     vdW  Elec       q    Type
REMARK                         _______ _______ _______ _____ _____    ______ ____
ROOT
ATOM      1  O   UNL     1      47.524   3.798  14.537  0.00  0.00    +0.000 OA
ENDROOT
BRANCH   1   2
ATOM      2  C   UNL     1      46.503   4.060  13.663  0.00  0.00    +0.000 A 
ATOM      3  C   UNL     1      45.946   3.149  12.766  0.00  0.00    +0.000 A 
ATOM      4  C   UNL     1      44.898   3.542  11.938  0.00  0.00    +0.000 A 
ATOM      5  C   UNL     1      44.434   4.846  12.030  0.00  0.00    +0.000 A 
ATOM      6  N   UNL     1      44.950   5.772  12.884  0.00  0.00    +0.000 NA
ATOM      7  C   UNL     1      45.972   5.348  13.674  0.00  0.00    +0.000 A 
BRANCH   5   8
ATOM      8  C   UNL     1      43.297   5.274  11.154  0.00  0.00    +0.000 C 
ATOM      9  N   UNL     1      42.299   5.974  11.776  0.00  0.00    +0.000 N 
ATOM     10  O   UNL     1      43.251   5.017   9.958  0.00  0.00    +0.000 OA
ATOM     11  H   UNL     1      42.364   6.161  12.770  0.00  0.00    +0.000 HD
ATOM     12  H   UNL     1      41.500   6.276  11.242  0.00  0.00    +0.000 HD
ENDBRANCH   5   8
ENDBRANCH   1   2
BRANCH   1  13
ATOM     13  C   UNL     1      47.329   4.260  15.879  0.00  0.00    +0.000 C 
BRANCH  13  14
ATOM     14  C   UNL     1      47.646   3.138  16.868  0.00  0.00    +0.000 C 
BRANCH  14  17
ATOM     15  C   UNL     1      51.073   4.108  18.193  0.00  0.00    +0.000 A 
ATOM     16  C   UNL     1      49.721   4.191  17.869  0.00  0.00    +0.000 A 
ATOM     17  C   UNL     1      49.112   3.106  17.229  0.00  0.00    +0.000 A 
ATOM     18  C   UNL     1      49.888   1.976  16.956  0.00  0.00    +0.000 A 
ATOM     19  C   UNL     1      51.228   1.983  17.316  0.00  0.00    +0.000 A 
ATOM     20  N   UNL     1      51.837   3.021  17.927  0.00  0.00    +0.000 NA
BRANCH  15  22
ATOM     21  N   UNL     1      52.291   6.110  19.317  0.00  0.00    +0.000 NA
ATOM     22  C   UNL     1      51.741   5.205  18.839  0.00  0.00    +0.000 C 
ENDBRANCH  15  22
ENDBRANCH  14  17
ENDBRANCH  13  14
ENDBRANCH   1  13
TORSDOF 6
ENDMDL
