MODEL 1
REMARK VINA RESULT:    -7.705      0.000      0.000
REMARK INTER + INTRA:         -11.642
REMARK INTER:                 -10.858
REMARK INTRA:                  -0.784
REMARK UNBOUND:                -0.784
REMARK  Name = 
REMARK  8 active torsions:
REMARK  status: ('A' for Active; 'I' for Inactive)
REMARK    1  A    between atoms: C_1  and  N_2
REMARK    2  A    between atoms: C_4  and  C_5
REMARK    3  A    between atoms: N_7  and  C_8
REMARK    4  A    between atoms: C_8  and  C_9
REMARK    5  A    between atoms: C_12  and  C_13
REMARK    6  A    between atoms: C_13  and  O_14
REMARK    7  A    between atoms: O_14  and  C_15
REMARK    8  A    between atoms: C_15  and  C_16
REMARK                            x       y       z     vdW  Elec       q    Type
REMARK                         _______ _______ _______ _____ _____    ______ ____
ROOT
ATOM      1  C   UNL     1      48.367   6.577  13.794  0.00  0.00    +0.000 C 
ENDROOT
BRANCH   1   2
ATOM      2  C   UNL     1      47.227   5.995  13.002  0.00  0.00    +0.000 A 
ATOM      3  C   UNL     1      46.852   6.522  11.759  0.00  0.00    +0.000 A 
ATOM      4  C   UNL     1      45.739   6.014  11.080  0.00  0.00    +0.000 A 
ATOM      5  C   UNL     1      44.976   4.982  11.627  0.00  0.00    +0.000 A 
ATOM      6  C   UNL     1      45.374   4.423  12.850  0.00  0.00    +0.000 A 
ATOM      7  C   UNL     1      46.491   4.926  13.527  0.00  0.00    +0.000 A 
BRANCH   5   8
ATOM      8  C   UNL     1      43.716   4.542  10.925  0.00  0.00    +0.000 C 
BRANCH   8   9
ATOM      9  O   UNL     1      44.039   4.119   9.608  0.00  0.00    +0.000 OA
BRANCH   9  10
ATOM     10  C   UNL     1      44.434   2.744   9.575  0.00  0.00    +0.000 C 
BRANCH  10  11
ATOM     11  C   UNL     1      45.468   2.504   8.497  0.00  0.00    +0.000 A 
ATOM     12  N   UNL     1      45.859   3.560   7.760  0.00  0.00    +0.000 NA
ATOM     13  C   UNL     1      46.878   3.351   6.903  0.00  0.00    +0.000 A 
ATOM     14  C   UNL     1      47.517   2.142   6.765  0.00  0.00    +0.000 A 
ATOM     15  C   UNL     1      47.021   1.117   7.530  0.00  0.00    +0.000 A 
ATOM     16  N   UNL     1      46.006   1.265   8.403  0.00  0.00    +0.000 NA
ENDBRANCH  10  11
ENDBRANCH   9  10
ENDBRANCH   8   9
ENDBRANCH   5   8
ENDBRANCH   1   2
BRANCH   1  19
ATOM     17  C   UNL     1      48.923   6.620  16.179  0.00  0.00    +0.000 C 
ATOM     18  O   UNL     1      50.047   6.181  15.984  0.00  0.00    +0.000 OA
ATOM     19  N   UNL     1      48.018   6.848  15.167  0.00  0.00    +0.000 N 
ATOM     20  H   UNL     1      47.134   7.273  15.433  0.00  0.00    +0.000 HD
BRANCH  17  24
ATOM     21  C   UNL     1      47.494   6.117  20.809  0.00  0.00    +0.000 C 
ATOM     22  N   UNL     1      47.789   6.760  19.550  0.00  0.00    +0.000 N 
ATOM     23  N   UNL     1      48.230   6.032  18.498  0.00  0.00    +0.000 NA
ATOM     24  C   UNL     1      48.416   6.950  17.527  0.00  0.00    +0.000 A 
ATOM     25  C   UNL     1      48.068   8.258  17.972  0.00  0.00    +0.000 A 
ATOM     26  C   UNL     1      48.060   9.534  17.405  0.00  0.00    +0.000 A 
ATOM     27  N   UNL     1      47.656  10.602  18.136  0.00  0.00    +0.000 NA
ATOM     28  C   UNL     1      47.267  10.407  19.416  0.00  0.00    +0.000 A 
ATOM     29  C   UNL     1      47.245   9.182  20.066  0.00  0.00    +0.000 A 
ATOM     30  C   UNL     1      47.664   8.100  19.292  0.00  0.00    +0.000 A 
ENDBRANCH  17  24
ENDBRANCH   1  19
TORSDOF 7
ENDMDL
MODEL 2
REMARK VINA RESULT:    -7.667      0.932      2.311
REMARK INTER + INTRA:         -11.588
REMARK INTER:                 -10.858
REMARK INTRA:                  -0.729
REMARK UNBOUND:                -0.784
REMARK  Name = 
REMARK  8 active torsions:
REMARK  status: ('A' for Active; 'I' for Inactive)
REMARK    1  A    between atoms: C_1  and  N_2
REMARK    2  A    between atoms: C_4  and  C_5
REMARK    3  A    between atoms: N_7  and  C_8
REMARK    4  A    between atoms: C_8  and  C_9
REMARK    5  A    between atoms: C_12  and  C_13
REMARK    6  A    between atoms: C_13  and  O_14
REMARK    7  A    between atoms: O_14  and  C_15
REMARK    8  A    between atoms: C_15  and  C_16
REMARK                            x       y       z     vdW  Elec       q    Type
REMARK                         _______ _______ _______ _____ _____    ______ ____
ROOT
ATOM      1  C   UNL     1      48.252   6.651  13.706  0.00  0.00    +0.000 C 
ENDROOT
BRANCH   1   2
ATOM      2  C   UNL     1      47.016   6.128  13.024  0.00  0.00    +0.000 A 
ATOM      3  C   UNL     1      46.240   5.108  13.593  0.00  0.00    +0.000 A 
ATOM      4  C   UNL     1      45.142   4.584  12.902  0.00  0.00    +0.000 A 
ATOM      5  C   UNL     1      44.802   5.056  11.634  0.00  0.00    +0.000 A 
ATOM      6  C   UNL     1      45.549   6.107  11.081  0.00  0.00    +0.000 A 
ATOM      7  C   UNL     1      46.644   6.636  11.775  0.00  0.00    +0.000 A 
BRANCH   5   8
ATOM      8  C   UNL     1      43.688   4.388  10.870  0.00  0.00    +0.000 C 
BRANCH   8   9
ATOM      9  O   UNL     1      44.174   3.977   9.599  0.00  0.00    +0.000 OA
BRANCH   9  10
ATOM     10  C   UNL     1      44.622   2.619   9.617  0.00  0.00    +0.000 C 
BRANCH  10  11
ATOM     11  C   UNL     1      45.602   2.357   8.493  0.00  0.00    +0.000 A 
ATOM     12  N   UNL     1      46.017   3.413   7.769  0.00  0.00    +0.000 NA
ATOM     13  C   UNL     1      46.991   3.178   6.868  0.00  0.00    +0.000 A 
ATOM     14  C   UNL     1      47.564   1.944   6.676  0.00  0.00    +0.000 A 
ATOM     15  C   UNL     1      47.048   0.923   7.433  0.00  0.00    +0.000 A 
ATOM     16  N   UNL     1      46.075   1.097   8.349  0.00  0.00    +0.000 NA
ENDBRANCH  10  11
ENDBRANCH   9  10
ENDBRANCH   8   9
ENDBRANCH   5   8
ENDBRANCH   1   2
BRANCH   1  19
ATOM     17  C   UNL     1      48.920   6.668  16.062  0.00  0.00    +0.000 C 
ATOM     18  O   UNL     1      49.939   6.029  15.838  0.00  0.00    +0.000 OA
ATOM     19  N   UNL     1      48.022   7.022  15.080  0.00  0.00    +0.000 N 
ATOM     20  H   UNL     1      47.242   7.606  15.366  0.00  0.00    +0.000 HD
BRANCH  17  24
ATOM     21  C   UNL     1      47.423   9.539  19.702  0.00  0.00    +0.000 C 
ATOM     22  N   UNL     1      47.892   8.353  19.024  0.00  0.00    +0.000 N 
ATOM     23  N   UNL     1      48.161   8.386  17.698  0.00  0.00    +0.000 NA
ATOM     24  C   UNL     1      48.544   7.124  17.416  0.00  0.00    +0.000 A 
ATOM     25  C   UNL     1      48.533   6.303  18.581  0.00  0.00    +0.000 A 
ATOM     26  C   UNL     1      48.831   4.968  18.862  0.00  0.00    +0.000 A 
ATOM     27  N   UNL     1      48.708   4.494  20.127  0.00  0.00    +0.000 NA
ATOM     28  C   UNL     1      48.290   5.334  21.100  0.00  0.00    +0.000 A 
ATOM     29  C   UNL     1      47.968   6.670  20.918  0.00  0.00    +0.000 A 
ATOM     30  C   UNL     1      48.104   7.133  19.609  0.00  0.00    +0.000 A 
ENDBRANCH  17  24
ENDBRANCH   1  19
TORSDOF 7
ENDMDL
MODEL 3
REMARK VINA RESULT:    -7.616      1.639      2.394
REMARK INTER + INTRA:         -11.517
REMARK INTER:                 -10.714
REMARK INTRA:                  -0.803
REMARK UNBOUND:                -0.784
REMARK  Name = 
REMARK  8 active torsions:
REMARK  status: ('A' for Active; 'I' for Inactive)
REMARK    1  A    between atoms: C_1  and  N_2
REMARK    2  A    between atoms: C_4  and  C_5
REMARK    3  A    between atoms: N_7  and  C_8
REMARK    4  A    between atoms: C_8  and  C_9
REMARK    5  A    between atoms: C_12  and  C_13
REMARK    6  A    between atoms: C_13  and  O_14
REMARK    7  A    between atoms: O_14  and  C_15
REMARK    8  A    between atoms: C_15  and  C_16
REMARK                            x       y       z     vdW  Elec       q    Type
REMARK                         _______ _______ _______ _____ _____    ______ ____
ROOT
ATOM      1  C   UNL     1      48.164   6.992  13.473  0.00  0.00    +0.000 C 
ENDROOT
BRANCH   1   2
ATOM      2  C   UNL     1      47.072   6.237  12.762  0.00  0.00    +0.000 A 
ATOM      3  C   UNL     1      46.654   6.594  11.473  0.00  0.00    +0.000 A 
ATOM      4  C   UNL     1      45.584   5.928  10.865  0.00  0.00    +0.000 A 
ATOM      5  C   UNL     1      44.907   4.905  11.530  0.00  0.00    +0.000 A 
ATOM      6  C   UNL     1      45.351   4.516  12.802  0.00  0.00    +0.000 A 
ATOM      7  C   UNL     1      46.426   5.178  13.408  0.00  0.00    +0.000 A 
BRANCH   5   8
ATOM      8  C   UNL     1      43.685   4.292  10.894  0.00  0.00    +0.000 C 
BRANCH   8   9
ATOM      9  O   UNL     1      44.016   3.838   9.589  0.00  0.00    +0.000 OA
BRANCH   9  10
ATOM     10  C   UNL     1      44.571   2.520   9.612  0.00  0.00    +0.000 C 
BRANCH  10  11
ATOM     11  C   UNL     1      45.574   2.337   8.493  0.00  0.00    +0.000 A 
ATOM     12  N   UNL     1      45.941   3.430   7.798  0.00  0.00    +0.000 NA
ATOM     13  C   UNL     1      46.935   3.266   6.903  0.00  0.00    +0.000 A 
ATOM     14  C   UNL     1      47.573   2.068   6.688  0.00  0.00    +0.000 A 
ATOM     15  C   UNL     1      47.102   1.005   7.416  0.00  0.00    +0.000 A 
ATOM     16  N   UNL     1      46.113   1.106   8.324  0.00  0.00    +0.000 NA
ENDBRANCH  10  11
ENDBRANCH   9  10
ENDBRANCH   8   9
ENDBRANCH   5   8
ENDBRANCH   1   2
BRANCH   1  19
ATOM     17  C   UNL     1      48.836   6.957  15.828  0.00  0.00    +0.000 C 
ATOM     18  O   UNL     1      48.584   8.144  15.978  0.00  0.00    +0.000 OA
ATOM     19  N   UNL     1      48.666   6.296  14.632  0.00  0.00    +0.000 N 
ATOM     20  H   UNL     1      48.846   5.296  14.634  0.00  0.00    +0.000 HD
BRANCH  17  24
ATOM     21  C   UNL     1      51.661   3.844  18.290  0.00  0.00    +0.000 C 
ATOM     22  N   UNL     1      50.572   4.752  18.019  0.00  0.00    +0.000 N 
ATOM     23  N   UNL     1      50.447   5.322  16.798  0.00  0.00    +0.000 NA
ATOM     24  C   UNL     1      49.355   6.106  16.919  0.00  0.00    +0.000 A 
ATOM     25  C   UNL     1      48.785   6.008  18.220  0.00  0.00    +0.000 A 
ATOM     26  C   UNL     1      47.687   6.574  18.872  0.00  0.00    +0.000 A 
ATOM     27  N   UNL     1      47.420   6.252  20.162  0.00  0.00    +0.000 NA
ATOM     28  C   UNL     1      48.235   5.381  20.799  0.00  0.00    +0.000 A 
ATOM     29  C   UNL     1      49.348   4.773  20.239  0.00  0.00    +0.000 A 
ATOM     30  C   UNL     1      49.599   5.120  18.911  0.00  0.00    +0.000 A 
ENDBRANCH  17  24
ENDBRANCH   1  19
TORSDOF 7
ENDMDL
MODEL 4
REMARK VINA RESULT:    -7.378      3.571      5.054
REMARK INTER + INTRA:         -11.181
REMARK INTER:                 -10.334
REMARK INTRA:                  -0.846
REMARK UNBOUND:                -0.784
REMARK  Name = 
REMARK  8 active torsions:
REMARK  status: ('A' for Active; 'I' for Inactive)
REMARK    1  A    between atoms: C_1  and  N_2
REMARK    2  A    between atoms: C_4  and  C_5
REMARK    3  A    between atoms: N_7  and  C_8
REMARK    4  A    between atoms: C_8  and  C_9
REMARK    5  A    between atoms: C_12  and  C_13
REMARK    6  A    between atoms: C_13  and  O_14
REMARK    7  A    between atoms: O_14  and  C_15
REMARK    8  A    between atoms: C_15  and  C_16
REMARK                            x       y       z     vdW  Elec       q    Type
REMARK                         _______ _______ _______ _____ _____    ______ ____
ROOT
ATOM      1  C   UNL     1      47.474   6.205  14.053  0.00  0.00    +0.000 C 
ENDROOT
BRANCH   1   2
ATOM      2  C   UNL     1      46.374   5.342  13.494  0.00  0.00    +0.000 A 
ATOM      3  C   UNL     1      46.575   3.982  13.222  0.00  0.00    +0.000 A 
ATOM      4  C   UNL     1      45.562   3.221  12.628  0.00  0.00    +0.000 A 
ATOM      5  C   UNL     1      44.339   3.799  12.287  0.00  0.00    +0.000 A 
ATOM      6  C   UNL     1      44.120   5.149  12.598  0.00  0.00    +0.000 A 
ATOM      7  C   UNL     1      45.130   5.910  13.198  0.00  0.00    +0.000 A 
BRANCH   5   8
ATOM      8  C   UNL     1      43.317   2.981  11.541  0.00  0.00    +0.000 C 
BRANCH   8   9
ATOM      9  O   UNL     1      43.921   2.424  10.381  0.00  0.00    +0.000 OA
BRANCH   9  10
ATOM     10  C   UNL     1      44.217   3.427   9.405  0.00  0.00    +0.000 C 
BRANCH  10  11
ATOM     11  C   UNL     1      45.266   2.939   8.429  0.00  0.00    +0.000 A 
ATOM     12  N   UNL     1      45.789   3.838   7.574  0.00  0.00    +0.000 NA
ATOM     13  C   UNL     1      46.816   3.414   6.812  0.00  0.00    +0.000 A 
ATOM     14  C   UNL     1      47.337   2.144   6.879  0.00  0.00    +0.000 A 
ATOM     15  C   UNL     1      46.711   1.289   7.751  0.00  0.00    +0.000 A 
ATOM     16  N   UNL     1      45.681   1.656   8.538  0.00  0.00    +0.000 NA
ENDBRANCH  10  11
ENDBRANCH   9  10
ENDBRANCH   8   9
ENDBRANCH   5   8
ENDBRANCH   1   2
BRANCH   1  19
ATOM     17  C   UNL     1      47.806   8.040  12.466  0.00  0.00    +0.000 C 
ATOM     18  O   UNL     1      48.343   7.311  11.645  0.00  0.00    +0.000 OA
ATOM     19  N   UNL     1      47.345   7.593  13.684  0.00  0.00    +0.000 N 
ATOM     20  H   UNL     1      46.858   8.270  14.263  0.00  0.00    +0.000 HD
BRANCH  17  24
ATOM     21  C   UNL     1      48.734  12.775  11.791  0.00  0.00    +0.000 C 
ATOM     22  N   UNL     1      47.972  11.556  11.936  0.00  0.00    +0.000 N 
ATOM     23  N   UNL     1      48.601  10.384  12.187  0.00  0.00    +0.000 NA
ATOM     24  C   UNL     1      47.597   9.485  12.236  0.00  0.00    +0.000 A 
ATOM     25  C   UNL     1      46.331  10.105  12.033  0.00  0.00    +0.000 A 
ATOM     26  C   UNL     1      45.004   9.671  11.988  0.00  0.00    +0.000 A 
ATOM     27  N   UNL     1      44.004  10.559  11.765  0.00  0.00    +0.000 NA
ATOM     28  C   UNL     1      44.316  11.862  11.586  0.00  0.00    +0.000 A 
ATOM     29  C   UNL     1      45.599  12.386  11.609  0.00  0.00    +0.000 A 
ATOM     30  C   UNL     1      46.609  11.452  11.841  0.00  0.00    +0.000 A 
ENDBRANCH  17  24
ENDBRANCH   1  19
TORSDOF 7
ENDMDL
MODEL 5
REMARK VINA RESULT:    -6.829      3.015      8.898
REMARK INTER + INTRA:         -10.407
REMARK INTER:                  -9.300
REMARK INTRA:                  -1.107
REMARK UNBOUND:                -0.784
REMARK  Name = 
REMARK  8 active torsions:
REMARK  status: ('A' for Active; 'I' for Inactive)
REMARK    1  A    between atoms: C_1  and  N_2
REMARK    2  A    between atoms: C_4  and  C_5
REMARK    3  A    between atoms: N_7  and  C_8
REMARK    4  A    between atoms: C_8  and  C_9
REMARK    5  A    between atoms: C_12  and  C_13
REMARK    6  A    between atoms: C_13  and  O_14
REMARK    7  A    between atoms: O_14  and  C_15
REMARK    8  A    between atoms: C_15  and  C_16
REMARK                            x       y       z     vdW  Elec       q    Type
REMARK                         _______ _______ _______ _____ _____    ______ ____
ROOT
ATOM      1  C   UNL     1      48.142   8.154  12.124  0.00  0.00    +0.000 C 
ENDROOT
BRANCH   1   2
ATOM      2  C   UNL     1      48.987   7.758  13.306  0.00  0.00    +0.000 A 
ATOM      3  C   UNL     1      48.482   6.945  14.330  0.00  0.00    +0.000 A 
ATOM      4  C   UNL     1      49.261   6.658  15.456  0.00  0.00    +0.000 A 
ATOM      5  C   UNL     1      50.549   7.180  15.589  0.00  0.00    +0.000 A 
ATOM      6  C   UNL     1      51.072   7.958  14.546  0.00  0.00    +0.000 A 
ATOM      7  C   UNL     1      50.296   8.240  13.416  0.00  0.00    +0.000 A 
BRANCH   5   8
ATOM      8  C   UNL     1      51.312   6.948  16.867  0.00  0.00    +0.000 C 
BRANCH   8   9
ATOM      9  O   UNL     1      51.707   5.585  16.935  0.00  0.00    +0.000 OA
BRANCH   9  10
ATOM     10  C   UNL     1      51.239   4.957  18.132  0.00  0.00    +0.000 C 
BRANCH  10  11
ATOM     11  C   UNL     1      49.975   4.166  17.868  0.00  0.00    +0.000 A 
ATOM     12  N   UNL     1      48.823   4.643  18.375  0.00  0.00    +0.000 NA
ATOM     13  C   UNL     1      47.696   4.001  18.012  0.00  0.00    +0.000 A 
ATOM     14  C   UNL     1      47.679   2.918  17.164  0.00  0.00    +0.000 A 
ATOM     15  C   UNL     1      48.905   2.482  16.733  0.00  0.00    +0.000 A 
ATOM     16  N   UNL     1      50.065   3.083  17.062  0.00  0.00    +0.000 NA
ENDBRANCH  10  11
ENDBRANCH   9  10
ENDBRANCH   8   9
ENDBRANCH   5   8
ENDBRANCH   1   2
BRANCH   1  19
ATOM     17  C   UNL     1      46.118   6.954  11.449  0.00  0.00    +0.000 C 
ATOM     18  O   UNL     1      45.382   7.807  11.925  0.00  0.00    +0.000 OA
ATOM     19  N   UNL     1      47.491   7.031  11.497  0.00  0.00    +0.000 N 
ATOM     20  H   UNL     1      48.006   6.299  11.015  0.00  0.00    +0.000 HD
BRANCH  17  24
ATOM     21  C   UNL     1      45.227   3.648   7.982  0.00  0.00    +0.000 C 
ATOM     22  N   UNL     1      45.202   4.284   9.279  0.00  0.00    +0.000 N 
ATOM     23  N   UNL     1      45.812   5.477   9.465  0.00  0.00    +0.000 NA
ATOM     24  C   UNL     1      45.605   5.745  10.771  0.00  0.00    +0.000 A 
ATOM     25  C   UNL     1      44.842   4.718  11.398  0.00  0.00    +0.000 A 
ATOM     26  C   UNL     1      44.349   4.487  12.685  0.00  0.00    +0.000 A 
ATOM     27  N   UNL     1      43.634   3.366  12.949  0.00  0.00    +0.000 NA
ATOM     28  C   UNL     1      43.414   2.481  11.950  0.00  0.00    +0.000 A 
ATOM     29  C   UNL     1      43.865   2.621  10.647  0.00  0.00    +0.000 A 
ATOM     30  C   UNL     1      44.596   3.783  10.401  0.00  0.00    +0.000 A 
ENDBRANCH  17  24
ENDBRANCH   1  19
TORSDOF 7
ENDMDL
MODEL 6
REMARK VINA RESULT:    -6.778      1.899      2.847
REMARK INTER + INTRA:         -10.335
REMARK INTER:                  -9.526
REMARK INTRA:                  -0.809
REMARK UNBOUND:                -0.784
REMARK  Name = 
REMARK  8 active torsions:
REMARK  status: ('A' for Active; 'I' for Inactive)
REMARK    1  A    between atoms: C_1  and  N_2
REMARK    2  A    between atoms: C_4  and  C_5
REMARK    3  A    between atoms: N_7  and  C_8
REMARK    4  A    between atoms: C_8  and  C_9
REMARK    5  A    between atoms: C_12  and  C_13
REMARK    6  A    between atoms: C_13  and  O_14
REMARK    7  A    between atoms: O_14  and  C_15
REMARK    8  A    between atoms: C_15  and  C_16
REMARK                            x       y       z     vdW  Elec       q    Type
REMARK                         _______ _______ _______ _____ _____    ______ ____
ROOT
ATOM      1  C   UNL     1      47.816   5.272  14.638  0.00  0.00    +0.000 C 
ENDROOT
BRANCH   1   2
ATOM      2  C   UNL     1      46.717   5.015  13.641  0.00  0.00    +0.000 A 
ATOM      3  C   UNL     1      45.963   6.061  13.093  0.00  0.00    +0.000 A 
ATOM      4  C   UNL     1      44.895   5.790  12.230  0.00  0.00    +0.000 A 
ATOM      5  C   UNL     1      44.554   4.477  11.905  0.00  0.00    +0.000 A 
ATOM      6  C   UNL     1      45.334   3.429  12.417  0.00  0.00    +0.000 A 
ATOM      7  C   UNL     1      46.406   3.701  13.275  0.00  0.00    +0.000 A 
BRANCH   5   8
ATOM      8  C   UNL     1      43.326   4.217  11.070  0.00  0.00    +0.000 C 
BRANCH   8   9
ATOM      9  O   UNL     1      43.680   3.403   9.960  0.00  0.00    +0.000 OA
BRANCH   9  10
ATOM     10  C   UNL     1      44.357   4.154   8.948  0.00  0.00    +0.000 C 
BRANCH  10  11
ATOM     11  C   UNL     1      45.472   3.340   8.326  0.00  0.00    +0.000 A 
ATOM     12  N   UNL     1      45.557   2.039   8.661  0.00  0.00    +0.000 NA
ATOM     13  C   UNL     1      46.467   1.305   7.991  0.00  0.00    +0.000 A 
ATOM     14  C   UNL     1      47.278   1.816   7.006  0.00  0.00    +0.000 A 
ATOM     15  C   UNL     1      47.145   3.160   6.765  0.00  0.00    +0.000 A 
ATOM     16  N   UNL     1      46.254   3.944   7.401  0.00  0.00    +0.000 NA
ENDBRANCH  10  11
ENDBRANCH   9  10
ENDBRANCH   8   9
ENDBRANCH   5   8
ENDBRANCH   1   2
BRANCH   1  19
ATOM     17  C   UNL     1      48.971   7.168  15.672  0.00  0.00    +0.000 C 
ATOM     18  O   UNL     1      50.017   6.545  15.783  0.00  0.00    +0.000 OA
ATOM     19  N   UNL     1      47.828   6.630  15.123  0.00  0.00    +0.000 N 
ATOM     20  H   UNL     1      47.034   7.255  15.021  0.00  0.00    +0.000 HD
BRANCH  17  24
ATOM     21  C   UNL     1      47.681  11.037  18.336  0.00  0.00    +0.000 C 
ATOM     22  N   UNL     1      48.277  10.275  17.264  0.00  0.00    +0.000 N 
ATOM     23  N   UNL     1      48.132   8.931  17.220  0.00  0.00    +0.000 NA
ATOM     24  C   UNL     1      48.824   8.568  16.119  0.00  0.00    +0.000 A 
ATOM     25  C   UNL     1      49.387   9.700  15.462  0.00  0.00    +0.000 A 
ATOM     26  C   UNL     1      50.165   9.904  14.319  0.00  0.00    +0.000 A 
ATOM     27  N   UNL     1      50.541  11.157  13.967  0.00  0.00    +0.000 NA
ATOM     28  C   UNL     1      50.155  12.197  14.741  0.00  0.00    +0.000 A 
ATOM     29  C   UNL     1      49.389  12.094  15.892  0.00  0.00    +0.000 A 
ATOM     30  C   UNL     1      49.013  10.794  16.231  0.00  0.00    +0.000 A 
ENDBRANCH  17  24
ENDBRANCH   1  19
TORSDOF 7
ENDMDL
MODEL 7
REMARK VINA RESULT:    -6.677      2.503      9.050
REMARK INTER + INTRA:         -10.193
REMARK INTER:                  -9.196
REMARK INTRA:                  -0.997
REMARK UNBOUND:                -0.784
REMARK  Name = 
REMARK  8 active torsions:
REMARK  status: ('A' for Active; 'I' for Inactive)
REMARK    1  A    between atoms: C_1  and  N_2
REMARK    2  A    between atoms: C_4  and  C_5
REMARK    3  A    between atoms: N_7  and  C_8
REMARK    4  A    between atoms: C_8  and  C_9
REMARK    5  A    between atoms: C_12  and  C_13
REMARK    6  A    between atoms: C_13  and  O_14
REMARK    7  A    between atoms: O_14  and  C_15
REMARK    8  A    between atoms: C_15  and  C_16
REMARK                            x       y       z     vdW  Elec       q    Type
REMARK                         _______ _______ _______ _____ _____    ______ ____
ROOT
ATOM      1  C   UNL     1      47.807   8.058  11.972  0.00  0.00    +0.000 C 
ENDROOT
BRANCH   1   2
ATOM      2  C   UNL     1      48.302   8.066  13.394  0.00  0.00    +0.000 A 
ATOM      3  C   UNL     1      47.770   8.940  14.351  0.00  0.00    +0.000 A 
ATOM      4  C   UNL     1      48.303   8.983  15.645  0.00  0.00    +0.000 A 
ATOM      5  C   UNL     1      49.375   8.167  16.006  0.00  0.00    +0.000 A 
ATOM      6  C   UNL     1      49.880   7.259  15.063  0.00  0.00    +0.000 A 
ATOM      7  C   UNL     1      49.344   7.211  13.771  0.00  0.00    +0.000 A 
BRANCH   5   8
ATOM      8  C   UNL     1      49.999   8.325  17.368  0.00  0.00    +0.000 C 
BRANCH   8   9
ATOM      9  O   UNL     1      50.568   7.085  17.768  0.00  0.00    +0.000 OA
BRANCH   9  10
ATOM     10  C   UNL     1      49.725   6.388  18.688  0.00  0.00    +0.000 C 
BRANCH  10  11
ATOM     11  C   UNL     1      49.097   5.175  18.034  0.00  0.00    +0.000 A 
ATOM     12  N   UNL     1      49.817   4.038  18.006  0.00  0.00    +0.000 NA
ATOM     13  C   UNL     1      49.187   2.940  17.545  0.00  0.00    +0.000 A 
ATOM     14  C   UNL     1      47.878   2.935  17.128  0.00  0.00    +0.000 A 
ATOM     15  C   UNL     1      47.240   4.150  17.157  0.00  0.00    +0.000 A 
ATOM     16  N   UNL     1      47.817   5.281  17.606  0.00  0.00    +0.000 NA
ENDBRANCH  10  11
ENDBRANCH   9  10
ENDBRANCH   8   9
ENDBRANCH   5   8
ENDBRANCH   1   2
BRANCH   1  19
ATOM     17  C   UNL     1      45.748   6.802  11.549  0.00  0.00    +0.000 C 
ATOM     18  O   UNL     1      45.040   7.773  11.777  0.00  0.00    +0.000 OA
ATOM     19  N   UNL     1      47.122   6.839  11.621  0.00  0.00    +0.000 N 
ATOM     20  H   UNL     1      47.615   5.993  11.351  0.00  0.00    +0.000 HD
BRANCH  17  24
ATOM     21  C   UNL     1      43.317   2.588  11.806  0.00  0.00    +0.000 C 
ATOM     22  N   UNL     1      44.144   3.638  11.258  0.00  0.00    +0.000 N 
ATOM     23  N   UNL     1      44.446   4.727  12.002  0.00  0.00    +0.000 NA
ATOM     24  C   UNL     1      45.198   5.483  11.175  0.00  0.00    +0.000 A 
ATOM     25  C   UNL     1      45.382   4.849   9.913  0.00  0.00    +0.000 A 
ATOM     26  C   UNL     1      46.051   5.164   8.728  0.00  0.00    +0.000 A 
ATOM     27  N   UNL     1      46.022   4.304   7.680  0.00  0.00    +0.000 NA
ATOM     28  C   UNL     1      45.334   3.147   7.804  0.00  0.00    +0.000 A 
ATOM     29  C   UNL     1      44.637   2.750   8.935  0.00  0.00    +0.000 A 
ATOM     30  C   UNL     1      44.685   3.651   9.999  0.00  0.00    +0.000 A 
ENDBRANCH  17  24
ENDBRANCH   1  19
TORSDOF 7
ENDMDL
MODEL 8
REMARK VINA RESULT:    -6.581      1.449      2.605
REMARK INTER + INTRA:         -10.059
REMARK INTER:                  -9.402
REMARK INTRA:                  -0.657
REMARK UNBOUND:                -0.784
REMARK  Name = 
REMARK  8 active torsions:
REMARK  status: ('A' for Active; 'I' for Inactive)
REMARK    1  A    between atoms: C_1  and  N_2
REMARK    2  A    between atoms: C_4  and  C_5
REMARK    3  A    between atoms: N_7  and  C_8
REMARK    4  A    between atoms: C_8  and  C_9
REMARK    5  A    between atoms: C_12  and  C_13
REMARK    6  A    between atoms: C_13  and  O_14
REMARK    7  A    between atoms: O_14  and  C_15
REMARK    8  A    between atoms: C_15  and  C_16
REMARK                            x       y       z     vdW  Elec       q    Type
REMARK                         _______ _______ _______ _____ _____    ______ ____
ROOT
ATOM      1  C   UNL     1      48.281   8.966  14.220  0.00  0.00    +0.000 C 
ENDROOT
BRANCH   1   2
ATOM      2  C   UNL     1      47.301   8.172  13.397  0.00  0.00    +0.000 A 
ATOM      3  C   UNL     1      46.113   8.741  12.920  0.00  0.00    +0.000 A 
ATOM      4  C   UNL     1      45.181   7.960  12.227  0.00  0.00    +0.000 A 
ATOM      5  C   UNL     1      45.410   6.602  12.004  0.00  0.00    +0.000 A 
ATOM      6  C   UNL     1      46.618   6.040  12.441  0.00  0.00    +0.000 A 
ATOM      7  C   UNL     1      47.553   6.822  13.130  0.00  0.00    +0.000 A 
BRANCH   5   8
ATOM      8  C   UNL     1      44.334   5.767  11.360  0.00  0.00    +0.000 C 
BRANCH   8   9
ATOM      9  O   UNL     1      44.796   4.430  11.228  0.00  0.00    +0.000 OA
BRANCH   9  10
ATOM     10  C   UNL     1      44.184   3.765  10.120  0.00  0.00    +0.000 C 
BRANCH  10  11
ATOM     11  C   UNL     1      45.220   3.354   9.096  0.00  0.00    +0.000 A 
ATOM     12  N   UNL     1      45.531   2.047   9.012  0.00  0.00    +0.000 NA
ATOM     13  C   UNL     1      46.349   1.687   8.003  0.00  0.00    +0.000 A 
ATOM     14  C   UNL     1      46.853   2.575   7.082  0.00  0.00    +0.000 A 
ATOM     15  C   UNL     1      46.511   3.890   7.275  0.00  0.00    +0.000 A 
ATOM     16  N   UNL     1      45.698   4.308   8.264  0.00  0.00    +0.000 NA
ENDBRANCH  10  11
ENDBRANCH   9  10
ENDBRANCH   8   9
ENDBRANCH   5   8
ENDBRANCH   1   2
BRANCH   1  19
ATOM     17  C   UNL     1      48.611   8.239  16.534  0.00  0.00    +0.000 C 
ATOM     18  O   UNL     1      49.521   7.482  16.228  0.00  0.00    +0.000 OA
ATOM     19  N   UNL     1      47.935   9.013  15.618  0.00  0.00    +0.000 N 
ATOM     20  H   UNL     1      47.239   9.653  15.989  0.00  0.00    +0.000 HD
BRANCH  17  24
ATOM     21  C   UNL     1      46.740  10.256  20.555  0.00  0.00    +0.000 C 
ATOM     22  N   UNL     1      47.325   9.254  19.695  0.00  0.00    +0.000 N 
ATOM     23  N   UNL     1      47.652   9.559  18.418  0.00  0.00    +0.000 NA
ATOM     24  C   UNL     1      48.141   8.401  17.926  0.00  0.00    +0.000 A 
ATOM     25  C   UNL     1      48.135   7.373  18.912  0.00  0.00    +0.000 A 
ATOM     26  C   UNL     1      48.517   6.030  18.952  0.00  0.00    +0.000 A 
ATOM     27  N   UNL     1      48.369   5.315  20.095  0.00  0.00    +0.000 NA
ATOM     28  C   UNL     1      47.846   5.923  21.183  0.00  0.00    +0.000 A 
ATOM     29  C   UNL     1      47.435   7.246  21.238  0.00  0.00    +0.000 A 
ATOM     30  C   UNL     1      47.599   7.959  20.050  0.00  0.00    +0.000 A 
ENDBRANCH  17  24
ENDBRANCH   1  19
TORSDOF 7
ENDMDL
MODEL 9
REMARK VINA RESULT:    -5.746      1.644      2.308
REMARK INTER + INTRA:          -8.881
REMARK INTER:                  -8.264
REMARK INTRA:                  -0.617
REMARK UNBOUND:                -0.784
REMARK  Name = 
REMARK  8 active torsions:
REMARK  status: ('A' for Active; 'I' for Inactive)
REMARK    1  A    between atoms: C_1  and  N_2
REMARK    2  A    between atoms: C_4  and  C_5
REMARK    3  A    between atoms: N_7  and  C_8
REMARK    4  A    between atoms: C_8  and  C_9
REMARK    5  A    between atoms: C_12  and  C_13
REMARK    6  A    between atoms: C_13  and  O_14
REMARK    7  A    between atoms: O_14  and  C_15
REMARK    8  A    between atoms: C_15  and  C_16
REMARK                            x       y       z     vdW  Elec       q    Type
REMARK                         _______ _______ _______ _____ _____    ______ ____
ROOT
ATOM      1  C   UNL     1      49.432   8.424  15.380  0.00  0.00    +0.000 C 
ENDROOT
BRANCH   1   2
ATOM      2  C   UNL     1      48.593   7.932  14.230  0.00  0.00    +0.000 A 
ATOM      3  C   UNL     1      48.191   8.788  13.196  0.00  0.00    +0.000 A 
ATOM      4  C   UNL     1      47.345   8.327  12.181  0.00  0.00    +0.000 A 
ATOM      5  C   UNL     1      46.879   7.012  12.181  0.00  0.00    +0.000 A 
ATOM      6  C   UNL     1      47.315   6.141  13.190  0.00  0.00    +0.000 A 
ATOM      7  C   UNL     1      48.165   6.600  14.202  0.00  0.00    +0.000 A 
BRANCH   5   8
ATOM      8  C   UNL     1      45.876   6.583  11.141  0.00  0.00    +0.000 C 
BRANCH   8   9
ATOM      9  O   UNL     1      45.434   5.265  11.434  0.00  0.00    +0.000 OA
BRANCH   9  10
ATOM     10  C   UNL     1      44.418   4.833  10.524  0.00  0.00    +0.000 C 
BRANCH  10  11
ATOM     11  C   UNL     1      44.998   3.933   9.453  0.00  0.00    +0.000 A 
ATOM     12  N   UNL     1      45.584   4.522   8.393  0.00  0.00    +0.000 NA
ATOM     13  C   UNL     1      46.214   3.706   7.525  0.00  0.00    +0.000 A 
ATOM     14  C   UNL     1      46.286   2.342   7.682  0.00  0.00    +0.000 A 
ATOM     15  C   UNL     1      45.625   1.833   8.771  0.00  0.00    +0.000 A 
ATOM     16  N   UNL     1      44.979   2.598   9.672  0.00  0.00    +0.000 NA
ENDBRANCH  10  11
ENDBRANCH   9  10
ENDBRANCH   8   9
ENDBRANCH   5   8
ENDBRANCH   1   2
BRANCH   1  19
ATOM     17  C   UNL     1      49.892   7.707  17.676  0.00  0.00    +0.000 C 
ATOM     18  O   UNL     1      51.089   7.931  17.567  0.00  0.00    +0.000 OA
ATOM     19  N   UNL     1      48.992   7.915  16.655  0.00  0.00    +0.000 N 
ATOM     20  H   UNL     1      48.012   7.756  16.873  0.00  0.00    +0.000 HD
BRANCH  17  24
ATOM     21  C   UNL     1      48.681   4.664  21.282  0.00  0.00    +0.000 C 
ATOM     22  N   UNL     1      48.743   5.881  20.507  0.00  0.00    +0.000 N 
ATOM     23  N   UNL     1      49.427   5.912  19.340  0.00  0.00    +0.000 NA
ATOM     24  C   UNL     1      49.286   7.186  18.919  0.00  0.00    +0.000 A 
ATOM     25  C   UNL     1      48.492   7.949  19.823  0.00  0.00    +0.000 A 
ATOM     26  C   UNL     1      48.037   9.269  19.880  0.00  0.00    +0.000 A 
ATOM     27  N   UNL     1      47.272   9.680  20.921  0.00  0.00    +0.000 NA
ATOM     28  C   UNL     1      46.964   8.795  21.895  0.00  0.00    +0.000 A 
ATOM     29  C   UNL     1      47.370   7.470  21.927  0.00  0.00    +0.000 A 
ATOM     30  C   UNL     1      48.154   7.071  20.845  0.00  0.00    +0.000 A 
ENDBRANCH  17  24
ENDBRANCH   1  19
TORSDOF 7
ENDMDL
