MODEL 1
REMARK VINA RESULT:    -8.828      0.000      0.000
REMARK INTER + INTRA:         -13.244
REMARK INTER:                 -12.441
REMARK INTRA:                  -0.803
REMARK UNBOUND:                -0.803
REMARK  Name = 
REMARK  7 active torsions:
REMARK  status: ('A' for Active; 'I' for Inactive)
REMARK    1  A    between atoms: C_2  and  C_3
REMARK    2  A    between atoms: C_2  and  C_11
REMARK    3  A    between atoms: C_3  and  C_4
REMARK    4  A    between atoms: C_4  and  C_5
REMARK    5  A    between atoms: C_14  and  C_15
REMARK    6  A    between atoms: C_15  and  N_16
REMARK    7  A    between atoms: C_17  and  C_19
REMARK                            x       y       z     vdW  Elec       q    Type
REMARK                         _______ _______ _______ _____ _____    ______ ____
ROOT
ATOM      1  C   UNL     1      45.038   4.542  11.563  0.00  0.00    +0.000 A 
ATOM      2  C   UNL     1      45.491   5.676  10.897  0.00  0.00    +0.000 A 
ATOM      3  C   UNL     1      46.508   6.428  11.477  0.00  0.00    +0.000 A 
ATOM      4  C   UNL     1      47.042   6.041  12.708  0.00  0.00    +0.000 A 
ATOM      5  C   UNL     1      46.535   4.879  13.285  0.00  0.00    +0.000 A 
ATOM      6  N   UNL     1      45.546   4.124  12.750  0.00  0.00    +0.000 NA
ENDROOT
BRANCH   1   8
ATOM      7  O   UNL     1      42.783   3.898  11.321  0.00  0.00    +0.000 OA
ATOM      8  C   UNL     1      43.947   3.728  10.945  0.00  0.00    +0.000 C 
BRANCH   8   9
ATOM      9  C   UNL     1      44.307   2.691   9.896  0.00  0.00    +0.000 C 
BRANCH   9  10
ATOM     10  C   UNL     1      44.733   3.388   8.600  0.00  0.00    +0.000 C 
BRANCH  10  11
ATOM     11  C   UNL     1      45.856   2.695   7.868  0.00  0.00    +0.000 A 
ATOM     12  C   UNL     1      46.655   3.402   6.965  0.00  0.00    +0.000 A 
ATOM     13  C   UNL     1      47.706   2.744   6.345  0.00  0.00    +0.000 A 
ATOM     14  N   UNL     1      48.013   1.447   6.559  0.00  0.00    +0.000 NA
ATOM     15  C   UNL     1      47.234   0.783   7.438  0.00  0.00    +0.000 A 
ATOM     16  C   UNL     1      46.162   1.354   8.111  0.00  0.00    +0.000 A 
ENDBRANCH  10  11
ENDBRANCH   9  10
ENDBRANCH   8   9
ENDBRANCH   1   8
BRANCH   4  17
ATOM     17  C   UNL     1      48.142   6.828  13.361  0.00  0.00    +0.000 C 
BRANCH  17  18
ATOM     18  N   UNL     1      47.983   6.874  14.792  0.00  0.00    +0.000 N 
ATOM     19  C   UNL     1      49.073   6.822  15.627  0.00  0.00    +0.000 C 
ATOM     20  O   UNL     1      50.220   6.783  15.193  0.00  0.00    +0.000 OA
ATOM     21  H   UNL     1      47.066   6.653  15.170  0.00  0.00    +0.000 HD
BRANCH  19  22
ATOM     22  C   UNL     1      48.799   6.879  17.069  0.00  0.00    +0.000 A 
ATOM     23  C   UNL     1      48.510   8.098  17.668  0.00  0.00    +0.000 A 
ATOM     24  S   UNL     1      48.182   7.979  19.338  0.00  0.00    +0.000 S 
ATOM     25  C   UNL     1      48.466   6.302  19.330  0.00  0.00    +0.000 A 
ATOM     26  N   UNL     1      48.387   5.574  20.476  0.00  0.00    +0.000 NA
ATOM     27  C   UNL     1      48.660   4.320  20.332  0.00  0.00    +0.000 A 
ATOM     28  N   UNL     1      48.993   3.726  19.143  0.00  0.00    +0.000 N 
ATOM     29  C   UNL     1      49.041   4.412  17.953  0.00  0.00    +0.000 A 
ATOM     30  O   UNL     1      49.271   3.839  16.892  0.00  0.00    +0.000 OA
ATOM     31  C   UNL     1      48.776   5.834  18.066  0.00  0.00    +0.000 A 
ATOM     32  H   UNL     1      49.177   2.735  19.095  0.00  0.00    +0.000 HD
ENDBRANCH  19  22
ENDBRANCH  17  18
ENDBRANCH   4  17
TORSDOF 7
ENDMDL
MODEL 2
REMARK VINA RESULT:    -8.563      1.393      2.055
REMARK INTER + INTRA:         -12.871
REMARK INTER:                 -11.824
REMARK INTRA:                  -1.047
REMARK UNBOUND:                -0.803
REMARK  Name = 
REMARK  7 active torsions:
REMARK  status: ('A' for Active; 'I' for Inactive)
REMARK    1  A    between atoms: C_2  and  C_3
REMARK    2  A    between atoms: C_2  and  C_11
REMARK    3  A    between atoms: C_3  and  C_4
REMARK    4  A    between atoms: C_4  and  C_5
REMARK    5  A    between atoms: C_14  and  C_15
REMARK    6  A    between atoms: C_15  and  N_16
REMARK    7  A    between atoms: C_17  and  C_19
REMARK                            x       y       z     vdW  Elec       q    Type
REMARK                         _______ _______ _______ _____ _____    ______ ____
ROOT
ATOM      1  C   UNL     1      45.137   4.597  11.945  0.00  0.00    +0.000 A 
ATOM      2  C   UNL     1      45.581   5.834  11.491  0.00  0.00    +0.000 A 
ATOM      3  C   UNL     1      46.590   6.482  12.198  0.00  0.00    +0.000 A 
ATOM      4  C   UNL     1      47.124   5.889  13.344  0.00  0.00    +0.000 A 
ATOM      5  C   UNL     1      46.626   4.640  13.706  0.00  0.00    +0.000 A 
ATOM      6  N   UNL     1      45.645   3.982  13.043  0.00  0.00    +0.000 NA
ENDROOT
BRANCH   1   8
ATOM      7  O   UNL     1      42.877   4.195  11.407  0.00  0.00    +0.000 OA
ATOM      8  C   UNL     1      44.054   3.895  11.190  0.00  0.00    +0.000 C 
BRANCH   8   9
ATOM      9  C   UNL     1      44.435   2.807  10.201  0.00  0.00    +0.000 C 
BRANCH   9  10
ATOM     10  C   UNL     1      44.738   3.429   8.834  0.00  0.00    +0.000 C 
BRANCH  10  11
ATOM     11  C   UNL     1      45.832   2.727   8.067  0.00  0.00    +0.000 A 
ATOM     12  C   UNL     1      46.690   3.453   7.236  0.00  0.00    +0.000 A 
ATOM     13  C   UNL     1      47.712   2.781   6.581  0.00  0.00    +0.000 A 
ATOM     14  N   UNL     1      47.935   1.455   6.695  0.00  0.00    +0.000 NA
ATOM     15  C   UNL     1      47.098   0.773   7.506  0.00  0.00    +0.000 A 
ATOM     16  C   UNL     1      46.050   1.355   8.205  0.00  0.00    +0.000 A 
ENDBRANCH  10  11
ENDBRANCH   9  10
ENDBRANCH   8   9
ENDBRANCH   1   8
BRANCH   4  17
ATOM     17  C   UNL     1      48.214   6.559  14.129  0.00  0.00    +0.000 C 
BRANCH  17  18
ATOM     18  N   UNL     1      48.041   6.366  15.547  0.00  0.00    +0.000 N 
ATOM     19  C   UNL     1      49.120   6.141  16.368  0.00  0.00    +0.000 C 
ATOM     20  O   UNL     1      50.270   6.142  15.940  0.00  0.00    +0.000 OA
ATOM     21  H   UNL     1      47.114   6.113  15.876  0.00  0.00    +0.000 HD
BRANCH  19  22
ATOM     22  C   UNL     1      48.831   5.962  17.797  0.00  0.00    +0.000 A 
ATOM     23  C   UNL     1      49.071   4.734  18.399  0.00  0.00    +0.000 A 
ATOM     24  S   UNL     1      48.716   4.710  20.068  0.00  0.00    +0.000 S 
ATOM     25  C   UNL     1      48.179   6.324  20.033  0.00  0.00    +0.000 A 
ATOM     26  N   UNL     1      47.694   6.925  21.153  0.00  0.00    +0.000 NA
ATOM     27  C   UNL     1      47.290   8.138  20.976  0.00  0.00    +0.000 A 
ATOM     28  N   UNL     1      47.339   8.810  19.782  0.00  0.00    +0.000 N 
ATOM     29  C   UNL     1      47.862   8.260  18.636  0.00  0.00    +0.000 A 
ATOM     30  O   UNL     1      47.959   8.911  17.600  0.00  0.00    +0.000 OA
ATOM     31  C   UNL     1      48.299   6.883  18.773  0.00  0.00    +0.000 A 
ATOM     32  H   UNL     1      47.024   9.767  19.715  0.00  0.00    +0.000 HD
ENDBRANCH  19  22
ENDBRANCH  17  18
ENDBRANCH   4  17
TORSDOF 7
ENDMDL
MODEL 3
REMARK VINA RESULT:    -8.502      1.314      1.492
REMARK INTER + INTRA:         -12.784
REMARK INTER:                 -11.777
REMARK INTRA:                  -1.007
REMARK UNBOUND:                -0.803
REMARK  Name = 
REMARK  7 active torsions:
REMARK  status: ('A' for Active; 'I' for Inactive)
REMARK    1  A    between atoms: C_2  and  C_3
REMARK    2  A    between atoms: C_2  and  C_11
REMARK    3  A    between atoms: C_3  and  C_4
REMARK    4  A    between atoms: C_4  and  C_5
REMARK    5  A    between atoms: C_14  and  C_15
REMARK    6  A    between atoms: C_15  and  N_16
REMARK    7  A    between atoms: C_17  and  C_19
REMARK                            x       y       z     vdW  Elec       q    Type
REMARK                         _______ _______ _______ _____ _____    ______ ____
ROOT
ATOM      1  C   UNL     1      44.954   5.801  11.404  0.00  0.00    +0.000 A 
ATOM      2  C   UNL     1      46.214   5.318  11.743  0.00  0.00    +0.000 A 
ATOM      3  C   UNL     1      47.069   6.141  12.470  0.00  0.00    +0.000 A 
ATOM      4  C   UNL     1      46.656   7.426  12.831  0.00  0.00    +0.000 A 
ATOM      5  C   UNL     1      45.370   7.809  12.460  0.00  0.00    +0.000 A 
ATOM      6  N   UNL     1      44.512   7.036  11.753  0.00  0.00    +0.000 NA
ENDROOT
BRANCH   1   8
ATOM      7  O   UNL     1      42.832   5.214  10.562  0.00  0.00    +0.000 OA
ATOM      8  C   UNL     1      44.029   4.923  10.624  0.00  0.00    +0.000 C 
BRANCH   8   9
ATOM      9  C   UNL     1      44.587   3.677   9.958  0.00  0.00    +0.000 C 
BRANCH   9  10
ATOM     10  C   UNL     1      44.847   3.953   8.473  0.00  0.00    +0.000 C 
BRANCH  10  11
ATOM     11  C   UNL     1      45.845   3.016   7.839  0.00  0.00    +0.000 A 
ATOM     12  C   UNL     1      46.696   3.469   6.827  0.00  0.00    +0.000 A 
ATOM     13  C   UNL     1      47.632   2.592   6.298  0.00  0.00    +0.000 A 
ATOM     14  N   UNL     1      47.776   1.312   6.702  0.00  0.00    +0.000 NA
ATOM     15  C   UNL     1      46.948   0.895   7.683  0.00  0.00    +0.000 A 
ATOM     16  C   UNL     1      45.983   1.697   8.277  0.00  0.00    +0.000 A 
ENDBRANCH  10  11
ENDBRANCH   9  10
ENDBRANCH   8   9
ENDBRANCH   1   8
BRANCH   4  17
ATOM     17  C   UNL     1      47.554   8.338  13.617  0.00  0.00    +0.000 C 
BRANCH  17  18
ATOM     18  N   UNL     1      47.826   7.811  14.930  0.00  0.00    +0.000 N 
ATOM     19  C   UNL     1      48.993   7.133  15.193  0.00  0.00    +0.000 C 
ATOM     20  O   UNL     1      49.865   6.992  14.340  0.00  0.00    +0.000 OA
ATOM     21  H   UNL     1      47.039   7.692  15.561  0.00  0.00    +0.000 HD
BRANCH  19  22
ATOM     22  C   UNL     1      49.172   6.641  16.565  0.00  0.00    +0.000 A 
ATOM     23  C   UNL     1      49.812   7.438  17.504  0.00  0.00    +0.000 A 
ATOM     24  S   UNL     1      49.903   6.729  19.054  0.00  0.00    +0.000 S 
ATOM     25  C   UNL     1      49.138   5.311  18.510  0.00  0.00    +0.000 A 
ATOM     26  N   UNL     1      48.933   4.260  19.350  0.00  0.00    +0.000 NA
ATOM     27  C   UNL     1      48.374   3.236  18.797  0.00  0.00    +0.000 A 
ATOM     28  N   UNL     1      47.989   3.172  17.483  0.00  0.00    +0.000 N 
ATOM     29  C   UNL     1      48.132   4.224  16.610  0.00  0.00    +0.000 A 
ATOM     30  O   UNL     1      47.712   4.163  15.459  0.00  0.00    +0.000 OA
ATOM     31  C   UNL     1      48.789   5.389  17.174  0.00  0.00    +0.000 A 
ATOM     32  H   UNL     1      47.538   2.346  17.117  0.00  0.00    +0.000 HD
ENDBRANCH  19  22
ENDBRANCH  17  18
ENDBRANCH   4  17
TORSDOF 7
ENDMDL
MODEL 4
REMARK VINA RESULT:    -7.697      4.458      5.414
REMARK INTER + INTRA:         -11.650
REMARK INTER:                 -10.461
REMARK INTRA:                  -1.188
REMARK UNBOUND:                -0.803
REMARK  Name = 
REMARK  7 active torsions:
REMARK  status: ('A' for Active; 'I' for Inactive)
REMARK    1  A    between atoms: C_2  and  C_3
REMARK    2  A    between atoms: C_2  and  C_11
REMARK    3  A    between atoms: C_3  and  C_4
REMARK    4  A    between atoms: C_4  and  C_5
REMARK    5  A    between atoms: C_14  and  C_15
REMARK    6  A    between atoms: C_15  and  N_16
REMARK    7  A    between atoms: C_17  and  C_19
REMARK                            x       y       z     vdW  Elec       q    Type
REMARK                         _______ _______ _______ _____ _____    ______ ____
ROOT
ATOM      1  C   UNL     1      44.484   5.008  11.528  0.00  0.00    +0.000 A 
ATOM      2  C   UNL     1      45.620   5.039  12.331  0.00  0.00    +0.000 A 
ATOM      3  C   UNL     1      46.107   6.275  12.749  0.00  0.00    +0.000 A 
ATOM      4  C   UNL     1      45.459   7.446  12.352  0.00  0.00    +0.000 A 
ATOM      5  C   UNL     1      44.319   7.308  11.564  0.00  0.00    +0.000 A 
ATOM      6  N   UNL     1      43.819   6.124  11.138  0.00  0.00    +0.000 NA
ENDROOT
BRANCH   1   8
ATOM      7  O   UNL     1      42.825   3.336  11.427  0.00  0.00    +0.000 OA
ATOM      8  C   UNL     1      43.955   3.685  11.076  0.00  0.00    +0.000 C 
BRANCH   8   9
ATOM      9  C   UNL     1      44.841   2.793  10.224  0.00  0.00    +0.000 C 
BRANCH   9  10
ATOM     10  C   UNL     1      44.837   3.288   8.774  0.00  0.00    +0.000 C 
BRANCH  10  11
ATOM     11  C   UNL     1      45.936   2.703   7.921  0.00  0.00    +0.000 A 
ATOM     12  C   UNL     1      46.313   1.366   8.072  0.00  0.00    +0.000 A 
ATOM     13  C   UNL     1      47.295   0.849   7.240  0.00  0.00    +0.000 A 
ATOM     14  N   UNL     1      47.919   1.564   6.280  0.00  0.00    +0.000 NA
ATOM     15  C   UNL     1      47.538   2.852   6.146  0.00  0.00    +0.000 A 
ATOM     16  C   UNL     1      46.564   3.458   6.928  0.00  0.00    +0.000 A 
ENDBRANCH  10  11
ENDBRANCH   9  10
ENDBRANCH   8   9
ENDBRANCH   1   8
BRANCH   4  17
ATOM     17  C   UNL     1      45.957   8.795  12.787  0.00  0.00    +0.000 C 
BRANCH  17  18
ATOM     18  N   UNL     1      47.203   9.132  12.147  0.00  0.00    +0.000 N 
ATOM     19  C   UNL     1      48.229   9.710  12.855  0.00  0.00    +0.000 C 
ATOM     20  O   UNL     1      48.146   9.917  14.062  0.00  0.00    +0.000 OA
ATOM     21  H   UNL     1      47.205   9.206  11.134  0.00  0.00    +0.000 HD
BRANCH  19  22
ATOM     22  C   UNL     1      49.457  10.009  12.107  0.00  0.00    +0.000 A 
ATOM     23  C   UNL     1      49.833  11.329  11.900  0.00  0.00    +0.000 A 
ATOM     24  S   UNL     1      51.300  11.497  11.045  0.00  0.00    +0.000 S 
ATOM     25  C   UNL     1      51.457   9.812  10.876  0.00  0.00    +0.000 A 
ATOM     26  N   UNL     1      52.503   9.272  10.194  0.00  0.00    +0.000 NA
ATOM     27  C   UNL     1      52.480   7.983  10.113  0.00  0.00    +0.000 A 
ATOM     28  N   UNL     1      51.510   7.185  10.663  0.00  0.00    +0.000 N 
ATOM     29  C   UNL     1      50.460   7.682  11.398  0.00  0.00    +0.000 A 
ATOM     30  O   UNL     1      49.649   6.938  11.939  0.00  0.00    +0.000 OA
ATOM     31  C   UNL     1      50.422   9.130  11.490  0.00  0.00    +0.000 A 
ATOM     32  H   UNL     1      51.561   6.180  10.579  0.00  0.00    +0.000 HD
ENDBRANCH  19  22
ENDBRANCH  17  18
ENDBRANCH   4  17
TORSDOF 7
ENDMDL
MODEL 5
REMARK VINA RESULT:    -7.441      3.514      8.469
REMARK INTER + INTRA:         -11.289
REMARK INTER:                  -9.908
REMARK INTRA:                  -1.380
REMARK UNBOUND:                -0.803
REMARK  Name = 
REMARK  7 active torsions:
REMARK  status: ('A' for Active; 'I' for Inactive)
REMARK    1  A    between atoms: C_2  and  C_3
REMARK    2  A    between atoms: C_2  and  C_11
REMARK    3  A    between atoms: C_3  and  C_4
REMARK    4  A    between atoms: C_4  and  C_5
REMARK    5  A    between atoms: C_14  and  C_15
REMARK    6  A    between atoms: C_15  and  N_16
REMARK    7  A    between atoms: C_17  and  C_19
REMARK                            x       y       z     vdW  Elec       q    Type
REMARK                         _______ _______ _______ _____ _____    ______ ____
ROOT
ATOM      1  C   UNL     1      49.589   7.070  16.131  0.00  0.00    +0.000 A 
ATOM      2  C   UNL     1      48.577   6.300  15.566  0.00  0.00    +0.000 A 
ATOM      3  C   UNL     1      48.185   6.569  14.258  0.00  0.00    +0.000 A 
ATOM      4  C   UNL     1      48.801   7.602  13.548  0.00  0.00    +0.000 A 
ATOM      5  C   UNL     1      49.817   8.302  14.194  0.00  0.00    +0.000 A 
ATOM      6  N   UNL     1      50.222   8.068  15.466  0.00  0.00    +0.000 NA
ENDROOT
BRANCH   1   8
ATOM      7  O   UNL     1      51.191   6.973  17.857  0.00  0.00    +0.000 OA
ATOM      8  C   UNL     1      50.015   6.786  17.535  0.00  0.00    +0.000 C 
BRANCH   8   9
ATOM      9  C   UNL     1      48.992   6.241  18.517  0.00  0.00    +0.000 C 
BRANCH   9  10
ATOM     10  C   UNL     1      49.481   4.907  19.091  0.00  0.00    +0.000 C 
BRANCH  10  11
ATOM     11  C   UNL     1      49.467   3.768  18.101  0.00  0.00    +0.000 A 
ATOM     12  C   UNL     1      48.293   3.440  17.417  0.00  0.00    +0.000 A 
ATOM     13  C   UNL     1      48.327   2.417  16.481  0.00  0.00    +0.000 A 
ATOM     14  N   UNL     1      49.437   1.708  16.183  0.00  0.00    +0.000 NA
ATOM     15  C   UNL     1      50.561   2.043  16.850  0.00  0.00    +0.000 A 
ATOM     16  C   UNL     1      50.627   3.052  17.802  0.00  0.00    +0.000 A 
ENDBRANCH  10  11
ENDBRANCH   9  10
ENDBRANCH   8   9
ENDBRANCH   1   8
BRANCH   4  17
ATOM     17  C   UNL     1      48.405   7.917  12.135  0.00  0.00    +0.000 C 
BRANCH  17  18
ATOM     18  N   UNL     1      47.676   6.829  11.534  0.00  0.00    +0.000 N 
ATOM     19  C   UNL     1      46.305   6.862  11.440  0.00  0.00    +0.000 C 
ATOM     20  O   UNL     1      45.653   7.832  11.817  0.00  0.00    +0.000 OA
ATOM     21  H   UNL     1      48.151   5.935  11.451  0.00  0.00    +0.000 HD
BRANCH  19  22
ATOM     22  C   UNL     1      45.662   5.703  10.807  0.00  0.00    +0.000 A 
ATOM     23  C   UNL     1      45.790   5.507   9.438  0.00  0.00    +0.000 A 
ATOM     24  S   UNL     1      45.013   4.097   8.874  0.00  0.00    +0.000 S 
ATOM     25  C   UNL     1      44.434   3.727  10.430  0.00  0.00    +0.000 A 
ATOM     26  N   UNL     1      43.648   2.637  10.644  0.00  0.00    +0.000 NA
ATOM     27  C   UNL     1      43.252   2.495  11.865  0.00  0.00    +0.000 A 
ATOM     28  N   UNL     1      43.582   3.339  12.894  0.00  0.00    +0.000 N 
ATOM     29  C   UNL     1      44.409   4.424  12.735  0.00  0.00    +0.000 A 
ATOM     30  O   UNL     1      44.744   5.118  13.690  0.00  0.00    +0.000 OA
ATOM     31  C   UNL     1      44.854   4.648  11.372  0.00  0.00    +0.000 A 
ATOM     32  H   UNL     1      43.253   3.160  13.832  0.00  0.00    +0.000 HD
ENDBRANCH  19  22
ENDBRANCH  17  18
ENDBRANCH   4  17
TORSDOF 7
ENDMDL
MODEL 6
REMARK VINA RESULT:    -7.182      3.130      8.850
REMARK INTER + INTRA:         -10.923
REMARK INTER:                  -9.331
REMARK INTRA:                  -1.592
REMARK UNBOUND:                -0.803
REMARK  Name = 
REMARK  7 active torsions:
REMARK  status: ('A' for Active; 'I' for Inactive)
REMARK    1  A    between atoms: C_2  and  C_3
REMARK    2  A    between atoms: C_2  and  C_11
REMARK    3  A    between atoms: C_3  and  C_4
REMARK    4  A    between atoms: C_4  and  C_5
REMARK    5  A    between atoms: C_14  and  C_15
REMARK    6  A    between atoms: C_15  and  N_16
REMARK    7  A    between atoms: C_17  and  C_19
REMARK                            x       y       z     vdW  Elec       q    Type
REMARK                         _______ _______ _______ _____ _____    ______ ____
ROOT
ATOM      1  C   UNL     1      49.505   8.148  15.735  0.00  0.00    +0.000 A 
ATOM      2  C   UNL     1      50.093   7.311  14.792  0.00  0.00    +0.000 A 
ATOM      3  C   UNL     1      49.517   7.224  13.527  0.00  0.00    +0.000 A 
ATOM      4  C   UNL     1      48.367   7.961  13.236  0.00  0.00    +0.000 A 
ATOM      5  C   UNL     1      47.866   8.784  14.242  0.00  0.00    +0.000 A 
ATOM      6  N   UNL     1      48.400   8.892  15.483  0.00  0.00    +0.000 NA
ENDROOT
BRANCH   1   8
ATOM      7  O   UNL     1      49.975   9.285  17.746  0.00  0.00    +0.000 OA
ATOM      8  C   UNL     1      50.119   8.247  17.095  0.00  0.00    +0.000 C 
BRANCH   8   9
ATOM      9  C   UNL     1      50.932   7.078  17.621  0.00  0.00    +0.000 C 
BRANCH   9  10
ATOM     10  C   UNL     1      50.044   6.169  18.477  0.00  0.00    +0.000 C 
BRANCH  10  11
ATOM     11  C   UNL     1      49.568   4.925  17.766  0.00  0.00    +0.000 A 
ATOM     12  C   UNL     1      50.328   3.753  17.809  0.00  0.00    +0.000 A 
ATOM     13  C   UNL     1      49.838   2.616  17.182  0.00  0.00    +0.000 A 
ATOM     14  N   UNL     1      48.660   2.568  16.526  0.00  0.00    +0.000 NA
ATOM     15  C   UNL     1      47.939   3.709  16.500  0.00  0.00    +0.000 A 
ATOM     16  C   UNL     1      48.342   4.894  17.099  0.00  0.00    +0.000 A 
ENDBRANCH  10  11
ENDBRANCH   9  10
ENDBRANCH   8   9
ENDBRANCH   1   8
BRANCH   4  17
ATOM     17  C   UNL     1      47.722   7.892  11.882  0.00  0.00    +0.000 C 
BRANCH  17  18
ATOM     18  N   UNL     1      47.004   6.655  11.700  0.00  0.00    +0.000 N 
ATOM     19  C   UNL     1      45.638   6.604  11.835  0.00  0.00    +0.000 C 
ATOM     20  O   UNL     1      44.971   7.608  12.067  0.00  0.00    +0.000 OA
ATOM     21  H   UNL     1      47.535   5.792  11.761  0.00  0.00    +0.000 HD
BRANCH  19  22
ATOM     22  C   UNL     1      45.006   5.294  11.625  0.00  0.00    +0.000 A 
ATOM     23  C   UNL     1      44.315   4.688  12.665  0.00  0.00    +0.000 A 
ATOM     24  S   UNL     1      43.615   3.191  12.240  0.00  0.00    +0.000 S 
ATOM     25  C   UNL     1      44.255   3.277  10.666  0.00  0.00    +0.000 A 
ATOM     26  N   UNL     1      44.054   2.270   9.774  0.00  0.00    +0.000 NA
ATOM     27  C   UNL     1      44.624   2.449   8.629  0.00  0.00    +0.000 A 
ATOM     28  N   UNL     1      45.367   3.551   8.292  0.00  0.00    +0.000 N 
ATOM     29  C   UNL     1      45.558   4.612   9.144  0.00  0.00    +0.000 A 
ATOM     30  O   UNL     1      46.166   5.616   8.788  0.00  0.00    +0.000 OA
ATOM     31  C   UNL     1      44.966   4.445  10.458  0.00  0.00    +0.000 A 
ATOM     32  H   UNL     1      45.771   3.638   7.371  0.00  0.00    +0.000 HD
ENDBRANCH  19  22
ENDBRANCH  17  18
ENDBRANCH   4  17
TORSDOF 7
ENDMDL
MODEL 7
REMARK VINA RESULT:    -6.949      4.423      9.430
REMARK INTER + INTRA:         -10.596
REMARK INTER:                  -9.711
REMARK INTRA:                  -0.884
REMARK UNBOUND:                -0.803
REMARK  Name = 
REMARK  7 active torsions:
REMARK  status: ('A' for Active; 'I' for Inactive)
REMARK    1  A    between atoms: C_2  and  C_3
REMARK    2  A    between atoms: C_2  and  C_11
REMARK    3  A    between atoms: C_3  and  C_4
REMARK    4  A    between atoms: C_4  and  C_5
REMARK    5  A    between atoms: C_14  and  C_15
REMARK    6  A    between atoms: C_15  and  N_16
REMARK    7  A    between atoms: C_17  and  C_19
REMARK                            x       y       z     vdW  Elec       q    Type
REMARK                         _______ _______ _______ _____ _____    ______ ____
ROOT
ATOM      1  C   UNL     1      51.378   4.031  17.582  0.00  0.00    +0.000 A 
ATOM      2  C   UNL     1      50.605   5.175  17.412  0.00  0.00    +0.000 A 
ATOM      3  C   UNL     1      49.247   5.028  17.144  0.00  0.00    +0.000 A 
ATOM      4  C   UNL     1      48.694   3.749  17.041  0.00  0.00    +0.000 A 
ATOM      5  C   UNL     1      49.548   2.668  17.248  0.00  0.00    +0.000 A 
ATOM      6  N   UNL     1      50.873   2.774  17.509  0.00  0.00    +0.000 NA
ENDROOT
BRANCH   1   8
ATOM      7  O   UNL     1      53.414   5.219  17.534  0.00  0.00    +0.000 OA
ATOM      8  C   UNL     1      52.837   4.181  17.871  0.00  0.00    +0.000 C 
BRANCH   8   9
ATOM      9  C   UNL     1      53.574   3.036  18.542  0.00  0.00    +0.000 C 
BRANCH   9  10
ATOM     10  C   UNL     1      54.701   2.538  17.631  0.00  0.00    +0.000 C 
BRANCH  10  11
ATOM     11  C   UNL     1      54.799   1.035  17.537  0.00  0.00    +0.000 A 
ATOM     12  C   UNL     1      54.716   0.247  18.688  0.00  0.00    +0.000 A 
ATOM     13  C   UNL     1      54.764  -1.133  18.559  0.00  0.00    +0.000 A 
ATOM     14  N   UNL     1      54.887  -1.774  17.377  0.00  0.00    +0.000 NA
ATOM     15  C   UNL     1      54.961  -0.996  16.276  0.00  0.00    +0.000 A 
ATOM     16  C   UNL     1      54.919   0.392  16.303  0.00  0.00    +0.000 A 
ENDBRANCH  10  11
ENDBRANCH   9  10
ENDBRANCH   8   9
ENDBRANCH   1   8
BRANCH   4  17
ATOM     17  C   UNL     1      47.233   3.555  16.756  0.00  0.00    +0.000 C 
BRANCH  17  18
ATOM     18  N   UNL     1      46.755   4.500  15.778  0.00  0.00    +0.000 N 
ATOM     19  C   UNL     1      46.801   4.212  14.435  0.00  0.00    +0.000 C 
ATOM     20  O   UNL     1      47.203   3.130  14.017  0.00  0.00    +0.000 OA
ATOM     21  H   UNL     1      46.660   5.468  16.068  0.00  0.00    +0.000 HD
BRANCH  19  22
ATOM     22  C   UNL     1      46.284   5.243  13.525  0.00  0.00    +0.000 A 
ATOM     23  C   UNL     1      47.065   6.352  13.226  0.00  0.00    +0.000 A 
ATOM     24  S   UNL     1      46.329   7.430  12.127  0.00  0.00    +0.000 S 
ATOM     25  C   UNL     1      44.920   6.480  12.054  0.00  0.00    +0.000 A 
ATOM     26  N   UNL     1      43.854   6.865  11.301  0.00  0.00    +0.000 NA
ATOM     27  C   UNL     1      42.840   6.069  11.364  0.00  0.00    +0.000 A 
ATOM     28  N   UNL     1      42.799   4.915  12.103  0.00  0.00    +0.000 N 
ATOM     29  C   UNL     1      43.866   4.462  12.841  0.00  0.00    +0.000 A 
ATOM     30  O   UNL     1      43.825   3.388  13.433  0.00  0.00    +0.000 OA
ATOM     31  C   UNL     1      45.022   5.340  12.831  0.00  0.00    +0.000 A 
ATOM     32  H   UNL     1      41.979   4.325  12.093  0.00  0.00    +0.000 HD
ENDBRANCH  19  22
ENDBRANCH  17  18
ENDBRANCH   4  17
TORSDOF 7
ENDMDL
MODEL 8
REMARK VINA RESULT:    -6.894      3.883     10.006
REMARK INTER + INTRA:         -10.518
REMARK INTER:                  -9.280
REMARK INTRA:                  -1.239
REMARK UNBOUND:                -0.803
REMARK  Name = 
REMARK  7 active torsions:
REMARK  status: ('A' for Active; 'I' for Inactive)
REMARK    1  A    between atoms: C_2  and  C_3
REMARK    2  A    between atoms: C_2  and  C_11
REMARK    3  A    between atoms: C_3  and  C_4
REMARK    4  A    between atoms: C_4  and  C_5
REMARK    5  A    between atoms: C_14  and  C_15
REMARK    6  A    between atoms: C_15  and  N_16
REMARK    7  A    between atoms: C_17  and  C_19
REMARK                            x       y       z     vdW  Elec       q    Type
REMARK                         _______ _______ _______ _____ _____    ______ ____
ROOT
ATOM      1  C   UNL     1      51.227   4.581  17.817  0.00  0.00    +0.000 A 
ATOM      2  C   UNL     1      50.320   5.586  17.495  0.00  0.00    +0.000 A 
ATOM      3  C   UNL     1      49.030   5.224  17.120  0.00  0.00    +0.000 A 
ATOM      4  C   UNL     1      48.676   3.874  17.064  0.00  0.00    +0.000 A 
ATOM      5  C   UNL     1      49.649   2.945  17.424  0.00  0.00    +0.000 A 
ATOM      6  N   UNL     1      50.914   3.261  17.792  0.00  0.00    +0.000 NA
ENDROOT
BRANCH   1   8
ATOM      7  O   UNL     1      53.540   4.803  17.422  0.00  0.00    +0.000 OA
ATOM      8  C   UNL     1      52.615   4.962  18.222  0.00  0.00    +0.000 C 
BRANCH   8   9
ATOM      9  C   UNL     1      52.849   5.503  19.622  0.00  0.00    +0.000 C 
BRANCH   9  10
ATOM     10  C   UNL     1      51.978   4.741  20.626  0.00  0.00    +0.000 C 
BRANCH  10  11
ATOM     11  C   UNL     1      50.696   5.448  20.991  0.00  0.00    +0.000 A 
ATOM     12  C   UNL     1      50.670   6.839  21.131  0.00  0.00    +0.000 A 
ATOM     13  C   UNL     1      49.464   7.459  21.422  0.00  0.00    +0.000 A 
ATOM     14  N   UNL     1      48.298   6.799  21.581  0.00  0.00    +0.000 NA
ATOM     15  C   UNL     1      48.342   5.457  21.437  0.00  0.00    +0.000 A 
ATOM     16  C   UNL     1      49.498   4.747  21.144  0.00  0.00    +0.000 A 
ENDBRANCH  10  11
ENDBRANCH   9  10
ENDBRANCH   8   9
ENDBRANCH   1   8
BRANCH   4  17
ATOM     17  C   UNL     1      47.292   3.449  16.665  0.00  0.00    +0.000 C 
BRANCH  17  18
ATOM     18  N   UNL     1      46.697   4.382  15.742  0.00  0.00    +0.000 N 
ATOM     19  C   UNL     1      46.755   4.170  14.386  0.00  0.00    +0.000 C 
ATOM     20  O   UNL     1      47.269   3.163  13.909  0.00  0.00    +0.000 OA
ATOM     21  H   UNL     1      46.499   5.318  16.084  0.00  0.00    +0.000 HD
BRANCH  19  22
ATOM     22  C   UNL     1      46.113   5.181  13.536  0.00  0.00    +0.000 A 
ATOM     23  C   UNL     1      46.702   6.430  13.386  0.00  0.00    +0.000 A 
ATOM     24  S   UNL     1      45.845   7.468  12.338  0.00  0.00    +0.000 S 
ATOM     25  C   UNL     1      44.630   6.305  12.089  0.00  0.00    +0.000 A 
ATOM     26  N   UNL     1      43.553   6.575  11.303  0.00  0.00    +0.000 NA
ATOM     27  C   UNL     1      42.691   5.616  11.229  0.00  0.00    +0.000 A 
ATOM     28  N   UNL     1      42.816   4.406  11.861  0.00  0.00    +0.000 N 
ATOM     29  C   UNL     1      43.907   4.071  12.627  0.00  0.00    +0.000 A 
ATOM     30  O   UNL     1      44.025   2.954  13.120  0.00  0.00    +0.000 OA
ATOM     31  C   UNL     1      44.890   5.129  12.770  0.00  0.00    +0.000 A 
ATOM     32  H   UNL     1      42.114   3.689  11.746  0.00  0.00    +0.000 HD
ENDBRANCH  19  22
ENDBRANCH  17  18
ENDBRANCH   4  17
TORSDOF 7
ENDMDL
MODEL 9
REMARK VINA RESULT:    -6.657      3.897      9.211
REMARK INTER + INTRA:         -10.184
REMARK INTER:                  -8.746
REMARK INTRA:                  -1.438
REMARK UNBOUND:                -0.803
REMARK  Name = 
REMARK  7 active torsions:
REMARK  status: ('A' for Active; 'I' for Inactive)
REMARK    1  A    between atoms: C_2  and  C_3
REMARK    2  A    between atoms: C_2  and  C_11
REMARK    3  A    between atoms: C_3  and  C_4
REMARK    4  A    between atoms: C_4  and  C_5
REMARK    5  A    between atoms: C_14  and  C_15
REMARK    6  A    between atoms: C_15  and  N_16
REMARK    7  A    between atoms: C_17  and  C_19
REMARK                            x       y       z     vdW  Elec       q    Type
REMARK                         _______ _______ _______ _____ _____    ______ ____
ROOT
ATOM      1  C   UNL     1      50.011   5.232  19.270  0.00  0.00    +0.000 A 
ATOM      2  C   UNL     1      50.461   4.256  18.387  0.00  0.00    +0.000 A 
ATOM      3  C   UNL     1      49.539   3.648  17.538  0.00  0.00    +0.000 A 
ATOM      4  C   UNL     1      48.194   4.018  17.597  0.00  0.00    +0.000 A 
ATOM      5  C   UNL     1      47.847   5.018  18.502  0.00  0.00    +0.000 A 
ATOM      6  N   UNL     1      48.716   5.629  19.342  0.00  0.00    +0.000 NA
ENDROOT
BRANCH   1   8
ATOM      7  O   UNL     1      51.633   5.196  20.980  0.00  0.00    +0.000 OA
ATOM      8  C   UNL     1      50.995   5.889  20.184  0.00  0.00    +0.000 C 
BRANCH   8   9
ATOM      9  C   UNL     1      51.154   7.398  20.128  0.00  0.00    +0.000 C 
BRANCH   9  10
ATOM     10  C   UNL     1      51.629   7.819  18.733  0.00  0.00    +0.000 C 
BRANCH  10  11
ATOM     11  C   UNL     1      50.510   8.091  17.758  0.00  0.00    +0.000 A 
ATOM     12  C   UNL     1      49.493   8.993  18.081  0.00  0.00    +0.000 A 
ATOM     13  C   UNL     1      48.505   9.253  17.142  0.00  0.00    +0.000 A 
ATOM     14  N   UNL     1      48.462   8.682  15.920  0.00  0.00    +0.000 NA
ATOM     15  C   UNL     1      49.455   7.818  15.624  0.00  0.00    +0.000 A 
ATOM     16  C   UNL     1      50.488   7.496  16.494  0.00  0.00    +0.000 A 
ENDBRANCH  10  11
ENDBRANCH   9  10
ENDBRANCH   8   9
ENDBRANCH   1   8
BRANCH   4  17
ATOM     17  C   UNL     1      47.174   3.385  16.695  0.00  0.00    +0.000 C 
BRANCH  17  18
ATOM     18  N   UNL     1      46.642   4.333  15.749  0.00  0.00    +0.000 N 
ATOM     19  C   UNL     1      46.767   4.129  14.396  0.00  0.00    +0.000 C 
ATOM     20  O   UNL     1      47.290   3.117  13.939  0.00  0.00    +0.000 OA
ATOM     21  H   UNL     1      46.441   5.270  16.087  0.00  0.00    +0.000 HD
BRANCH  19  22
ATOM     22  C   UNL     1      46.186   5.156  13.521  0.00  0.00    +0.000 A 
ATOM     23  C   UNL     1      46.892   6.324  13.266  0.00  0.00    +0.000 A 
ATOM     24  S   UNL     1      46.089   7.390  12.203  0.00  0.00    +0.000 S 
ATOM     25  C   UNL     1      44.746   6.352  12.089  0.00  0.00    +0.000 A 
ATOM     26  N   UNL     1      43.659   6.693  11.345  0.00  0.00    +0.000 NA
ATOM     27  C   UNL     1      42.700   5.829  11.374  0.00  0.00    +0.000 A 
ATOM     28  N   UNL     1      42.734   4.649  12.070  0.00  0.00    +0.000 N 
ATOM     29  C   UNL     1      43.827   4.241  12.797  0.00  0.00    +0.000 A 
ATOM     30  O   UNL     1      43.856   3.147  13.349  0.00  0.00    +0.000 OA
ATOM     31  C   UNL     1      44.921   5.194  12.825  0.00  0.00    +0.000 A 
ATOM     32  H   UNL     1      41.955   4.007  12.035  0.00  0.00    +0.000 HD
ENDBRANCH  19  22
ENDBRANCH  17  18
ENDBRANCH   4  17
TORSDOF 7
ENDMDL
