MODEL 1
REMARK VINA RESULT:    -7.847      0.000      0.000
REMARK INTER + INTRA:         -11.008
REMARK INTER:                 -10.141
REMARK INTRA:                  -0.867
REMARK UNBOUND:                -0.867
REMARK  Name = 
REMARK  6 active torsions:
REMARK  status: ('A' for Active; 'I' for Inactive)
REMARK    1  A    between atoms: C_1  and  C_2
REMARK    2  A    between atoms: C_6  and  C_7
REMARK    3  A    between atoms: C_7  and  C_8
REMARK    4  A    between atoms: C_11  and  C_12
REMARK    5  A    between atoms: C_12  and  N_13
REMARK    6  A    between atoms: C_14  and  C_16
REMARK                            x       y       z     vdW  Elec       q    Type
REMARK                         _______ _______ _______ _____ _____    ______ ____
ROOT
ATOM      1  C   UNL     1      47.347   8.245  13.618  0.00  0.00    +0.000 C 
ENDROOT
BRANCH   1   5
ATOM      2  C   UNL     1      44.806   5.917  11.002  0.00  0.00    +0.000 A 
ATOM      3  C   UNL     1      46.056   5.425  11.403  0.00  0.00    +0.000 A 
ATOM      4  C   UNL     1      46.885   6.183  12.233  0.00  0.00    +0.000 A 
ATOM      5  C   UNL     1      46.483   7.449  12.676  0.00  0.00    +0.000 A 
ATOM      6  C   UNL     1      45.266   7.970  12.216  0.00  0.00    +0.000 A 
ATOM      7  C   UNL     1      44.428   7.206  11.398  0.00  0.00    +0.000 A 
BRANCH   2   8
ATOM      8  C   UNL     1      43.857   5.054  10.199  0.00  0.00    +0.000 C 
BRANCH   8  14
ATOM      9  C   UNL     1      46.781   3.692   6.510  0.00  0.00    +0.000 C 
ATOM     10  C   UNL     1      45.931   3.316   7.681  0.00  0.00    +0.000 A 
ATOM     11  C   UNL     1      45.794   1.990   8.075  0.00  0.00    +0.000 A 
ATOM     12  N   UNL     1      45.034   1.611   9.125  0.00  0.00    +0.000 NA
ATOM     13  C   UNL     1      44.405   2.620   9.773  0.00  0.00    +0.000 A 
ATOM     14  C   UNL     1      44.528   3.957   9.404  0.00  0.00    +0.000 A 
ATOM     15  N   UNL     1      45.303   4.320   8.347  0.00  0.00    +0.000 NA
ENDBRANCH   8  14
ENDBRANCH   2   8
ENDBRANCH   1   5
BRANCH   1  16
ATOM     16  N   UNL     1      47.683   7.485  14.791  0.00  0.00    +0.000 N 
ATOM     17  C   UNL     1      48.917   6.908  14.929  0.00  0.00    +0.000 C 
ATOM     18  O   UNL     1      49.807   7.061  14.097  0.00  0.00    +0.000 OA
ATOM     19  H   UNL     1      46.909   7.157  15.362  0.00  0.00    +0.000 HD
BRANCH  17  20
ATOM     20  C   UNL     1      49.149   6.154  16.168  0.00  0.00    +0.000 A 
ATOM     21  C   UNL     1      50.174   6.535  17.026  0.00  0.00    +0.000 A 
ATOM     22  S   UNL     1      50.250   5.602  18.451  0.00  0.00    +0.000 S 
ATOM     23  C   UNL     1      48.953   4.623  17.947  0.00  0.00    +0.000 A 
ATOM     24  N   UNL     1      48.507   3.598  18.721  0.00  0.00    +0.000 NA
ATOM     25  C   UNL     1      47.543   2.915  18.199  0.00  0.00    +0.000 A 
ATOM     26  N   UNL     1      46.982   3.166  16.974  0.00  0.00    +0.000 N 
ATOM     27  C   UNL     1      47.378   4.210  16.170  0.00  0.00    +0.000 A 
ATOM     28  O   UNL     1      46.830   4.430  15.097  0.00  0.00    +0.000 OA
ATOM     29  C   UNL     1      48.464   5.006  16.711  0.00  0.00    +0.000 A 
ATOM     30  H   UNL     1      46.228   2.595  16.621  0.00  0.00    +0.000 HD
ENDBRANCH  17  20
ENDBRANCH   1  16
TORSDOF 5
ENDMDL
MODEL 2
REMARK VINA RESULT:    -7.442      2.818      4.788
REMARK INTER + INTRA:         -10.484
REMARK INTER:                  -9.670
REMARK INTRA:                  -0.814
REMARK UNBOUND:                -0.867
REMARK  Name = 
REMARK  6 active torsions:
REMARK  status: ('A' for Active; 'I' for Inactive)
REMARK    1  A    between atoms: C_1  and  C_2
REMARK    2  A    between atoms: C_6  and  C_7
REMARK    3  A    between atoms: C_7  and  C_8
REMARK    4  A    between atoms: C_11  and  C_12
REMARK    5  A    between atoms: C_12  and  N_13
REMARK    6  A    between atoms: C_14  and  C_16
REMARK                            x       y       z     vdW  Elec       q    Type
REMARK                         _______ _______ _______ _____ _____    ______ ____
ROOT
ATOM      1  C   UNL     1      47.039   5.656  14.034  0.00  0.00    +0.000 C 
ENDROOT
BRANCH   1   5
ATOM      2  C   UNL     1      45.005   4.505  10.394  0.00  0.00    +0.000 A 
ATOM      3  C   UNL     1      45.710   5.715  10.463  0.00  0.00    +0.000 A 
ATOM      4  C   UNL     1      46.352   6.097  11.643  0.00  0.00    +0.000 A 
ATOM      5  C   UNL     1      46.300   5.278  12.779  0.00  0.00    +0.000 A 
ATOM      6  C   UNL     1      45.535   4.105  12.730  0.00  0.00    +0.000 A 
ATOM      7  C   UNL     1      44.904   3.714  11.546  0.00  0.00    +0.000 A 
BRANCH   2   8
ATOM      8  C   UNL     1      44.406   4.033   9.087  0.00  0.00    +0.000 C 
BRANCH   8  14
ATOM      9  C   UNL     1      47.299   3.087   5.246  0.00  0.00    +0.000 C 
ATOM     10  C   UNL     1      46.661   2.627   6.518  0.00  0.00    +0.000 A 
ATOM     11  C   UNL     1      46.893   1.352   7.020  0.00  0.00    +0.000 A 
ATOM     12  N   UNL     1      46.333   0.899   8.162  0.00  0.00    +0.000 NA
ATOM     13  C   UNL     1      45.519   1.779   8.792  0.00  0.00    +0.000 A 
ATOM     14  C   UNL     1      45.272   3.064   8.315  0.00  0.00    +0.000 A 
ATOM     15  N   UNL     1      45.850   3.504   7.165  0.00  0.00    +0.000 NA
ENDBRANCH   8  14
ENDBRANCH   2   8
ENDBRANCH   1   5
BRANCH   1  16
ATOM     16  N   UNL     1      47.400   7.048  14.031  0.00  0.00    +0.000 N 
ATOM     17  C   UNL     1      48.624   7.461  14.486  0.00  0.00    +0.000 C 
ATOM     18  O   UNL     1      49.487   6.668  14.855  0.00  0.00    +0.000 OA
ATOM     19  H   UNL     1      46.641   7.719  13.957  0.00  0.00    +0.000 HD
BRANCH  17  20
ATOM     20  C   UNL     1      48.885   8.905  14.436  0.00  0.00    +0.000 A 
ATOM     21  C   UNL     1      48.971   9.633  15.617  0.00  0.00    +0.000 A 
ATOM     22  S   UNL     1      49.356  11.276  15.377  0.00  0.00    +0.000 S 
ATOM     23  C   UNL     1      49.366  11.086  13.687  0.00  0.00    +0.000 A 
ATOM     24  N   UNL     1      49.623  12.138  12.865  0.00  0.00    +0.000 NA
ATOM     25  C   UNL     1      49.562  11.859  11.605  0.00  0.00    +0.000 A 
ATOM     26  N   UNL     1      49.268  10.623  11.093  0.00  0.00    +0.000 N 
ATOM     27  C   UNL     1      49.032   9.522  11.884  0.00  0.00    +0.000 A 
ATOM     28  O   UNL     1      48.810   8.422  11.393  0.00  0.00    +0.000 OA
ATOM     29  C   UNL     1      49.086   9.785  13.310  0.00  0.00    +0.000 A 
ATOM     30  H   UNL     1      49.236  10.468  10.096  0.00  0.00    +0.000 HD
ENDBRANCH  17  20
ENDBRANCH   1  16
TORSDOF 5
ENDMDL
MODEL 3
REMARK VINA RESULT:    -7.228      4.162      9.132
REMARK INTER + INTRA:         -10.208
REMARK INTER:                  -9.601
REMARK INTRA:                  -0.607
REMARK UNBOUND:                -0.867
REMARK  Name = 
REMARK  6 active torsions:
REMARK  status: ('A' for Active; 'I' for Inactive)
REMARK    1  A    between atoms: C_1  and  C_2
REMARK    2  A    between atoms: C_6  and  C_7
REMARK    3  A    between atoms: C_7  and  C_8
REMARK    4  A    between atoms: C_11  and  C_12
REMARK    5  A    between atoms: C_12  and  N_13
REMARK    6  A    between atoms: C_14  and  C_16
REMARK                            x       y       z     vdW  Elec       q    Type
REMARK                         _______ _______ _______ _____ _____    ______ ____
ROOT
ATOM      1  C   UNL     1      47.292   3.456  16.920  0.00  0.00    +0.000 C 
ENDROOT
BRANCH   1   5
ATOM      2  C   UNL     1      51.543   3.776  17.657  0.00  0.00    +0.000 A 
ATOM      3  C   UNL     1      50.960   2.530  17.389  0.00  0.00    +0.000 A 
ATOM      4  C   UNL     1      49.585   2.422  17.169  0.00  0.00    +0.000 A 
ATOM      5  C   UNL     1      48.765   3.558  17.215  0.00  0.00    +0.000 A 
ATOM      6  C   UNL     1      49.339   4.790  17.554  0.00  0.00    +0.000 A 
ATOM      7  C   UNL     1      50.717   4.902  17.760  0.00  0.00    +0.000 A 
BRANCH   2   8
ATOM      8  C   UNL     1      53.045   3.915  17.782  0.00  0.00    +0.000 C 
BRANCH   8  14
ATOM      9  C   UNL     1      55.172  -0.388  16.791  0.00  0.00    +0.000 C 
ATOM     10  C   UNL     1      54.781   0.651  17.793  0.00  0.00    +0.000 A 
ATOM     11  C   UNL     1      55.100   0.511  19.139  0.00  0.00    +0.000 A 
ATOM     12  N   UNL     1      54.762   1.425  20.073  0.00  0.00    +0.000 NA
ATOM     13  C   UNL     1      54.081   2.499  19.607  0.00  0.00    +0.000 A 
ATOM     14  C   UNL     1      53.751   2.668  18.264  0.00  0.00    +0.000 A 
ATOM     15  N   UNL     1      54.106   1.738  17.337  0.00  0.00    +0.000 NA
ENDBRANCH   8  14
ENDBRANCH   2   8
ENDBRANCH   1   5
BRANCH   1  16
ATOM     16  N   UNL     1      46.879   4.446  15.964  0.00  0.00    +0.000 N 
ATOM     17  C   UNL     1      46.947   4.202  14.618  0.00  0.00    +0.000 C 
ATOM     18  O   UNL     1      47.301   3.115  14.169  0.00  0.00    +0.000 OA
ATOM     19  H   UNL     1      46.811   5.404  16.296  0.00  0.00    +0.000 HD
BRANCH  17  20
ATOM     20  C   UNL     1      46.498   5.285  13.735  0.00  0.00    +0.000 A 
ATOM     21  C   UNL     1      47.315   6.390  13.528  0.00  0.00    +0.000 A 
ATOM     22  S   UNL     1      46.674   7.511  12.413  0.00  0.00    +0.000 S 
ATOM     23  C   UNL     1      45.260   6.588  12.213  0.00  0.00    +0.000 A 
ATOM     24  N   UNL     1      44.266   7.001  11.381  0.00  0.00    +0.000 NA
ATOM     25  C   UNL     1      43.236   6.222  11.353  0.00  0.00    +0.000 A 
ATOM     26  N   UNL     1      43.109   5.068  12.081  0.00  0.00    +0.000 N 
ATOM     27  C   UNL     1      44.099   4.594  12.911  0.00  0.00    +0.000 A 
ATOM     28  O   UNL     1      43.968   3.539  13.518  0.00  0.00    +0.000 OA
ATOM     29  C   UNL     1      45.278   5.437  12.979  0.00  0.00    +0.000 A 
ATOM     30  H   UNL     1      42.275   4.502  12.015  0.00  0.00    +0.000 HD
ENDBRANCH  17  20
ENDBRANCH   1  16
TORSDOF 5
ENDMDL
MODEL 4
REMARK VINA RESULT:    -7.221      2.094      2.625
REMARK INTER + INTRA:         -10.199
REMARK INTER:                  -9.296
REMARK INTRA:                  -0.903
REMARK UNBOUND:                -0.867
REMARK  Name = 
REMARK  6 active torsions:
REMARK  status: ('A' for Active; 'I' for Inactive)
REMARK    1  A    between atoms: C_1  and  C_2
REMARK    2  A    between atoms: C_6  and  C_7
REMARK    3  A    between atoms: C_7  and  C_8
REMARK    4  A    between atoms: C_11  and  C_12
REMARK    5  A    between atoms: C_12  and  N_13
REMARK    6  A    between atoms: C_14  and  C_16
REMARK                            x       y       z     vdW  Elec       q    Type
REMARK                         _______ _______ _______ _____ _____    ______ ____
ROOT
ATOM      1  C   UNL     1      48.085   7.435  13.928  0.00  0.00    +0.000 C 
ENDROOT
BRANCH   1   5
ATOM      2  C   UNL     1      44.982   5.727  11.444  0.00  0.00    +0.000 A 
ATOM      3  C   UNL     1      45.250   7.102  11.402  0.00  0.00    +0.000 A 
ATOM      4  C   UNL     1      46.240   7.658  12.217  0.00  0.00    +0.000 A 
ATOM      5  C   UNL     1      46.978   6.850  13.091  0.00  0.00    +0.000 A 
ATOM      6  C   UNL     1      46.660   5.489  13.184  0.00  0.00    +0.000 A 
ATOM      7  C   UNL     1      45.680   4.929  12.359  0.00  0.00    +0.000 A 
BRANCH   2   8
ATOM      8  C   UNL     1      43.993   5.103  10.483  0.00  0.00    +0.000 C 
BRANCH   8  14
ATOM      9  C   UNL     1      46.810   3.832   6.679  0.00  0.00    +0.000 C 
ATOM     10  C   UNL     1      45.930   3.426   7.818  0.00  0.00    +0.000 A 
ATOM     11  C   UNL     1      45.686   2.087   8.098  0.00  0.00    +0.000 A 
ATOM     12  N   UNL     1      44.895   1.681   9.114  0.00  0.00    +0.000 NA
ATOM     13  C   UNL     1      44.346   2.678   9.849  0.00  0.00    +0.000 A 
ATOM     14  C   UNL     1      44.577   4.028   9.595  0.00  0.00    +0.000 A 
ATOM     15  N   UNL     1      45.381   4.416   8.569  0.00  0.00    +0.000 NA
ENDBRANCH   8  14
ENDBRANCH   2   8
ENDBRANCH   1   5
BRANCH   1  16
ATOM     16  N   UNL     1      47.967   7.040  15.305  0.00  0.00    +0.000 N 
ATOM     17  C   UNL     1      49.047   6.568  16.001  0.00  0.00    +0.000 C 
ATOM     18  O   UNL     1      50.171   6.518  15.508  0.00  0.00    +0.000 OA
ATOM     19  H   UNL     1      47.029   6.854  15.650  0.00  0.00    +0.000 HD
BRANCH  17  20
ATOM     20  C   UNL     1      48.809   6.195  17.401  0.00  0.00    +0.000 A 
ATOM     21  C   UNL     1      49.070   4.897  17.823  0.00  0.00    +0.000 A 
ATOM     22  S   UNL     1      48.815   4.660  19.493  0.00  0.00    +0.000 S 
ATOM     23  C   UNL     1      48.293   6.266  19.698  0.00  0.00    +0.000 A 
ATOM     24  N   UNL     1      47.905   6.726  20.917  0.00  0.00    +0.000 NA
ATOM     25  C   UNL     1      47.498   7.952  20.920  0.00  0.00    +0.000 A 
ATOM     26  N   UNL     1      47.446   8.761  19.815  0.00  0.00    +0.000 N 
ATOM     27  C   UNL     1      47.857   8.350  18.568  0.00  0.00    +0.000 A 
ATOM     28  O   UNL     1      47.832   9.111  17.608  0.00  0.00    +0.000 OA
ATOM     29  C   UNL     1      48.320   6.976  18.511  0.00  0.00    +0.000 A 
ATOM     30  H   UNL     1      47.117   9.713  19.884  0.00  0.00    +0.000 HD
ENDBRANCH  17  20
ENDBRANCH   1  16
TORSDOF 5
ENDMDL
MODEL 5
REMARK VINA RESULT:    -7.146      3.177      4.567
REMARK INTER + INTRA:         -10.102
REMARK INTER:                  -9.434
REMARK INTRA:                  -0.668
REMARK UNBOUND:                -0.867
REMARK  Name = 
REMARK  6 active torsions:
REMARK  status: ('A' for Active; 'I' for Inactive)
REMARK    1  A    between atoms: C_1  and  C_2
REMARK    2  A    between atoms: C_6  and  C_7
REMARK    3  A    between atoms: C_7  and  C_8
REMARK    4  A    between atoms: C_11  and  C_12
REMARK    5  A    between atoms: C_12  and  N_13
REMARK    6  A    between atoms: C_14  and  C_16
REMARK                            x       y       z     vdW  Elec       q    Type
REMARK                         _______ _______ _______ _____ _____    ______ ____
ROOT
ATOM      1  C   UNL     1      46.686   5.836  13.841  0.00  0.00    +0.000 C 
ENDROOT
BRANCH   1   5
ATOM      2  C   UNL     1      44.905   4.495  10.133  0.00  0.00    +0.000 A 
ATOM      3  C   UNL     1      45.635   5.691  10.180  0.00  0.00    +0.000 A 
ATOM      4  C   UNL     1      46.196   6.135  11.380  0.00  0.00    +0.000 A 
ATOM      5  C   UNL     1      46.035   5.393  12.558  0.00  0.00    +0.000 A 
ATOM      6  C   UNL     1      45.245   4.236  12.524  0.00  0.00    +0.000 A 
ATOM      7  C   UNL     1      44.696   3.784  11.321  0.00  0.00    +0.000 A 
BRANCH   2   8
ATOM      8  C   UNL     1      44.395   3.953   8.816  0.00  0.00    +0.000 C 
BRANCH   8  14
ATOM      9  C   UNL     1      47.584   2.796   5.278  0.00  0.00    +0.000 C 
ATOM     10  C   UNL     1      46.833   2.402   6.509  0.00  0.00    +0.000 A 
ATOM     11  C   UNL     1      46.999   1.147   7.084  0.00  0.00    +0.000 A 
ATOM     12  N   UNL     1      46.337   0.753   8.192  0.00  0.00    +0.000 NA
ATOM     13  C   UNL     1      45.489   1.672   8.712  0.00  0.00    +0.000 A 
ATOM     14  C   UNL     1      45.306   2.938   8.162  0.00  0.00    +0.000 A 
ATOM     15  N   UNL     1      45.986   3.318   7.048  0.00  0.00    +0.000 NA
ENDBRANCH   8  14
ENDBRANCH   2   8
ENDBRANCH   1   5
BRANCH   1  16
ATOM     16  N   UNL     1      47.191   7.178  13.737  0.00  0.00    +0.000 N 
ATOM     17  C   UNL     1      48.505   7.417  13.430  0.00  0.00    +0.000 C 
ATOM     18  O   UNL     1      49.291   6.510  13.171  0.00  0.00    +0.000 OA
ATOM     19  H   UNL     1      46.636   7.913  14.166  0.00  0.00    +0.000 HD
BRANCH  17  20
ATOM     20  C   UNL     1      48.909   8.826  13.350  0.00  0.00    +0.000 A 
ATOM     21  C   UNL     1      49.375   9.344  12.148  0.00  0.00    +0.000 A 
ATOM     22  S   UNL     1      49.724  11.012  12.214  0.00  0.00    +0.000 S 
ATOM     23  C   UNL     1      49.319  11.088  13.865  0.00  0.00    +0.000 A 
ATOM     24  N   UNL     1      49.410  12.256  14.555  0.00  0.00    +0.000 NA
ATOM     25  C   UNL     1      49.107  12.161  15.807  0.00  0.00    +0.000 A 
ATOM     26  N   UNL     1      48.721  11.004  16.432  0.00  0.00    +0.000 N 
ATOM     27  C   UNL     1      48.584   9.806  15.769  0.00  0.00    +0.000 A 
ATOM     28  O   UNL     1      48.198   8.799  16.349  0.00  0.00    +0.000 OA
ATOM     29  C   UNL     1      48.916   9.860  14.357  0.00  0.00    +0.000 A 
ATOM     30  H   UNL     1      48.496  10.995  17.416  0.00  0.00    +0.000 HD
ENDBRANCH  17  20
ENDBRANCH   1  16
TORSDOF 5
ENDMDL
MODEL 6
REMARK VINA RESULT:    -7.003      3.312      8.011
REMARK INTER + INTRA:          -9.918
REMARK INTER:                  -9.209
REMARK INTRA:                  -0.709
REMARK UNBOUND:                -0.867
REMARK  Name = 
REMARK  6 active torsions:
REMARK  status: ('A' for Active; 'I' for Inactive)
REMARK    1  A    between atoms: C_1  and  C_2
REMARK    2  A    between atoms: C_6  and  C_7
REMARK    3  A    between atoms: C_7  and  C_8
REMARK    4  A    between atoms: C_11  and  C_12
REMARK    5  A    between atoms: C_12  and  N_13
REMARK    6  A    between atoms: C_14  and  C_16
REMARK                            x       y       z     vdW  Elec       q    Type
REMARK                         _______ _______ _______ _____ _____    ______ ____
ROOT
ATOM      1  C   UNL     1      48.457   7.509  12.903  0.00  0.00    +0.000 C 
ENDROOT
BRANCH   1   5
ATOM      2  C   UNL     1      49.694   5.877  16.714  0.00  0.00    +0.000 A 
ATOM      3  C   UNL     1      48.433   5.571  16.185  0.00  0.00    +0.000 A 
ATOM      4  C   UNL     1      48.024   6.111  14.963  0.00  0.00    +0.000 A 
ATOM      5  C   UNL     1      48.868   6.971  14.248  0.00  0.00    +0.000 A 
ATOM      6  C   UNL     1      50.099   7.334  14.813  0.00  0.00    +0.000 A 
ATOM      7  C   UNL     1      50.514   6.782  16.027  0.00  0.00    +0.000 A 
BRANCH   2   8
ATOM      8  C   UNL     1      50.186   5.205  17.978  0.00  0.00    +0.000 C 
BRANCH   8  14
ATOM      9  C   UNL     1      54.001   2.157  18.390  0.00  0.00    +0.000 C 
ATOM     10  C   UNL     1      52.581   2.390  17.985  0.00  0.00    +0.000 A 
ATOM     11  C   UNL     1      51.802   1.361  17.468  0.00  0.00    +0.000 A 
ATOM     12  N   UNL     1      50.518   1.532  17.088  0.00  0.00    +0.000 NA
ATOM     13  C   UNL     1      50.035   2.788  17.244  0.00  0.00    +0.000 A 
ATOM     14  C   UNL     1      50.790   3.836  17.764  0.00  0.00    +0.000 A 
ATOM     15  N   UNL     1      52.081   3.642  18.146  0.00  0.00    +0.000 NA
ENDBRANCH   8  14
ENDBRANCH   2   8
ENDBRANCH   1   5
BRANCH   1  16
ATOM     16  N   UNL     1      47.707   6.537  12.156  0.00  0.00    +0.000 N 
ATOM     17  C   UNL     1      46.411   6.777  11.785  0.00  0.00    +0.000 C 
ATOM     18  O   UNL     1      45.852   7.847  12.015  0.00  0.00    +0.000 OA
ATOM     19  H   UNL     1      48.058   5.583  12.162  0.00  0.00    +0.000 HD
BRANCH  17  20
ATOM     20  C   UNL     1      45.742   5.713  11.025  0.00  0.00    +0.000 A 
ATOM     21  C   UNL     1      45.889   5.654   9.644  0.00  0.00    +0.000 A 
ATOM     22  S   UNL     1      45.112   4.313   8.934  0.00  0.00    +0.000 S 
ATOM     23  C   UNL     1      44.507   3.796  10.438  0.00  0.00    +0.000 A 
ATOM     24  N   UNL     1      43.732   2.683  10.536  0.00  0.00    +0.000 NA
ATOM     25  C   UNL     1      43.312   2.429  11.731  0.00  0.00    +0.000 A 
ATOM     26  N   UNL     1      43.598   3.185  12.837  0.00  0.00    +0.000 N 
ATOM     27  C   UNL     1      44.403   4.301  12.792  0.00  0.00    +0.000 A 
ATOM     28  O   UNL     1      44.670   4.933  13.807  0.00  0.00    +0.000 OA
ATOM     29  C   UNL     1      44.898   4.631  11.469  0.00  0.00    +0.000 A 
ATOM     30  H   UNL     1      43.239   2.933  13.746  0.00  0.00    +0.000 HD
ENDBRANCH  17  20
ENDBRANCH   1  16
TORSDOF 5
ENDMDL
MODEL 7
REMARK VINA RESULT:    -6.991      3.889      9.671
REMARK INTER + INTRA:          -9.901
REMARK INTER:                  -9.310
REMARK INTRA:                  -0.591
REMARK UNBOUND:                -0.867
REMARK  Name = 
REMARK  6 active torsions:
REMARK  status: ('A' for Active; 'I' for Inactive)
REMARK    1  A    between atoms: C_1  and  C_2
REMARK    2  A    between atoms: C_6  and  C_7
REMARK    3  A    between atoms: C_7  and  C_8
REMARK    4  A    between atoms: C_11  and  C_12
REMARK    5  A    between atoms: C_12  and  N_13
REMARK    6  A    between atoms: C_14  and  C_16
REMARK                            x       y       z     vdW  Elec       q    Type
REMARK                         _______ _______ _______ _____ _____    ______ ____
ROOT
ATOM      1  C   UNL     1      47.291   3.374  16.862  0.00  0.00    +0.000 C 
ENDROOT
BRANCH   1   5
ATOM      2  C   UNL     1      51.548   3.300  17.628  0.00  0.00    +0.000 A 
ATOM      3  C   UNL     1      50.867   2.125  17.279  0.00  0.00    +0.000 A 
ATOM      4  C   UNL     1      49.490   2.143  17.049  0.00  0.00    +0.000 A 
ATOM      5  C   UNL     1      48.765   3.337  17.166  0.00  0.00    +0.000 A 
ATOM      6  C   UNL     1      49.434   4.495  17.585  0.00  0.00    +0.000 A 
ATOM      7  C   UNL     1      50.815   4.480  17.801  0.00  0.00    +0.000 A 
BRANCH   2   8
ATOM      8  C   UNL     1      53.055   3.308  17.765  0.00  0.00    +0.000 C 
BRANCH   8  14
ATOM      9  C   UNL     1      53.128   5.200  22.285  0.00  0.00    +0.000 C 
ATOM     10  C   UNL     1      53.565   4.136  21.331  0.00  0.00    +0.000 A 
ATOM     11  C   UNL     1      54.374   3.084  21.747  0.00  0.00    +0.000 A 
ATOM     12  N   UNL     1      54.793   2.106  20.916  0.00  0.00    +0.000 NA
ATOM     13  C   UNL     1      54.369   2.220  19.635  0.00  0.00    +0.000 A 
ATOM     14  C   UNL     1      53.554   3.259  19.191  0.00  0.00    +0.000 A 
ATOM     15  N   UNL     1      53.139   4.232  20.045  0.00  0.00    +0.000 NA
ENDBRANCH   8  14
ENDBRANCH   2   8
ENDBRANCH   1   5
BRANCH   1  16
ATOM     16  N   UNL     1      46.974   4.420  15.929  0.00  0.00    +0.000 N 
ATOM     17  C   UNL     1      47.004   4.196  14.578  0.00  0.00    +0.000 C 
ATOM     18  O   UNL     1      47.241   3.087  14.105  0.00  0.00    +0.000 OA
ATOM     19  H   UNL     1      47.008   5.374  16.279  0.00  0.00    +0.000 HD
BRANCH  17  20
ATOM     20  C   UNL     1      46.663   5.337  13.720  0.00  0.00    +0.000 A 
ATOM     21  C   UNL     1      47.592   6.350  13.515  0.00  0.00    +0.000 A 
ATOM     22  S   UNL     1      47.060   7.553  12.430  0.00  0.00    +0.000 S 
ATOM     23  C   UNL     1      45.550   6.792  12.239  0.00  0.00    +0.000 A 
ATOM     24  N   UNL     1      44.595   7.325  11.431  0.00  0.00    +0.000 NA
ATOM     25  C   UNL     1      43.485   6.663  11.409  0.00  0.00    +0.000 A 
ATOM     26  N   UNL     1      43.245   5.518  12.121  0.00  0.00    +0.000 N 
ATOM     27  C   UNL     1      44.190   4.925  12.927  0.00  0.00    +0.000 A 
ATOM     28  O   UNL     1      43.955   3.879  13.519  0.00  0.00    +0.000 OA
ATOM     29  C   UNL     1      45.455   5.633  12.987  0.00  0.00    +0.000 A 
ATOM     30  H   UNL     1      42.354   5.046  12.061  0.00  0.00    +0.000 HD
ENDBRANCH  17  20
ENDBRANCH   1  16
TORSDOF 5
ENDMDL
MODEL 8
REMARK VINA RESULT:    -6.792      3.419      8.839
REMARK INTER + INTRA:          -9.644
REMARK INTER:                  -8.774
REMARK INTRA:                  -0.870
REMARK UNBOUND:                -0.867
REMARK  Name = 
REMARK  6 active torsions:
REMARK  status: ('A' for Active; 'I' for Inactive)
REMARK    1  A    between atoms: C_1  and  C_2
REMARK    2  A    between atoms: C_6  and  C_7
REMARK    3  A    between atoms: C_7  and  C_8
REMARK    4  A    between atoms: C_11  and  C_12
REMARK    5  A    between atoms: C_12  and  N_13
REMARK    6  A    between atoms: C_14  and  C_16
REMARK                            x       y       z     vdW  Elec       q    Type
REMARK                         _______ _______ _______ _____ _____    ______ ____
ROOT
ATOM      1  C   UNL     1      47.223   3.304  16.995  0.00  0.00    +0.000 C 
ENDROOT
BRANCH   1   5
ATOM      2  C   UNL     1      51.423   3.554  18.006  0.00  0.00    +0.000 A 
ATOM      3  C   UNL     1      50.922   2.441  17.316  0.00  0.00    +0.000 A 
ATOM      4  C   UNL     1      49.563   2.350  17.005  0.00  0.00    +0.000 A 
ATOM      5  C   UNL     1      48.678   3.369  17.380  0.00  0.00    +0.000 A 
ATOM      6  C   UNL     1      49.167   4.446  18.132  0.00  0.00    +0.000 A 
ATOM      7  C   UNL     1      50.529   4.545  18.431  0.00  0.00    +0.000 A 
BRANCH   2   8
ATOM      8  C   UNL     1      52.909   3.711  18.243  0.00  0.00    +0.000 C 
BRANCH   8  14
ATOM      9  C   UNL     1      53.826   7.300  15.034  0.00  0.00    +0.000 C 
ATOM     10  C   UNL     1      53.853   6.798  16.443  0.00  0.00    +0.000 A 
ATOM     11  C   UNL     1      54.312   7.598  17.483  0.00  0.00    +0.000 A 
ATOM     12  N   UNL     1      54.354   7.179  18.766  0.00  0.00    +0.000 NA
ATOM     13  C   UNL     1      53.917   5.915  18.974  0.00  0.00    +0.000 A 
ATOM     14  C   UNL     1      53.447   5.094  17.952  0.00  0.00    +0.000 A 
ATOM     15  N   UNL     1      53.407   5.535  16.667  0.00  0.00    +0.000 NA
ENDBRANCH   8  14
ENDBRANCH   2   8
ENDBRANCH   1   5
BRANCH   1  16
ATOM     16  N   UNL     1      46.886   4.329  16.045  0.00  0.00    +0.000 N 
ATOM     17  C   UNL     1      47.023   4.117  14.699  0.00  0.00    +0.000 C 
ATOM     18  O   UNL     1      47.378   3.034  14.240  0.00  0.00    +0.000 OA
ATOM     19  H   UNL     1      46.821   5.279  16.398  0.00  0.00    +0.000 HD
BRANCH  17  20
ATOM     20  C   UNL     1      46.649   5.233  13.821  0.00  0.00    +0.000 A 
ATOM     21  C   UNL     1      47.511   6.312  13.671  0.00  0.00    +0.000 A 
ATOM     22  S   UNL     1      46.955   7.477  12.556  0.00  0.00    +0.000 S 
ATOM     23  C   UNL     1      45.519   6.608  12.278  0.00  0.00    +0.000 A 
ATOM     24  N   UNL     1      44.575   7.071  11.416  0.00  0.00    +0.000 NA
ATOM     25  C   UNL     1      43.521   6.330  11.330  0.00  0.00    +0.000 A 
ATOM     26  N   UNL     1      43.325   5.167  12.027  0.00  0.00    +0.000 N 
ATOM     27  C   UNL     1      44.263   4.643  12.886  0.00  0.00    +0.000 A 
ATOM     28  O   UNL     1      44.072   3.580  13.465  0.00  0.00    +0.000 OA
ATOM     29  C   UNL     1      45.467   5.442  13.020  0.00  0.00    +0.000 A 
ATOM     30  H   UNL     1      42.476   4.631  11.915  0.00  0.00    +0.000 HD
ENDBRANCH  17  20
ENDBRANCH   1  16
TORSDOF 5
ENDMDL
MODEL 9
REMARK VINA RESULT:    -6.764      1.824      2.532
REMARK INTER + INTRA:          -9.609
REMARK INTER:                  -8.589
REMARK INTRA:                  -1.020
REMARK UNBOUND:                -0.867
REMARK  Name = 
REMARK  6 active torsions:
REMARK  status: ('A' for Active; 'I' for Inactive)
REMARK    1  A    between atoms: C_1  and  C_2
REMARK    2  A    between atoms: C_6  and  C_7
REMARK    3  A    between atoms: C_7  and  C_8
REMARK    4  A    between atoms: C_11  and  C_12
REMARK    5  A    between atoms: C_12  and  N_13
REMARK    6  A    between atoms: C_14  and  C_16
REMARK                            x       y       z     vdW  Elec       q    Type
REMARK                         _______ _______ _______ _____ _____    ______ ____
ROOT
ATOM      1  C   UNL     1      49.423   8.372  14.085  0.00  0.00    +0.000 C 
ENDROOT
BRANCH   1   5
ATOM      2  C   UNL     1      45.769   7.334  12.014  0.00  0.00    +0.000 A 
ATOM      3  C   UNL     1      46.934   6.575  11.828  0.00  0.00    +0.000 A 
ATOM      4  C   UNL     1      48.119   6.920  12.481  0.00  0.00    +0.000 A 
ATOM      5  C   UNL     1      48.165   8.031  13.333  0.00  0.00    +0.000 A 
ATOM      6  C   UNL     1      47.020   8.830  13.462  0.00  0.00    +0.000 A 
ATOM      7  C   UNL     1      45.830   8.478  12.820  0.00  0.00    +0.000 A 
BRANCH   2   8
ATOM      8  C   UNL     1      44.456   6.898  11.401  0.00  0.00    +0.000 C 
BRANCH   8  14
ATOM      9  C   UNL     1      44.328   2.346   9.590  0.00  0.00    +0.000 C 
ATOM     10  C   UNL     1      44.103   3.279  10.736  0.00  0.00    +0.000 A 
ATOM     11  C   UNL     1      43.658   2.813  11.968  0.00  0.00    +0.000 A 
ATOM     12  N   UNL     1      43.441   3.624  13.025  0.00  0.00    +0.000 NA
ATOM     13  C   UNL     1      43.685   4.937  12.803  0.00  0.00    +0.000 A 
ATOM     14  C   UNL     1      44.137   5.432  11.581  0.00  0.00    +0.000 A 
ATOM     15  N   UNL     1      44.355   4.598  10.530  0.00  0.00    +0.000 NA
ENDBRANCH   8  14
ENDBRANCH   2   8
ENDBRANCH   1   5
BRANCH   1  16
ATOM     16  N   UNL     1      49.521   7.626  15.310  0.00  0.00    +0.000 N 
ATOM     17  C   UNL     1      48.978   8.102  16.473  0.00  0.00    +0.000 C 
ATOM     18  O   UNL     1      48.335   9.147  16.515  0.00  0.00    +0.000 OA
ATOM     19  H   UNL     1      50.230   6.899  15.349  0.00  0.00    +0.000 HD
BRANCH  17  20
ATOM     20  C   UNL     1      49.138   7.255  17.662  0.00  0.00    +0.000 A 
ATOM     21  C   UNL     1      49.627   7.805  18.841  0.00  0.00    +0.000 A 
ATOM     22  S   UNL     1      49.672   6.701  20.140  0.00  0.00    +0.000 S 
ATOM     23  C   UNL     1      49.094   5.437  19.159  0.00  0.00    +0.000 A 
ATOM     24  N   UNL     1      48.911   4.187  19.663  0.00  0.00    +0.000 NA
ATOM     25  C   UNL     1      48.503   3.318  18.798  0.00  0.00    +0.000 A 
ATOM     26  N   UNL     1      48.262   3.585  17.476  0.00  0.00    +0.000 N 
ATOM     27  C   UNL     1      48.403   4.839  16.929  0.00  0.00    +0.000 A 
ATOM     28  O   UNL     1      48.141   5.052  15.751  0.00  0.00    +0.000 OA
ATOM     29  C   UNL     1      48.863   5.852  17.860  0.00  0.00    +0.000 A 
ATOM     30  H   UNL     1      47.943   2.860  16.850  0.00  0.00    +0.000 HD
ENDBRANCH  17  20
ENDBRANCH   1  16
TORSDOF 5
ENDMDL
