MODEL 1
REMARK VINA RESULT:    -7.348      0.000      0.000
REMARK INTER + INTRA:          -9.770
REMARK INTER:                  -9.067
REMARK INTRA:                  -0.704
REMARK UNBOUND:                -0.704
REMARK  Name = 
REMARK  4 active torsions:
REMARK  status: ('A' for Active; 'I' for Inactive)
REMARK    1  A    between atoms: C_5  and  O_6
REMARK    2  A    between atoms: O_6  and  C_7
REMARK    3  A    between atoms: C_7  and  C_8
REMARK    4  A    between atoms: C_12  and  C_13
REMARK                            x       y       z     vdW  Elec       q    Type
REMARK                         _______ _______ _______ _____ _____    ______ ____
ROOT
ATOM      1  C   UNL     1      45.089   5.130  12.194  0.00  0.00    +0.000 A 
ATOM      2  C   UNL     1      45.566   4.143  13.072  0.00  0.00    +0.000 A 
ATOM      3  C   UNL     1      46.809   4.253  13.687  0.00  0.00    +0.000 A 
ATOM      4  C   UNL     1      47.618   5.354  13.420  0.00  0.00    +0.000 A 
ATOM      5  C   UNL     1      47.191   6.374  12.553  0.00  0.00    +0.000 A 
ATOM      6  C   UNL     1      45.905   6.259  11.990  0.00  0.00    +0.000 A 
ENDROOT
BRANCH   5   7
ATOM      7  C   UNL     1      48.097   7.476  12.168  0.00  0.00    +0.000 A 
ATOM      8  C   UNL     1      47.613   8.788  12.044  0.00  0.00    +0.000 A 
ATOM      9  C   UNL     1      48.491   9.813  11.729  0.00  0.00    +0.000 A 
ATOM     10  N   UNL     1      49.812   9.634  11.528  0.00  0.00    +0.000 NA
ATOM     11  C   UNL     1      50.271   8.372  11.654  0.00  0.00    +0.000 A 
ATOM     12  C   UNL     1      49.465   7.281  11.960  0.00  0.00    +0.000 A 
ENDBRANCH   5   7
BRANCH   1  13
ATOM     13  C   UNL     1      43.795   4.914  11.426  0.00  0.00    +0.000 C 
ATOM     14  C   UNL     1      42.453   5.328  12.029  0.00  0.00    +0.000 C 
ATOM     15  C   UNL     1      43.071   6.175  10.971  0.00  0.00    +0.000 C 
BRANCH  13  16
ATOM     16  O   UNL     1      43.668   3.674  10.687  0.00  0.00    +0.000 OA
BRANCH  16  21
ATOM     17 BR   UNL     1      47.315   2.398   6.166  0.00  0.00    +0.000 Br
ATOM     18  C   UNL     1      46.241   2.829   7.644  0.00  0.00    +0.000 A 
ATOM     19  C   UNL     1      45.830   4.117   7.892  0.00  0.00    +0.000 A 
ATOM     20  N   UNL     1      45.013   4.449   8.911  0.00  0.00    +0.000 NA
ATOM     21  C   UNL     1      44.602   3.439   9.699  0.00  0.00    +0.000 A 
ATOM     22  N   UNL     1      44.976   2.155   9.569  0.00  0.00    +0.000 NA
ATOM     23  C   UNL     1      45.793   1.879   8.531  0.00  0.00    +0.000 A 
ENDBRANCH  16  21
ENDBRANCH  13  16
ENDBRANCH   1  13
TORSDOF 4
ENDMDL
MODEL 2
REMARK VINA RESULT:    -7.238      2.353      3.615
REMARK INTER + INTRA:          -9.634
REMARK INTER:                  -9.326
REMARK INTRA:                  -0.309
REMARK UNBOUND:                -0.704
REMARK  Name = 
REMARK  4 active torsions:
REMARK  status: ('A' for Active; 'I' for Inactive)
REMARK    1  A    between atoms: C_5  and  O_6
REMARK    2  A    between atoms: O_6  and  C_7
REMARK    3  A    between atoms: C_7  and  C_8
REMARK    4  A    between atoms: C_12  and  C_13
REMARK                            x       y       z     vdW  Elec       q    Type
REMARK                         _______ _______ _______ _____ _____    ______ ____
ROOT
ATOM      1  C   UNL     1      45.456   5.318  12.240  0.00  0.00    +0.000 A 
ATOM      2  C   UNL     1      46.127   6.395  11.640  0.00  0.00    +0.000 A 
ATOM      3  C   UNL     1      47.281   6.938  12.196  0.00  0.00    +0.000 A 
ATOM      4  C   UNL     1      47.784   6.420  13.386  0.00  0.00    +0.000 A 
ATOM      5  C   UNL     1      47.158   5.340  14.030  0.00  0.00    +0.000 A 
ATOM      6  C   UNL     1      46.023   4.778  13.411  0.00  0.00    +0.000 A 
ENDROOT
BRANCH   5   7
ATOM      7  C   UNL     1      47.612   4.873  15.356  0.00  0.00    +0.000 A 
ATOM      8  C   UNL     1      47.283   3.588  15.813  0.00  0.00    +0.000 A 
ATOM      9  C   UNL     1      47.762   3.155  17.039  0.00  0.00    +0.000 A 
ATOM     10  N   UNL     1      48.542   3.902  17.845  0.00  0.00    +0.000 NA
ATOM     11  C   UNL     1      48.860   5.134  17.398  0.00  0.00    +0.000 A 
ATOM     12  C   UNL     1      48.420   5.656  16.186  0.00  0.00    +0.000 A 
ENDBRANCH   5   7
BRANCH   1  13
ATOM     13  C   UNL     1      44.122   4.841  11.691  0.00  0.00    +0.000 C 
ATOM     14  C   UNL     1      42.827   5.087  12.465  0.00  0.00    +0.000 C 
ATOM     15  C   UNL     1      43.141   5.932  11.279  0.00  0.00    +0.000 C 
BRANCH  13  16
ATOM     16  O   UNL     1      44.101   3.541  11.051  0.00  0.00    +0.000 OA
BRANCH  16  21
ATOM     17 BR   UNL     1      46.931   2.690   5.890  0.00  0.00    +0.000 Br
ATOM     18  C   UNL     1      46.123   2.982   7.559  0.00  0.00    +0.000 A 
ATOM     19  C   UNL     1      45.778   4.241   7.988  0.00  0.00    +0.000 A 
ATOM     20  N   UNL     1      45.146   4.477   9.155  0.00  0.00    +0.000 NA
ATOM     21  C   UNL     1      44.855   3.399   9.904  0.00  0.00    +0.000 A 
ATOM     22  N   UNL     1      45.183   2.132   9.597  0.00  0.00    +0.000 NA
ATOM     23  C   UNL     1      45.814   1.954   8.417  0.00  0.00    +0.000 A 
ENDBRANCH  16  21
ENDBRANCH  13  16
ENDBRANCH   1  13
TORSDOF 4
ENDMDL
MODEL 3
REMARK VINA RESULT:    -6.784      3.469      6.675
REMARK INTER + INTRA:          -9.074
REMARK INTER:                  -8.456
REMARK INTRA:                  -0.618
REMARK UNBOUND:                -0.704
REMARK  Name = 
REMARK  4 active torsions:
REMARK  status: ('A' for Active; 'I' for Inactive)
REMARK    1  A    between atoms: C_5  and  O_6
REMARK    2  A    between atoms: O_6  and  C_7
REMARK    3  A    between atoms: C_7  and  C_8
REMARK    4  A    between atoms: C_12  and  C_13
REMARK                            x       y       z     vdW  Elec       q    Type
REMARK                         _______ _______ _______ _____ _____    ______ ____
ROOT
ATOM      1  C   UNL     1      45.433   6.322  11.658  0.00  0.00    +0.000 A 
ATOM      2  C   UNL     1      44.044   6.437  11.831  0.00  0.00    +0.000 A 
ATOM      3  C   UNL     1      43.152   5.624  11.138  0.00  0.00    +0.000 A 
ATOM      4  C   UNL     1      43.636   4.682  10.234  0.00  0.00    +0.000 A 
ATOM      5  C   UNL     1      45.015   4.520  10.022  0.00  0.00    +0.000 A 
ATOM      6  C   UNL     1      45.892   5.321  10.781  0.00  0.00    +0.000 A 
ENDROOT
BRANCH   5   7
ATOM      7  C   UNL     1      45.525   3.615   8.972  0.00  0.00    +0.000 A 
ATOM      8  C   UNL     1      46.115   4.130   7.808  0.00  0.00    +0.000 A 
ATOM      9  C   UNL     1      46.629   3.261   6.859  0.00  0.00    +0.000 A 
ATOM     10  N   UNL     1      46.602   1.919   6.980  0.00  0.00    +0.000 NA
ATOM     11  C   UNL     1      46.039   1.430   8.103  0.00  0.00    +0.000 A 
ATOM     12  C   UNL     1      45.490   2.223   9.104  0.00  0.00    +0.000 A 
ENDBRANCH   5   7
BRANCH   1  13
ATOM     13  C   UNL     1      46.374   7.317  12.317  0.00  0.00    +0.000 C 
ATOM     14  C   UNL     1      46.413   8.775  11.860  0.00  0.00    +0.000 C 
ATOM     15  C   UNL     1      45.713   8.425  13.128  0.00  0.00    +0.000 C 
BRANCH  13  16
ATOM     16  O   UNL     1      47.704   6.844  12.647  0.00  0.00    +0.000 OA
BRANCH  16  21
ATOM     17 BR   UNL     1      48.033   4.384  18.051  0.00  0.00    +0.000 Br
ATOM     18  C   UNL     1      48.000   5.101  16.317  0.00  0.00    +0.000 A 
ATOM     19  C   UNL     1      47.323   4.489  15.290  0.00  0.00    +0.000 A 
ATOM     20  N   UNL     1      47.234   5.008  14.049  0.00  0.00    +0.000 NA
ATOM     21  C   UNL     1      47.851   6.186  13.850  0.00  0.00    +0.000 A 
ATOM     22  N   UNL     1      48.572   6.848  14.772  0.00  0.00    +0.000 NA
ATOM     23  C   UNL     1      48.627   6.283  15.997  0.00  0.00    +0.000 A 
ENDBRANCH  16  21
ENDBRANCH  13  16
ENDBRANCH   1  13
TORSDOF 4
ENDMDL
MODEL 4
REMARK VINA RESULT:    -6.624      1.285      2.144
REMARK INTER + INTRA:          -8.877
REMARK INTER:                  -8.997
REMARK INTRA:                   0.120
REMARK UNBOUND:                -0.704
REMARK  Name = 
REMARK  4 active torsions:
REMARK  status: ('A' for Active; 'I' for Inactive)
REMARK    1  A    between atoms: C_5  and  O_6
REMARK    2  A    between atoms: O_6  and  C_7
REMARK    3  A    between atoms: C_7  and  C_8
REMARK    4  A    between atoms: C_12  and  C_13
REMARK                            x       y       z     vdW  Elec       q    Type
REMARK                         _______ _______ _______ _____ _____    ______ ____
ROOT
ATOM      1  C   UNL     1      44.846   5.650  11.542  0.00  0.00    +0.000 A 
ATOM      2  C   UNL     1      44.018   6.765  11.336  0.00  0.00    +0.000 A 
ATOM      3  C   UNL     1      44.496   8.064  11.476  0.00  0.00    +0.000 A 
ATOM      4  C   UNL     1      45.821   8.277  11.846  0.00  0.00    +0.000 A 
ATOM      5  C   UNL     1      46.696   7.200  12.061  0.00  0.00    +0.000 A 
ATOM      6  C   UNL     1      46.195   5.899  11.857  0.00  0.00    +0.000 A 
ENDROOT
BRANCH   5   7
ATOM      7  C   UNL     1      48.063   7.418  12.579  0.00  0.00    +0.000 A 
ATOM      8  C   UNL     1      49.038   8.037  11.782  0.00  0.00    +0.000 A 
ATOM      9  C   UNL     1      50.299   8.275  12.307  0.00  0.00    +0.000 A 
ATOM     10  N   UNL     1      50.663   7.944  13.562  0.00  0.00    +0.000 NA
ATOM     11  C   UNL     1      49.720   7.355  14.323  0.00  0.00    +0.000 A 
ATOM     12  C   UNL     1      48.433   7.070  13.882  0.00  0.00    +0.000 A 
ENDBRANCH   5   7
BRANCH   1  13
ATOM     13  C   UNL     1      44.262   4.246  11.523  0.00  0.00    +0.000 C 
ATOM     14  C   UNL     1      44.872   3.137  12.380  0.00  0.00    +0.000 C 
ATOM     15  C   UNL     1      43.601   3.781  12.815  0.00  0.00    +0.000 C 
BRANCH  13  16
ATOM     16  O   UNL     1      43.834   3.729  10.239  0.00  0.00    +0.000 OA
BRANCH  16  21
ATOM     17 BR   UNL     1      47.731   2.185   6.020  0.00  0.00    +0.000 Br
ATOM     18  C   UNL     1      46.575   2.700   7.407  0.00  0.00    +0.000 A 
ATOM     19  C   UNL     1      46.199   4.008   7.591  0.00  0.00    +0.000 A 
ATOM     20  N   UNL     1      45.327   4.400   8.542  0.00  0.00    +0.000 NA
ATOM     21  C   UNL     1      44.823   3.431   9.326  0.00  0.00    +0.000 A 
ATOM     22  N   UNL     1      45.155   2.130   9.257  0.00  0.00    +0.000 NA
ATOM     23  C   UNL     1      46.031   1.793   8.286  0.00  0.00    +0.000 A 
ENDBRANCH  16  21
ENDBRANCH  13  16
ENDBRANCH   1  13
TORSDOF 4
ENDMDL
MODEL 5
REMARK VINA RESULT:    -6.554      3.547      6.614
REMARK INTER + INTRA:          -8.790
REMARK INTER:                  -8.091
REMARK INTRA:                  -0.699
REMARK UNBOUND:                -0.704
REMARK  Name = 
REMARK  4 active torsions:
REMARK  status: ('A' for Active; 'I' for Inactive)
REMARK    1  A    between atoms: C_5  and  O_6
REMARK    2  A    between atoms: O_6  and  C_7
REMARK    3  A    between atoms: C_7  and  C_8
REMARK    4  A    between atoms: C_12  and  C_13
REMARK                            x       y       z     vdW  Elec       q    Type
REMARK                         _______ _______ _______ _____ _____    ______ ____
ROOT
ATOM      1  C   UNL     1      45.142   6.231  11.879  0.00  0.00    +0.000 A 
ATOM      2  C   UNL     1      43.808   6.008  12.259  0.00  0.00    +0.000 A 
ATOM      3  C   UNL     1      43.042   5.001  11.680  0.00  0.00    +0.000 A 
ATOM      4  C   UNL     1      43.595   4.198  10.686  0.00  0.00    +0.000 A 
ATOM      5  C   UNL     1      44.924   4.372  10.268  0.00  0.00    +0.000 A 
ATOM      6  C   UNL     1      45.689   5.364  10.913  0.00  0.00    +0.000 A 
ENDROOT
BRANCH   5   7
ATOM      7  C   UNL     1      45.471   3.610   9.126  0.00  0.00    +0.000 A 
ATOM      8  C   UNL     1      46.041   4.275   8.030  0.00  0.00    +0.000 A 
ATOM      9  C   UNL     1      46.591   3.537   6.993  0.00  0.00    +0.000 A 
ATOM     10  N   UNL     1      46.618   2.190   6.964  0.00  0.00    +0.000 NA
ATOM     11  C   UNL     1      46.074   1.557   8.023  0.00  0.00    +0.000 A 
ATOM     12  C   UNL     1      45.493   2.212   9.103  0.00  0.00    +0.000 A 
ENDBRANCH   5   7
BRANCH   1  13
ATOM     13  C   UNL     1      45.906   7.426  12.422  0.00  0.00    +0.000 C 
ATOM     14  C   UNL     1      47.067   7.233  13.396  0.00  0.00    +0.000 C 
ATOM     15  C   UNL     1      47.356   7.554  11.971  0.00  0.00    +0.000 C 
BRANCH  13  16
ATOM     16  O   UNL     1      45.129   8.599  12.772  0.00  0.00    +0.000 OA
BRANCH  16  21
ATOM     17 BR   UNL     1      44.010  12.873   8.791  0.00  0.00    +0.000 Br
ATOM     18  C   UNL     1      44.434  11.492   9.990  0.00  0.00    +0.000 A 
ATOM     19  C   UNL     1      45.470  11.600  10.886  0.00  0.00    +0.000 A 
ATOM     20  N   UNL     1      45.763  10.650  11.796  0.00  0.00    +0.000 NA
ATOM     21  C   UNL     1      44.976   9.560  11.794  0.00  0.00    +0.000 A 
ATOM     22  N   UNL     1      43.965   9.336  10.936  0.00  0.00    +0.000 NA
ATOM     23  C   UNL     1      43.716  10.321  10.047  0.00  0.00    +0.000 A 
ENDBRANCH  16  21
ENDBRANCH  13  16
ENDBRANCH   1  13
TORSDOF 4
ENDMDL
MODEL 6
REMARK VINA RESULT:    -6.327      4.091      7.430
REMARK INTER + INTRA:          -8.511
REMARK INTER:                  -7.763
REMARK INTRA:                  -0.748
REMARK UNBOUND:                -0.704
REMARK  Name = 
REMARK  4 active torsions:
REMARK  status: ('A' for Active; 'I' for Inactive)
REMARK    1  A    between atoms: C_5  and  O_6
REMARK    2  A    between atoms: O_6  and  C_7
REMARK    3  A    between atoms: C_7  and  C_8
REMARK    4  A    between atoms: C_12  and  C_13
REMARK                            x       y       z     vdW  Elec       q    Type
REMARK                         _______ _______ _______ _____ _____    ______ ____
ROOT
ATOM      1  C   UNL     1      47.428   7.487  12.448  0.00  0.00    +0.000 A 
ATOM      2  C   UNL     1      46.464   8.452  12.780  0.00  0.00    +0.000 A 
ATOM      3  C   UNL     1      45.124   8.291  12.443  0.00  0.00    +0.000 A 
ATOM      4  C   UNL     1      44.719   7.158  11.743  0.00  0.00    +0.000 A 
ATOM      5  C   UNL     1      45.638   6.158  11.387  0.00  0.00    +0.000 A 
ATOM      6  C   UNL     1      46.977   6.326  11.792  0.00  0.00    +0.000 A 
ENDROOT
BRANCH   5   7
ATOM      7  C   UNL     1      45.237   5.020  10.534  0.00  0.00    +0.000 A 
ATOM      8  C   UNL     1      45.527   5.019   9.161  0.00  0.00    +0.000 A 
ATOM      9  C   UNL     1      45.183   3.919   8.391  0.00  0.00    +0.000 A 
ATOM     10  N   UNL     1      44.573   2.822   8.881  0.00  0.00    +0.000 NA
ATOM     11  C   UNL     1      44.303   2.827  10.202  0.00  0.00    +0.000 A 
ATOM     12  C   UNL     1      44.603   3.886  11.051  0.00  0.00    +0.000 A 
ENDBRANCH   5   7
BRANCH   1  13
ATOM     13  C   UNL     1      48.902   7.756  12.701  0.00  0.00    +0.000 C 
ATOM     14  C   UNL     1      49.836   8.127  11.549  0.00  0.00    +0.000 C 
ATOM     15  C   UNL     1      49.367   9.190  12.480  0.00  0.00    +0.000 C 
BRANCH  13  16
ATOM     16  O   UNL     1      49.574   6.893  13.652  0.00  0.00    +0.000 OA
BRANCH  16  21
ATOM     17 BR   UNL     1      48.089   6.817  19.410  0.00  0.00    +0.000 Br
ATOM     18  C   UNL     1      48.468   6.872  17.573  0.00  0.00    +0.000 A 
ATOM     19  C   UNL     1      48.815   8.039  16.937  0.00  0.00    +0.000 A 
ATOM     20  N   UNL     1      49.148   8.101  15.632  0.00  0.00    +0.000 NA
ATOM     21  C   UNL     1      49.128   6.938  14.957  0.00  0.00    +0.000 A 
ATOM     22  N   UNL     1      48.766   5.750  15.471  0.00  0.00    +0.000 NA
ATOM     23  C   UNL     1      48.444   5.747  16.782  0.00  0.00    +0.000 A 
ENDBRANCH  16  21
ENDBRANCH  13  16
ENDBRANCH   1  13
TORSDOF 4
ENDMDL
MODEL 7
REMARK VINA RESULT:    -5.623      3.932      5.803
REMARK INTER + INTRA:          -7.642
REMARK INTER:                  -6.992
REMARK INTRA:                  -0.650
REMARK UNBOUND:                -0.704
REMARK  Name = 
REMARK  4 active torsions:
REMARK  status: ('A' for Active; 'I' for Inactive)
REMARK    1  A    between atoms: C_5  and  O_6
REMARK    2  A    between atoms: O_6  and  C_7
REMARK    3  A    between atoms: C_7  and  C_8
REMARK    4  A    between atoms: C_12  and  C_13
REMARK                            x       y       z     vdW  Elec       q    Type
REMARK                         _______ _______ _______ _____ _____    ______ ____
ROOT
ATOM      1  C   UNL     1      48.218   8.014  14.146  0.00  0.00    +0.000 A 
ATOM      2  C   UNL     1      48.133   9.135  14.987  0.00  0.00    +0.000 A 
ATOM      3  C   UNL     1      48.383   9.044  16.353  0.00  0.00    +0.000 A 
ATOM      4  C   UNL     1      48.710   7.813  16.915  0.00  0.00    +0.000 A 
ATOM      5  C   UNL     1      48.813   6.658  16.122  0.00  0.00    +0.000 A 
ATOM      6  C   UNL     1      48.608   6.796  14.735  0.00  0.00    +0.000 A 
ENDROOT
BRANCH   5   7
ATOM      7  C   UNL     1      49.031   5.330  16.733  0.00  0.00    +0.000 A 
ATOM      8  C   UNL     1      48.045   4.336  16.652  0.00  0.00    +0.000 A 
ATOM      9  C   UNL     1      48.292   3.082  17.190  0.00  0.00    +0.000 A 
ATOM     10  N   UNL     1      49.444   2.744  17.802  0.00  0.00    +0.000 NA
ATOM     11  C   UNL     1      50.390   3.702  17.871  0.00  0.00    +0.000 A 
ATOM     12  C   UNL     1      50.229   4.988  17.368  0.00  0.00    +0.000 A 
ENDBRANCH   5   7
BRANCH   1  13
ATOM     13  C   UNL     1      47.799   8.114  12.689  0.00  0.00    +0.000 C 
ATOM     14  C   UNL     1      48.526   9.057  11.731  0.00  0.00    +0.000 C 
ATOM     15  C   UNL     1      48.805   7.595  11.668  0.00  0.00    +0.000 C 
BRANCH  13  16
ATOM     16  O   UNL     1      46.377   8.092  12.410  0.00  0.00    +0.000 OA
BRANCH  16  21
ATOM     17 BR   UNL     1      43.471   2.984  11.496  0.00  0.00    +0.000 Br
ATOM     18  C   UNL     1      44.471   4.548  11.773  0.00  0.00    +0.000 A 
ATOM     19  C   UNL     1      44.971   5.286  10.727  0.00  0.00    +0.000 A 
ATOM     20  N   UNL     1      45.643   6.442  10.893  0.00  0.00    +0.000 NA
ATOM     21  C   UNL     1      45.810   6.859  12.160  0.00  0.00    +0.000 A 
ATOM     22  N   UNL     1      45.399   6.194  13.254  0.00  0.00    +0.000 NA
ATOM     23  C   UNL     1      44.730   5.043  13.030  0.00  0.00    +0.000 A 
ENDBRANCH  16  21
ENDBRANCH  13  16
ENDBRANCH   1  13
TORSDOF 4
ENDMDL
MODEL 8
REMARK VINA RESULT:    -5.456      4.982      8.046
REMARK INTER + INTRA:          -7.435
REMARK INTER:                  -6.826
REMARK INTRA:                  -0.609
REMARK UNBOUND:                -0.704
REMARK  Name = 
REMARK  4 active torsions:
REMARK  status: ('A' for Active; 'I' for Inactive)
REMARK    1  A    between atoms: C_5  and  O_6
REMARK    2  A    between atoms: O_6  and  C_7
REMARK    3  A    between atoms: C_7  and  C_8
REMARK    4  A    between atoms: C_12  and  C_13
REMARK                            x       y       z     vdW  Elec       q    Type
REMARK                         _______ _______ _______ _____ _____    ______ ____
ROOT
ATOM      1  C   UNL     1      48.014   7.470  14.103  0.00  0.00    +0.000 A 
ATOM      2  C   UNL     1      47.476   8.746  13.874  0.00  0.00    +0.000 A 
ATOM      3  C   UNL     1      46.346   8.931  13.083  0.00  0.00    +0.000 A 
ATOM      4  C   UNL     1      45.735   7.833  12.484  0.00  0.00    +0.000 A 
ATOM      5  C   UNL     1      46.227   6.533  12.680  0.00  0.00    +0.000 A 
ATOM      6  C   UNL     1      47.339   6.375  13.531  0.00  0.00    +0.000 A 
ENDROOT
BRANCH   5   7
ATOM      7  C   UNL     1      45.662   5.384  11.943  0.00  0.00    +0.000 A 
ATOM      8  C   UNL     1      45.384   5.481  10.571  0.00  0.00    +0.000 A 
ATOM      9  C   UNL     1      44.899   4.374   9.892  0.00  0.00    +0.000 A 
ATOM     10  N   UNL     1      44.669   3.180  10.472  0.00  0.00    +0.000 NA
ATOM     11  C   UNL     1      44.943   3.092  11.789  0.00  0.00    +0.000 A 
ATOM     12  C   UNL     1      45.424   4.148  12.554  0.00  0.00    +0.000 A 
ENDBRANCH   5   7
BRANCH   1  13
ATOM     13  C   UNL     1      49.328   7.313  14.850  0.00  0.00    +0.000 C 
ATOM     14  C   UNL     1      50.620   7.905  14.288  0.00  0.00    +0.000 C 
ATOM     15  C   UNL     1      49.932   8.592  15.416  0.00  0.00    +0.000 C 
BRANCH  13  16
ATOM     16  O   UNL     1      49.579   6.030  15.476  0.00  0.00    +0.000 OA
BRANCH  16  21
ATOM     17 BR   UNL     1      48.490   5.140  21.255  0.00  0.00    +0.000 Br
ATOM     18  C   UNL     1      48.830   5.516  19.447  0.00  0.00    +0.000 A 
ATOM     19  C   UNL     1      50.088   5.833  18.996  0.00  0.00    +0.000 A 
ATOM     20  N   UNL     1      50.374   6.052  17.697  0.00  0.00    +0.000 NA
ATOM     21  C   UNL     1      49.348   5.944  16.833  0.00  0.00    +0.000 A 
ATOM     22  N   UNL     1      48.075   5.679  17.174  0.00  0.00    +0.000 NA
ATOM     23  C   UNL     1      47.846   5.467  18.488  0.00  0.00    +0.000 A 
ENDBRANCH  16  21
ENDBRANCH  13  16
ENDBRANCH   1  13
TORSDOF 4
ENDMDL
MODEL 9
REMARK VINA RESULT:    -5.239      3.599      5.937
REMARK INTER + INTRA:          -7.168
REMARK INTER:                  -6.554
REMARK INTRA:                  -0.614
REMARK UNBOUND:                -0.704
REMARK  Name = 
REMARK  4 active torsions:
REMARK  status: ('A' for Active; 'I' for Inactive)
REMARK    1  A    between atoms: C_5  and  O_6
REMARK    2  A    between atoms: O_6  and  C_7
REMARK    3  A    between atoms: C_7  and  C_8
REMARK    4  A    between atoms: C_12  and  C_13
REMARK                            x       y       z     vdW  Elec       q    Type
REMARK                         _______ _______ _______ _____ _____    ______ ____
ROOT
ATOM      1  C   UNL     1      48.790   8.914  12.760  0.00  0.00    +0.000 A 
ATOM      2  C   UNL     1      49.860   9.445  12.022  0.00  0.00    +0.000 A 
ATOM      3  C   UNL     1      49.684  10.507  11.140  0.00  0.00    +0.000 A 
ATOM      4  C   UNL     1      48.416  11.055  10.965  0.00  0.00    +0.000 A 
ATOM      5  C   UNL     1      47.309  10.568  11.679  0.00  0.00    +0.000 A 
ATOM      6  C   UNL     1      47.533   9.529  12.604  0.00  0.00    +0.000 A 
ENDROOT
BRANCH   5   7
ATOM      7  C   UNL     1      45.944  11.059  11.400  0.00  0.00    +0.000 A 
ATOM      8  C   UNL     1      45.744  12.210  10.624  0.00  0.00    +0.000 A 
ATOM      9  C   UNL     1      44.452  12.624  10.335  0.00  0.00    +0.000 A 
ATOM     10  N   UNL     1      43.347  11.981  10.760  0.00  0.00    +0.000 NA
ATOM     11  C   UNL     1      43.546  10.873  11.501  0.00  0.00    +0.000 A 
ATOM     12  C   UNL     1      44.802  10.387  11.847  0.00  0.00    +0.000 A 
ENDBRANCH   5   7
BRANCH   1  13
ATOM     13  C   UNL     1      48.984   7.665  13.603  0.00  0.00    +0.000 C 
ATOM     14  C   UNL     1      50.043   7.622  14.703  0.00  0.00    +0.000 C 
ATOM     15  C   UNL     1      48.611   7.788  15.076  0.00  0.00    +0.000 C 
BRANCH  13  16
ATOM     16  O   UNL     1      48.901   6.390  12.918  0.00  0.00    +0.000 OA
BRANCH  16  21
ATOM     17 BR   UNL     1      43.731   3.497  12.392  0.00  0.00    +0.000 Br
ATOM     18  C   UNL     1      45.324   4.462  12.630  0.00  0.00    +0.000 A 
ATOM     19  C   UNL     1      46.236   4.129  13.603  0.00  0.00    +0.000 A 
ATOM     20  N   UNL     1      47.413   4.767  13.762  0.00  0.00    +0.000 NA
ATOM     21  C   UNL     1      47.669   5.770  12.903  0.00  0.00    +0.000 A 
ATOM     22  N   UNL     1      46.830   6.201  11.945  0.00  0.00    +0.000 NA
ATOM     23  C   UNL     1      45.666   5.526  11.830  0.00  0.00    +0.000 A 
ENDBRANCH  16  21
ENDBRANCH  13  16
ENDBRANCH   1  13
TORSDOF 4
ENDMDL
