MODEL 1
REMARK VINA RESULT:    -8.295      0.000      0.000
REMARK INTER + INTRA:         -12.606
REMARK INTER:                 -11.690
REMARK INTRA:                  -0.917
REMARK UNBOUND:                -0.917
REMARK  Name = 
REMARK  8 active torsions:
REMARK  status: ('A' for Active; 'I' for Inactive)
REMARK    1  A    between atoms: C_1  and  C_2
REMARK    2  A    between atoms: C_2  and  N_3
REMARK    3  A    between atoms: N_3  and  C_4
REMARK    4  A    between atoms: C_4  and  C_5
REMARK    5  A    between atoms: C_8  and  C_9
REMARK    6  A    between atoms: C_9  and  N_10
REMARK    7  A    between atoms: C_11  and  C_13
REMARK    8  A    between atoms: C_25  and  C_27
REMARK                            x       y       z     vdW  Elec       q    Type
REMARK                         _______ _______ _______ _____ _____    ______ ____
ROOT
ATOM      1  C   UNL     1      46.505   4.176  13.015  0.00  0.00    +0.000 A 
ATOM      2  C   UNL     1      47.025   5.435  12.702  0.00  0.00    +0.000 A 
ATOM      3  C   UNL     1      47.699   6.153  13.684  0.00  0.00    +0.000 A 
ATOM      4  C   UNL     1      47.836   5.609  14.961  0.00  0.00    +0.000 A 
ATOM      5  C   UNL     1      47.374   4.312  15.154  0.00  0.00    +0.000 A 
ATOM      6  N   UNL     1      46.712   3.591  14.219  0.00  0.00    +0.000 NA
ENDROOT
BRANCH   1   7
ATOM      7  C   UNL     1      45.465   3.557  12.106  0.00  0.00    +0.000 C 
BRANCH   7   8
ATOM      8  N   UNL     1      44.464   4.360  11.403  0.00  0.00    +0.000 N 
ATOM      9  C   UNL     1      44.318   4.353  10.000  0.00  0.00    +0.000 C 
ATOM     10  O   UNL     1      43.515   5.103   9.439  0.00  0.00    +0.000 OA
BRANCH   9  11
ATOM     11  C   UNL     1      45.132   3.463   9.100  0.00  0.00    +0.000 A 
ATOM     12  C   UNL     1      45.114   2.063   9.126  0.00  0.00    +0.000 A 
ATOM     13  C   UNL     1      45.922   1.315   8.262  0.00  0.00    +0.000 A 
ATOM     14  C   UNL     1      46.698   1.953   7.301  0.00  0.00    +0.000 A 
ATOM     15  C   UNL     1      46.665   3.341   7.203  0.00  0.00    +0.000 A 
ATOM     16  C   UNL     1      45.895   4.090   8.100  0.00  0.00    +0.000 A 
ENDBRANCH   9  11
BRANCH   8  18
ATOM     17  C   UNL     1      42.931   4.587  13.363  0.00  0.00    +0.000 C 
ATOM     18  C   UNL     1      43.576   5.252  12.155  0.00  0.00    +0.000 C 
ENDBRANCH   8  18
ENDBRANCH   7   8
ENDBRANCH   1   7
BRANCH   4  19
ATOM     19  C   UNL     1      48.464   6.384  16.078  0.00  0.00    +0.000 C 
BRANCH  19  20
ATOM     20  N   UNL     1      49.634   5.716  16.572  0.00  0.00    +0.000 N 
ATOM     21  C   UNL     1      49.609   5.015  17.750  0.00  0.00    +0.000 C 
ATOM     22  O   UNL     1      48.580   4.881  18.406  0.00  0.00    +0.000 OA
ATOM     23  H   UNL     1      50.527   6.007  16.188  0.00  0.00    +0.000 HD
BRANCH  21  24
ATOM     24  C   UNL     1      50.868   4.378  18.150  0.00  0.00    +0.000 A 
ATOM     25  C   UNL     1      51.788   5.091  18.905  0.00  0.00    +0.000 A 
ATOM     26  S   UNL     1      53.164   4.180  19.340  0.00  0.00    +0.000 S 
ATOM     27  C   UNL     1      52.598   2.818  18.487  0.00  0.00    +0.000 A 
ATOM     28  N   UNL     1      53.329   1.669  18.444  0.00  0.00    +0.000 NA
ATOM     29  C   UNL     1      52.796   0.727  17.745  0.00  0.00    +0.000 A 
ATOM     30  N   UNL     1      51.596   0.822  17.087  0.00  0.00    +0.000 N 
ATOM     31  C   UNL     1      50.817   1.955  17.117  0.00  0.00    +0.000 A 
ATOM     32  O   UNL     1      49.735   2.000  16.534  0.00  0.00    +0.000 OA
ATOM     33  C   UNL     1      51.373   3.050  17.891  0.00  0.00    +0.000 A 
ATOM     34  H   UNL     1      51.236   0.043  16.557  0.00  0.00    +0.000 HD
ENDBRANCH  21  24
ENDBRANCH  19  20
ENDBRANCH   4  19
TORSDOF 7
ENDMDL
MODEL 2
REMARK VINA RESULT:    -8.192      2.540      3.215
REMARK INTER + INTRA:         -12.461
REMARK INTER:                 -11.724
REMARK INTRA:                  -0.737
REMARK UNBOUND:                -0.917
REMARK  Name = 
REMARK  8 active torsions:
REMARK  status: ('A' for Active; 'I' for Inactive)
REMARK    1  A    between atoms: C_1  and  C_2
REMARK    2  A    between atoms: C_2  and  N_3
REMARK    3  A    between atoms: N_3  and  C_4
REMARK    4  A    between atoms: C_4  and  C_5
REMARK    5  A    between atoms: C_8  and  C_9
REMARK    6  A    between atoms: C_9  and  N_10
REMARK    7  A    between atoms: C_11  and  C_13
REMARK    8  A    between atoms: C_25  and  C_27
REMARK                            x       y       z     vdW  Elec       q    Type
REMARK                         _______ _______ _______ _____ _____    ______ ____
ROOT
ATOM      1  C   UNL     1      45.850   6.679  11.086  0.00  0.00    +0.000 A 
ATOM      2  C   UNL     1      45.256   7.830  11.612  0.00  0.00    +0.000 A 
ATOM      3  C   UNL     1      45.879   8.494  12.664  0.00  0.00    +0.000 A 
ATOM      4  C   UNL     1      47.077   7.996  13.176  0.00  0.00    +0.000 A 
ATOM      5  C   UNL     1      47.644   6.905  12.529  0.00  0.00    +0.000 A 
ATOM      6  N   UNL     1      47.060   6.238  11.506  0.00  0.00    +0.000 NA
ENDROOT
BRANCH   1   7
ATOM      7  C   UNL     1      45.025   5.746  10.225  0.00  0.00    +0.000 C 
BRANCH   7   8
ATOM      8  N   UNL     1      44.359   4.563  10.771  0.00  0.00    +0.000 N 
ATOM      9  C   UNL     1      44.433   3.291  10.166  0.00  0.00    +0.000 C 
ATOM     10  O   UNL     1      43.794   2.335  10.613  0.00  0.00    +0.000 OA
BRANCH   9  11
ATOM     11  C   UNL     1      45.263   3.017   8.942  0.00  0.00    +0.000 A 
ATOM     12  C   UNL     1      45.667   3.984   8.013  0.00  0.00    +0.000 A 
ATOM     13  C   UNL     1      46.424   3.634   6.889  0.00  0.00    +0.000 A 
ATOM     14  C   UNL     1      46.858   2.324   6.718  0.00  0.00    +0.000 A 
ATOM     15  C   UNL     1      46.538   1.364   7.674  0.00  0.00    +0.000 A 
ATOM     16  C   UNL     1      45.741   1.706   8.772  0.00  0.00    +0.000 A 
ENDBRANCH   9  11
BRANCH   8  18
ATOM     17  C   UNL     1      42.313   5.556  11.805  0.00  0.00    +0.000 C 
ATOM     18  C   UNL     1      43.540   4.673  11.982  0.00  0.00    +0.000 C 
ENDBRANCH   8  18
ENDBRANCH   7   8
ENDBRANCH   1   7
BRANCH   4  19
ATOM     19  C   UNL     1      47.733   8.617  14.371  0.00  0.00    +0.000 C 
BRANCH  19  20
ATOM     20  N   UNL     1      47.973   7.637  15.392  0.00  0.00    +0.000 N 
ATOM     21  C   UNL     1      49.221   7.105  15.588  0.00  0.00    +0.000 C 
ATOM     22  O   UNL     1      50.196   7.478  14.941  0.00  0.00    +0.000 OA
ATOM     23  H   UNL     1      47.164   7.150  15.763  0.00  0.00    +0.000 HD
BRANCH  21  24
ATOM     24  C   UNL     1      49.340   6.113  16.660  0.00  0.00    +0.000 A 
ATOM     25  C   UNL     1      50.323   6.262  17.628  0.00  0.00    +0.000 A 
ATOM     26  S   UNL     1      50.278   5.058  18.837  0.00  0.00    +0.000 S 
ATOM     27  C   UNL     1      48.975   4.267  18.077  0.00  0.00    +0.000 A 
ATOM     28  N   UNL     1      48.447   3.127  18.603  0.00  0.00    +0.000 NA
ATOM     29  C   UNL     1      47.483   2.621  17.915  0.00  0.00    +0.000 A 
ATOM     30  N   UNL     1      46.991   3.149  16.748  0.00  0.00    +0.000 N 
ATOM     31  C   UNL     1      47.481   4.305  16.188  0.00  0.00    +0.000 A 
ATOM     32  O   UNL     1      47.002   4.765  15.153  0.00  0.00    +0.000 OA
ATOM     33  C   UNL     1      48.571   4.918  16.925  0.00  0.00    +0.000 A 
ATOM     34  H   UNL     1      46.233   2.700  16.259  0.00  0.00    +0.000 HD
ENDBRANCH  21  24
ENDBRANCH  19  20
ENDBRANCH   4  19
TORSDOF 7
ENDMDL
MODEL 3
REMARK VINA RESULT:    -7.947      3.464      4.286
REMARK INTER + INTRA:         -12.116
REMARK INTER:                 -11.549
REMARK INTRA:                  -0.567
REMARK UNBOUND:                -0.917
REMARK  Name = 
REMARK  8 active torsions:
REMARK  status: ('A' for Active; 'I' for Inactive)
REMARK    1  A    between atoms: C_1  and  C_2
REMARK    2  A    between atoms: C_2  and  N_3
REMARK    3  A    between atoms: N_3  and  C_4
REMARK    4  A    between atoms: C_4  and  C_5
REMARK    5  A    between atoms: C_8  and  C_9
REMARK    6  A    between atoms: C_9  and  N_10
REMARK    7  A    between atoms: C_11  and  C_13
REMARK    8  A    between atoms: C_25  and  C_27
REMARK                            x       y       z     vdW  Elec       q    Type
REMARK                         _______ _______ _______ _____ _____    ______ ____
ROOT
ATOM      1  C   UNL     1      45.866   6.296  11.785  0.00  0.00    +0.000 A 
ATOM      2  C   UNL     1      46.994   5.889  12.504  0.00  0.00    +0.000 A 
ATOM      3  C   UNL     1      47.670   6.820  13.286  0.00  0.00    +0.000 A 
ATOM      4  C   UNL     1      47.216   8.137  13.332  0.00  0.00    +0.000 A 
ATOM      5  C   UNL     1      46.032   8.428  12.665  0.00  0.00    +0.000 A 
ATOM      6  N   UNL     1      45.354   7.545  11.895  0.00  0.00    +0.000 NA
ENDROOT
BRANCH   1   7
ATOM      7  C   UNL     1      45.352   5.426  10.657  0.00  0.00    +0.000 C 
BRANCH   7   8
ATOM      8  N   UNL     1      44.465   4.286  10.892  0.00  0.00    +0.000 N 
ATOM      9  C   UNL     1      44.423   3.156  10.048  0.00  0.00    +0.000 C 
ATOM     10  O   UNL     1      43.606   2.251  10.235  0.00  0.00    +0.000 OA
BRANCH   9  11
ATOM     11  C   UNL     1      45.338   2.988   8.865  0.00  0.00    +0.000 A 
ATOM     12  C   UNL     1      45.765   4.025   8.027  0.00  0.00    +0.000 A 
ATOM     13  C   UNL     1      46.603   3.772   6.935  0.00  0.00    +0.000 A 
ATOM     14  C   UNL     1      47.095   2.491   6.712  0.00  0.00    +0.000 A 
ATOM     15  C   UNL     1      46.750   1.462   7.584  0.00  0.00    +0.000 A 
ATOM     16  C   UNL     1      45.873   1.707   8.646  0.00  0.00    +0.000 A 
ENDBRANCH   9  11
BRANCH   8  18
ATOM     17  C   UNL     1      42.429   5.329  11.895  0.00  0.00    +0.000 C 
ATOM     18  C   UNL     1      43.539   4.296  12.028  0.00  0.00    +0.000 C 
ENDBRANCH   8  18
ENDBRANCH   7   8
ENDBRANCH   1   7
BRANCH   4  19
ATOM     19  C   UNL     1      47.966   9.197  14.079  0.00  0.00    +0.000 C 
BRANCH  19  20
ATOM     20  N   UNL     1      47.703   9.118  15.487  0.00  0.00    +0.000 N 
ATOM     21  C   UNL     1      48.602   8.542  16.347  0.00  0.00    +0.000 C 
ATOM     22  O   UNL     1      49.690   8.119  15.965  0.00  0.00    +0.000 OA
ATOM     23  H   UNL     1      46.740   9.234  15.783  0.00  0.00    +0.000 HD
BRANCH  21  24
ATOM     24  C   UNL     1      48.220   8.520  17.762  0.00  0.00    +0.000 A 
ATOM     25  C   UNL     1      48.011   9.714  18.436  0.00  0.00    +0.000 A 
ATOM     26  S   UNL     1      47.506   9.507  20.053  0.00  0.00    +0.000 S 
ATOM     27  C   UNL     1      47.603   7.811  19.921  0.00  0.00    +0.000 A 
ATOM     28  N   UNL     1      47.307   7.011  20.983  0.00  0.00    +0.000 NA
ATOM     29  C   UNL     1      47.444   5.750  20.753  0.00  0.00    +0.000 A 
ATOM     30  N   UNL     1      47.846   5.211  19.557  0.00  0.00    +0.000 N 
ATOM     31  C   UNL     1      48.138   5.978  18.454  0.00  0.00    +0.000 A 
ATOM     32  O   UNL     1      48.474   5.462  17.389  0.00  0.00    +0.000 OA
ATOM     33  C   UNL     1      48.000   7.409  18.660  0.00  0.00    +0.000 A 
ATOM     34  H   UNL     1      47.932   4.213  19.446  0.00  0.00    +0.000 HD
ENDBRANCH  21  24
ENDBRANCH  19  20
ENDBRANCH   4  19
TORSDOF 7
ENDMDL
MODEL 4
REMARK VINA RESULT:    -7.695      3.659      8.859
REMARK INTER + INTRA:         -11.761
REMARK INTER:                  -9.956
REMARK INTRA:                  -1.805
REMARK UNBOUND:                -0.917
REMARK  Name = 
REMARK  8 active torsions:
REMARK  status: ('A' for Active; 'I' for Inactive)
REMARK    1  A    between atoms: C_1  and  C_2
REMARK    2  A    between atoms: C_2  and  N_3
REMARK    3  A    between atoms: N_3  and  C_4
REMARK    4  A    between atoms: C_4  and  C_5
REMARK    5  A    between atoms: C_8  and  C_9
REMARK    6  A    between atoms: C_9  and  N_10
REMARK    7  A    between atoms: C_11  and  C_13
REMARK    8  A    between atoms: C_25  and  C_27
REMARK                            x       y       z     vdW  Elec       q    Type
REMARK                         _______ _______ _______ _____ _____    ______ ____
ROOT
ATOM      1  C   UNL     1      49.018   7.883  16.053  0.00  0.00    +0.000 A 
ATOM      2  C   UNL     1      49.471   6.898  15.170  0.00  0.00    +0.000 A 
ATOM      3  C   UNL     1      48.999   6.895  13.861  0.00  0.00    +0.000 A 
ATOM      4  C   UNL     1      48.082   7.865  13.459  0.00  0.00    +0.000 A 
ATOM      5  C   UNL     1      47.764   8.861  14.374  0.00  0.00    +0.000 A 
ATOM      6  N   UNL     1      48.205   8.889  15.654  0.00  0.00    +0.000 NA
ENDROOT
BRANCH   1   7
ATOM      7  C   UNL     1      49.212   7.687  17.542  0.00  0.00    +0.000 C 
BRANCH   7   8
ATOM      8  N   UNL     1      48.096   7.401  18.444  0.00  0.00    +0.000 N 
ATOM      9  C   UNL     1      47.560   6.108  18.620  0.00  0.00    +0.000 C 
ATOM     10  O   UNL     1      46.568   5.921  19.330  0.00  0.00    +0.000 OA
BRANCH   9  11
ATOM     11  C   UNL     1      48.132   4.890  17.948  0.00  0.00    +0.000 A 
ATOM     12  C   UNL     1      49.325   4.257  18.316  0.00  0.00    +0.000 A 
ATOM     13  C   UNL     1      49.793   3.136  17.620  0.00  0.00    +0.000 A 
ATOM     14  C   UNL     1      49.033   2.581  16.596  0.00  0.00    +0.000 A 
ATOM     15  C   UNL     1      47.803   3.145  16.271  0.00  0.00    +0.000 A 
ATOM     16  C   UNL     1      47.360   4.295  16.935  0.00  0.00    +0.000 A 
ENDBRANCH   9  11
BRANCH   8  18
ATOM     17  C   UNL     1      48.159   9.829  19.030  0.00  0.00    +0.000 C 
ATOM     18  C   UNL     1      47.457   8.489  19.192  0.00  0.00    +0.000 C 
ENDBRANCH   8  18
ENDBRANCH   7   8
ENDBRANCH   1   7
BRANCH   4  19
ATOM     19  C   UNL     1      47.470   7.843  12.092  0.00  0.00    +0.000 C 
BRANCH  19  20
ATOM     20  N   UNL     1      46.813   6.591  11.843  0.00  0.00    +0.000 N 
ATOM     21  C   UNL     1      45.446   6.499  11.817  0.00  0.00    +0.000 C 
ATOM     22  O   UNL     1      44.724   7.483  11.951  0.00  0.00    +0.000 OA
ATOM     23  H   UNL     1      47.365   5.749  11.969  0.00  0.00    +0.000 HD
BRANCH  21  24
ATOM     24  C   UNL     1      44.894   5.166  11.554  0.00  0.00    +0.000 A 
ATOM     25  C   UNL     1      44.201   4.501  12.555  0.00  0.00    +0.000 A 
ATOM     26  S   UNL     1      43.568   2.995  12.060  0.00  0.00    +0.000 S 
ATOM     27  C   UNL     1      44.246   3.160  10.506  0.00  0.00    +0.000 A 
ATOM     28  N   UNL     1      44.086   2.185   9.568  0.00  0.00    +0.000 NA
ATOM     29  C   UNL     1      44.670   2.427   8.445  0.00  0.00    +0.000 A 
ATOM     30  N   UNL     1      45.397   3.557   8.168  0.00  0.00    +0.000 N 
ATOM     31  C   UNL     1      45.571   4.574   9.077  0.00  0.00    +0.000 A 
ATOM     32  O   UNL     1      46.210   5.585   8.789  0.00  0.00    +0.000 OA
ATOM     33  C   UNL     1      44.933   4.351  10.362  0.00  0.00    +0.000 A 
ATOM     34  H   UNL     1      45.828   3.683   7.266  0.00  0.00    +0.000 HD
ENDBRANCH  21  24
ENDBRANCH  19  20
ENDBRANCH   4  19
TORSDOF 7
ENDMDL
MODEL 5
REMARK VINA RESULT:    -7.499      3.744      8.819
REMARK INTER + INTRA:         -11.484
REMARK INTER:                  -9.996
REMARK INTRA:                  -1.489
REMARK UNBOUND:                -0.917
REMARK  Name = 
REMARK  8 active torsions:
REMARK  status: ('A' for Active; 'I' for Inactive)
REMARK    1  A    between atoms: C_1  and  C_2
REMARK    2  A    between atoms: C_2  and  N_3
REMARK    3  A    between atoms: N_3  and  C_4
REMARK    4  A    between atoms: C_4  and  C_5
REMARK    5  A    between atoms: C_8  and  C_9
REMARK    6  A    between atoms: C_9  and  N_10
REMARK    7  A    between atoms: C_11  and  C_13
REMARK    8  A    between atoms: C_25  and  C_27
REMARK                            x       y       z     vdW  Elec       q    Type
REMARK                         _______ _______ _______ _____ _____    ______ ____
ROOT
ATOM      1  C   UNL     1      49.136   7.506  16.157  0.00  0.00    +0.000 A 
ATOM      2  C   UNL     1      48.446   8.672  15.812  0.00  0.00    +0.000 A 
ATOM      3  C   UNL     1      48.117   8.894  14.479  0.00  0.00    +0.000 A 
ATOM      4  C   UNL     1      48.486   7.956  13.515  0.00  0.00    +0.000 A 
ATOM      5  C   UNL     1      49.081   6.782  13.961  0.00  0.00    +0.000 A 
ATOM      6  N   UNL     1      49.416   6.540  15.250  0.00  0.00    +0.000 NA
ENDROOT
BRANCH   1   7
ATOM      7  C   UNL     1      49.825   7.423  17.503  0.00  0.00    +0.000 C 
BRANCH   7   8
ATOM      8  N   UNL     1      49.087   7.201  18.746  0.00  0.00    +0.000 N 
ATOM      9  C   UNL     1      48.528   5.954  19.097  0.00  0.00    +0.000 C 
ATOM     10  O   UNL     1      47.846   5.826  20.117  0.00  0.00    +0.000 OA
BRANCH   9  11
ATOM     11  C   UNL     1      48.700   4.718  18.257  0.00  0.00    +0.000 A 
ATOM     12  C   UNL     1      49.842   3.907  18.247  0.00  0.00    +0.000 A 
ATOM     13  C   UNL     1      49.921   2.783  17.416  0.00  0.00    +0.000 A 
ATOM     14  C   UNL     1      48.829   2.405  16.644  0.00  0.00    +0.000 A 
ATOM     15  C   UNL     1      47.654   3.149  16.704  0.00  0.00    +0.000 A 
ATOM     16  C   UNL     1      47.593   4.300  17.498  0.00  0.00    +0.000 A 
ENDBRANCH   9  11
BRANCH   8  18
ATOM     17  C   UNL     1      47.617   9.120  19.376  0.00  0.00    +0.000 C 
ATOM     18  C   UNL     1      48.869   8.310  19.680  0.00  0.00    +0.000 C 
ENDBRANCH   8  18
ENDBRANCH   7   8
ENDBRANCH   1   7
BRANCH   4  19
ATOM     19  C   UNL     1      48.243   8.198  12.057  0.00  0.00    +0.000 C 
BRANCH  19  20
ATOM     20  N   UNL     1      47.565   7.084  11.457  0.00  0.00    +0.000 N 
ATOM     21  C   UNL     1      46.197   7.005  11.450  0.00  0.00    +0.000 C 
ATOM     22  O   UNL     1      45.490   7.901  11.904  0.00  0.00    +0.000 OA
ATOM     23  H   UNL     1      48.110   6.243  11.300  0.00  0.00    +0.000 HD
BRANCH  21  24
ATOM     24  C   UNL     1      45.621   5.818  10.809  0.00  0.00    +0.000 A 
ATOM     25  C   UNL     1      45.828   5.601   9.455  0.00  0.00    +0.000 A 
ATOM     26  S   UNL     1      45.148   4.143   8.886  0.00  0.00    +0.000 S 
ATOM     27  C   UNL     1      44.508   3.780  10.423  0.00  0.00    +0.000 A 
ATOM     28  N   UNL     1      43.782   2.645  10.626  0.00  0.00    +0.000 NA
ATOM     29  C   UNL     1      43.338   2.506  11.827  0.00  0.00    +0.000 A 
ATOM     30  N   UNL     1      43.554   3.395  12.850  0.00  0.00    +0.000 N 
ATOM     31  C   UNL     1      44.295   4.543  12.696  0.00  0.00    +0.000 A 
ATOM     32  O   UNL     1      44.490   5.308  13.640  0.00  0.00    +0.000 OA
ATOM     33  C   UNL     1      44.819   4.749  11.358  0.00  0.00    +0.000 A 
ATOM     34  H   UNL     1      43.177   3.224  13.769  0.00  0.00    +0.000 HD
ENDBRANCH  21  24
ENDBRANCH  19  20
ENDBRANCH   4  19
TORSDOF 7
ENDMDL
MODEL 6
REMARK VINA RESULT:    -7.102      3.881      9.485
REMARK INTER + INTRA:         -10.926
REMARK INTER:                  -9.002
REMARK INTRA:                  -1.924
REMARK UNBOUND:                -0.917
REMARK  Name = 
REMARK  8 active torsions:
REMARK  status: ('A' for Active; 'I' for Inactive)
REMARK    1  A    between atoms: C_1  and  C_2
REMARK    2  A    between atoms: C_2  and  N_3
REMARK    3  A    between atoms: N_3  and  C_4
REMARK    4  A    between atoms: C_4  and  C_5
REMARK    5  A    between atoms: C_8  and  C_9
REMARK    6  A    between atoms: C_9  and  N_10
REMARK    7  A    between atoms: C_11  and  C_13
REMARK    8  A    between atoms: C_25  and  C_27
REMARK                            x       y       z     vdW  Elec       q    Type
REMARK                         _______ _______ _______ _____ _____    ______ ____
ROOT
ATOM      1  C   UNL     1      49.169   5.466  19.708  0.00  0.00    +0.000 A 
ATOM      2  C   UNL     1      47.873   5.826  19.327  0.00  0.00    +0.000 A 
ATOM      3  C   UNL     1      47.267   5.155  18.270  0.00  0.00    +0.000 A 
ATOM      4  C   UNL     1      47.964   4.144  17.609  0.00  0.00    +0.000 A 
ATOM      5  C   UNL     1      49.207   3.787  18.118  0.00  0.00    +0.000 A 
ATOM      6  N   UNL     1      49.822   4.423  19.142  0.00  0.00    +0.000 NA
ENDROOT
BRANCH   1   7
ATOM      7  C   UNL     1      49.975   6.409  20.576  0.00  0.00    +0.000 C 
BRANCH   7   8
ATOM      8  N   UNL     1      51.332   6.827  20.224  0.00  0.00    +0.000 N 
ATOM      9  C   UNL     1      51.653   7.447  18.998  0.00  0.00    +0.000 C 
ATOM     10  O   UNL     1      52.822   7.714  18.706  0.00  0.00    +0.000 OA
BRANCH   9  11
ATOM     11  C   UNL     1      50.617   7.799  17.967  0.00  0.00    +0.000 A 
ATOM     12  C   UNL     1      50.363   7.066  16.801  0.00  0.00    +0.000 A 
ATOM     13  C   UNL     1      49.389   7.480  15.885  0.00  0.00    +0.000 A 
ATOM     14  C   UNL     1      48.596   8.588  16.160  0.00  0.00    +0.000 A 
ATOM     15  C   UNL     1      48.775   9.282  17.353  0.00  0.00    +0.000 A 
ATOM     16  C   UNL     1      49.782   8.896  18.245  0.00  0.00    +0.000 A 
ENDBRANCH   9  11
BRANCH   8  18
ATOM     17  C   UNL     1      52.782   5.102  21.303  0.00  0.00    +0.000 C 
ATOM     18  C   UNL     1      52.442   6.578  21.149  0.00  0.00    +0.000 C 
ENDBRANCH   8  18
ENDBRANCH   7   8
ENDBRANCH   1   7
BRANCH   4  19
ATOM     19  C   UNL     1      47.394   3.461  16.404  0.00  0.00    +0.000 C 
BRANCH  19  20
ATOM     20  N   UNL     1      46.727   4.401  15.548  0.00  0.00    +0.000 N 
ATOM     21  C   UNL     1      46.840   4.326  14.184  0.00  0.00    +0.000 C 
ATOM     22  O   UNL     1      47.468   3.427  13.632  0.00  0.00    +0.000 OA
ATOM     23  H   UNL     1      46.414   5.268  15.972  0.00  0.00    +0.000 HD
BRANCH  21  24
ATOM     24  C   UNL     1      46.113   5.343  13.418  0.00  0.00    +0.000 A 
ATOM     25  C   UNL     1      46.664   6.605  13.258  0.00  0.00    +0.000 A 
ATOM     26  S   UNL     1      45.721   7.643  12.284  0.00  0.00    +0.000 S 
ATOM     27  C   UNL     1      44.517   6.453  12.089  0.00  0.00    +0.000 A 
ATOM     28  N   UNL     1      43.398   6.707  11.357  0.00  0.00    +0.000 NA
ATOM     29  C   UNL     1      42.560   5.729  11.310  0.00  0.00    +0.000 A 
ATOM     30  N   UNL     1      42.737   4.515  11.926  0.00  0.00    +0.000 N 
ATOM     31  C   UNL     1      43.858   4.209  12.660  0.00  0.00    +0.000 A 
ATOM     32  O   UNL     1      43.997   3.102  13.180  0.00  0.00    +0.000 OA
ATOM     33  C   UNL     1      44.836   5.278  12.745  0.00  0.00    +0.000 A 
ATOM     34  H   UNL     1      42.039   3.792  11.848  0.00  0.00    +0.000 HD
ENDBRANCH  21  24
ENDBRANCH  19  20
ENDBRANCH   4  19
TORSDOF 7
ENDMDL
MODEL 7
REMARK VINA RESULT:    -7.087      3.837      9.041
REMARK INTER + INTRA:         -10.904
REMARK INTER:                  -8.813
REMARK INTRA:                  -2.092
REMARK UNBOUND:                -0.917
REMARK  Name = 
REMARK  8 active torsions:
REMARK  status: ('A' for Active; 'I' for Inactive)
REMARK    1  A    between atoms: C_1  and  C_2
REMARK    2  A    between atoms: C_2  and  N_3
REMARK    3  A    between atoms: N_3  and  C_4
REMARK    4  A    between atoms: C_4  and  C_5
REMARK    5  A    between atoms: C_8  and  C_9
REMARK    6  A    between atoms: C_9  and  N_10
REMARK    7  A    between atoms: C_11  and  C_13
REMARK    8  A    between atoms: C_25  and  C_27
REMARK                            x       y       z     vdW  Elec       q    Type
REMARK                         _______ _______ _______ _____ _____    ______ ____
ROOT
ATOM      1  C   UNL     1      50.567   7.016  17.966  0.00  0.00    +0.000 A 
ATOM      2  C   UNL     1      50.985   6.616  16.694  0.00  0.00    +0.000 A 
ATOM      3  C   UNL     1      50.328   7.119  15.576  0.00  0.00    +0.000 A 
ATOM      4  C   UNL     1      49.263   8.004  15.745  0.00  0.00    +0.000 A 
ATOM      5  C   UNL     1      48.980   8.421  17.041  0.00  0.00    +0.000 A 
ATOM      6  N   UNL     1      49.601   7.947  18.147  0.00  0.00    +0.000 NA
ENDROOT
BRANCH   1   7
ATOM      7  C   UNL     1      50.999   6.212  19.175  0.00  0.00    +0.000 C 
BRANCH   7   8
ATOM      8  N   UNL     1      50.074   5.864  20.253  0.00  0.00    +0.000 N 
ATOM      9  C   UNL     1      48.951   5.031  20.067  0.00  0.00    +0.000 C 
ATOM     10  O   UNL     1      48.151   4.825  20.983  0.00  0.00    +0.000 OA
BRANCH   9  11
ATOM     11  C   UNL     1      48.641   4.363  18.755  0.00  0.00    +0.000 A 
ATOM     12  C   UNL     1      49.251   3.194  18.285  0.00  0.00    +0.000 A 
ATOM     13  C   UNL     1      48.912   2.653  17.039  0.00  0.00    +0.000 A 
ATOM     14  C   UNL     1      47.898   3.226  16.280  0.00  0.00    +0.000 A 
ATOM     15  C   UNL     1      47.221   4.340  16.767  0.00  0.00    +0.000 A 
ATOM     16  C   UNL     1      47.594   4.908  17.991  0.00  0.00    +0.000 A 
ENDBRANCH   9  11
BRANCH   8  18
ATOM     17  C   UNL     1      51.170   7.644  21.622  0.00  0.00    +0.000 C 
ATOM     18  C   UNL     1      50.270   6.417  21.597  0.00  0.00    +0.000 C 
ENDBRANCH   8  18
ENDBRANCH   7   8
ENDBRANCH   1   7
BRANCH   4  19
ATOM     19  C   UNL     1      48.461   8.494  14.580  0.00  0.00    +0.000 C 
BRANCH  19  20
ATOM     20  N   UNL     1      47.476   7.525  14.190  0.00  0.00    +0.000 N 
ATOM     21  C   UNL     1      47.704   6.656  13.154  0.00  0.00    +0.000 C 
ATOM     22  O   UNL     1      48.774   6.629  12.551  0.00  0.00    +0.000 OA
ATOM     23  H   UNL     1      46.524   7.685  14.501  0.00  0.00    +0.000 HD
BRANCH  21  24
ATOM     24  C   UNL     1      46.622   5.715  12.850  0.00  0.00    +0.000 A 
ATOM     25  C   UNL     1      46.799   4.362  13.103  0.00  0.00    +0.000 A 
ATOM     26  S   UNL     1      45.420   3.418  12.756  0.00  0.00    +0.000 S 
ATOM     27  C   UNL     1      44.559   4.781  12.205  0.00  0.00    +0.000 A 
ATOM     28  N   UNL     1      43.284   4.661  11.741  0.00  0.00    +0.000 NA
ATOM     29  C   UNL     1      42.760   5.766  11.335  0.00  0.00    +0.000 A 
ATOM     30  N   UNL     1      43.390   6.985  11.352  0.00  0.00    +0.000 N 
ATOM     31  C   UNL     1      44.669   7.157  11.827  0.00  0.00    +0.000 A 
ATOM     32  O   UNL     1      45.196   8.268  11.850  0.00  0.00    +0.000 OA
ATOM     33  C   UNL     1      45.307   5.941  12.298  0.00  0.00    +0.000 A 
ATOM     34  H   UNL     1      42.919   7.812  11.019  0.00  0.00    +0.000 HD
ENDBRANCH  21  24
ENDBRANCH  19  20
ENDBRANCH   4  19
TORSDOF 7
ENDMDL
MODEL 8
REMARK VINA RESULT:    -7.041      3.835      9.941
REMARK INTER + INTRA:         -10.839
REMARK INTER:                  -9.155
REMARK INTRA:                  -1.684
REMARK UNBOUND:                -0.917
REMARK  Name = 
REMARK  8 active torsions:
REMARK  status: ('A' for Active; 'I' for Inactive)
REMARK    1  A    between atoms: C_1  and  C_2
REMARK    2  A    between atoms: C_2  and  N_3
REMARK    3  A    between atoms: N_3  and  C_4
REMARK    4  A    between atoms: C_4  and  C_5
REMARK    5  A    between atoms: C_8  and  C_9
REMARK    6  A    between atoms: C_9  and  N_10
REMARK    7  A    between atoms: C_11  and  C_13
REMARK    8  A    between atoms: C_25  and  C_27
REMARK                            x       y       z     vdW  Elec       q    Type
REMARK                         _______ _______ _______ _____ _____    ______ ____
ROOT
ATOM      1  C   UNL     1      51.080   5.099  17.647  0.00  0.00    +0.000 A 
ATOM      2  C   UNL     1      50.701   3.815  18.050  0.00  0.00    +0.000 A 
ATOM      3  C   UNL     1      49.454   3.328  17.672  0.00  0.00    +0.000 A 
ATOM      4  C   UNL     1      48.606   4.129  16.907  0.00  0.00    +0.000 A 
ATOM      5  C   UNL     1      49.105   5.351  16.471  0.00  0.00    +0.000 A 
ATOM      6  N   UNL     1      50.312   5.852  16.824  0.00  0.00    +0.000 NA
ENDROOT
BRANCH   1   7
ATOM      7  C   UNL     1      52.237   5.783  18.345  0.00  0.00    +0.000 C 
BRANCH   7   8
ATOM      8  N   UNL     1      52.156   7.165  18.819  0.00  0.00    +0.000 N 
ATOM      9  C   UNL     1      51.172   7.611  19.727  0.00  0.00    +0.000 C 
ATOM     10  O   UNL     1      51.090   8.801  20.042  0.00  0.00    +0.000 OA
BRANCH   9  11
ATOM     11  C   UNL     1      50.156   6.690  20.346  0.00  0.00    +0.000 A 
ATOM     12  C   UNL     1      50.429   5.753  21.350  0.00  0.00    +0.000 A 
ATOM     13  C   UNL     1      49.422   4.922  21.855  0.00  0.00    +0.000 A 
ATOM     14  C   UNL     1      48.109   5.072  21.423  0.00  0.00    +0.000 A 
ATOM     15  C   UNL     1      47.802   6.055  20.487  0.00  0.00    +0.000 A 
ATOM     16  C   UNL     1      48.818   6.852  19.947  0.00  0.00    +0.000 A 
ENDBRANCH   9  11
BRANCH   8  18
ATOM     17  C   UNL     1      52.778   8.672  16.927  0.00  0.00    +0.000 C 
ATOM     18  C   UNL     1      53.104   8.169  18.326  0.00  0.00    +0.000 C 
ENDBRANCH   8  18
ENDBRANCH   7   8
ENDBRANCH   1   7
BRANCH   4  19
ATOM     19  C   UNL     1      47.217   3.689  16.561  0.00  0.00    +0.000 C 
BRANCH  19  20
ATOM     20  N   UNL     1      46.625   4.570  15.594  0.00  0.00    +0.000 N 
ATOM     21  C   UNL     1      46.702   4.306  14.252  0.00  0.00    +0.000 C 
ATOM     22  O   UNL     1      47.229   3.286  13.817  0.00  0.00    +0.000 OA
ATOM     23  H   UNL     1      46.406   5.511  15.903  0.00  0.00    +0.000 HD
BRANCH  21  24
ATOM     24  C   UNL     1      46.060   5.281  13.364  0.00  0.00    +0.000 A 
ATOM     25  C   UNL     1      46.749   6.423  12.986  0.00  0.00    +0.000 A 
ATOM     26  S   UNL     1      45.883   7.414  11.899  0.00  0.00    +0.000 S 
ATOM     27  C   UNL     1      44.535   6.373  11.940  0.00  0.00    +0.000 A 
ATOM     28  N   UNL     1      43.413   6.655  11.221  0.00  0.00    +0.000 NA
ATOM     29  C   UNL     1      42.462   5.797  11.362  0.00  0.00    +0.000 A 
ATOM     30  N   UNL     1      42.527   4.678  12.153  0.00  0.00    +0.000 N 
ATOM     31  C   UNL     1      43.644   4.344  12.882  0.00  0.00    +0.000 A 
ATOM     32  O   UNL     1      43.678   3.320  13.564  0.00  0.00    +0.000 OA
ATOM     33  C   UNL     1      44.747   5.279  12.759  0.00  0.00    +0.000 A 
ATOM     34  H   UNL     1      41.744   4.047  12.217  0.00  0.00    +0.000 HD
ENDBRANCH  21  24
ENDBRANCH  19  20
ENDBRANCH   4  19
TORSDOF 7
ENDMDL
MODEL 9
REMARK VINA RESULT:    -6.824      4.055     10.410
REMARK INTER + INTRA:         -10.533
REMARK INTER:                  -9.439
REMARK INTRA:                  -1.094
REMARK UNBOUND:                -0.917
REMARK  Name = 
REMARK  8 active torsions:
REMARK  status: ('A' for Active; 'I' for Inactive)
REMARK    1  A    between atoms: C_1  and  C_2
REMARK    2  A    between atoms: C_2  and  N_3
REMARK    3  A    between atoms: N_3  and  C_4
REMARK    4  A    between atoms: C_4  and  C_5
REMARK    5  A    between atoms: C_8  and  C_9
REMARK    6  A    between atoms: C_9  and  N_10
REMARK    7  A    between atoms: C_11  and  C_13
REMARK    8  A    between atoms: C_25  and  C_27
REMARK                            x       y       z     vdW  Elec       q    Type
REMARK                         _______ _______ _______ _____ _____    ______ ____
ROOT
ATOM      1  C   UNL     1      49.179   5.316  19.854  0.00  0.00    +0.000 A 
ATOM      2  C   UNL     1      50.042   4.634  18.991  0.00  0.00    +0.000 A 
ATOM      3  C   UNL     1      49.529   4.066  17.830  0.00  0.00    +0.000 A 
ATOM      4  C   UNL     1      48.167   4.181  17.553  0.00  0.00    +0.000 A 
ATOM      5  C   UNL     1      47.404   4.959  18.416  0.00  0.00    +0.000 A 
ATOM      6  N   UNL     1      47.874   5.521  19.553  0.00  0.00    +0.000 NA
ENDROOT
BRANCH   1   7
ATOM      7  C   UNL     1      49.624   5.604  21.272  0.00  0.00    +0.000 C 
BRANCH   7   8
ATOM      8  N   UNL     1      50.685   6.564  21.579  0.00  0.00    +0.000 N 
ATOM      9  C   UNL     1      50.552   7.952  21.366  0.00  0.00    +0.000 C 
ATOM     10  O   UNL     1      51.497   8.720  21.564  0.00  0.00    +0.000 OA
BRANCH   9  11
ATOM     11  C   UNL     1      49.280   8.583  20.870  0.00  0.00    +0.000 A 
ATOM     12  C   UNL     1      49.020   8.923  19.536  0.00  0.00    +0.000 A 
ATOM     13  C   UNL     1      47.811   9.526  19.167  0.00  0.00    +0.000 A 
ATOM     14  C   UNL     1      46.811   9.723  20.112  0.00  0.00    +0.000 A 
ATOM     15  C   UNL     1      47.017   9.314  21.427  0.00  0.00    +0.000 A 
ATOM     16  C   UNL     1      48.244   8.756  21.804  0.00  0.00    +0.000 A 
ENDBRANCH   9  11
BRANCH   8  18
ATOM     17  C   UNL     1      52.123   4.581  22.071  0.00  0.00    +0.000 C 
ATOM     18  C   UNL     1      51.972   6.096  22.101  0.00  0.00    +0.000 C 
ENDBRANCH   8  18
ENDBRANCH   7   8
ENDBRANCH   1   7
BRANCH   4  19
ATOM     19  C   UNL     1      47.550   3.502  16.369  0.00  0.00    +0.000 C 
BRANCH  19  20
ATOM     20  N   UNL     1      46.902   4.454  15.511  0.00  0.00    +0.000 N 
ATOM     21  C   UNL     1      46.745   4.211  14.172  0.00  0.00    +0.000 C 
ATOM     22  O   UNL     1      47.099   3.155  13.655  0.00  0.00    +0.000 OA
ATOM     23  H   UNL     1      46.823   5.405  15.855  0.00  0.00    +0.000 HD
BRANCH  21  24
ATOM     24  C   UNL     1      46.068   5.259  13.400  0.00  0.00    +0.000 A 
ATOM     25  C   UNL     1      46.697   6.478  13.200  0.00  0.00    +0.000 A 
ATOM     26  S   UNL     1      45.802   7.556  12.226  0.00  0.00    +0.000 S 
ATOM     27  C   UNL     1      44.518   6.445  12.083  0.00  0.00    +0.000 A 
ATOM     28  N   UNL     1      43.400   6.759  11.372  0.00  0.00    +0.000 NA
ATOM     29  C   UNL     1      42.499   5.838  11.365  0.00  0.00    +0.000 A 
ATOM     30  N   UNL     1      42.610   4.628  12.002  0.00  0.00    +0.000 N 
ATOM     31  C   UNL     1      43.726   4.262  12.718  0.00  0.00    +0.000 A 
ATOM     32  O   UNL     1      43.804   3.159  13.258  0.00  0.00    +0.000 OA
ATOM     33  C   UNL     1      44.774   5.266  12.757  0.00  0.00    +0.000 A 
ATOM     34  H   UNL     1      41.865   3.951  11.956  0.00  0.00    +0.000 HD
ENDBRANCH  21  24
ENDBRANCH  19  20
ENDBRANCH   4  19
TORSDOF 7
ENDMDL
