MODEL 1
REMARK VINA RESULT:    -8.522      0.000      0.000
REMARK INTER + INTRA:         -13.509
REMARK INTER:                 -12.258
REMARK INTRA:                  -1.251
REMARK UNBOUND:                -1.251
REMARK  Name = 
REMARK  9 active torsions:
REMARK  status: ('A' for Active; 'I' for Inactive)
REMARK    1  A    between atoms: C_1  and  C_2
REMARK    2  A    between atoms: C_6  and  C_7
REMARK    3  A    between atoms: C_7  and  N_8
REMARK    4  A    between atoms: N_8  and  C_9
REMARK    5  A    between atoms: C_9  and  C_10
REMARK    6  A    between atoms: C_13  and  C_14
REMARK    7  A    between atoms: C_14  and  N_15
REMARK    8  A    between atoms: C_16  and  C_18
REMARK    9  A    between atoms: C_25  and  O_26
REMARK                            x       y       z     vdW  Elec       q    Type
REMARK                         _______ _______ _______ _____ _____    ______ ____
ROOT
ATOM      1  C   UNL     1      44.701   5.749  12.009  0.00  0.00    +0.000 A 
ATOM      2  C   UNL     1      45.660   6.674  11.573  0.00  0.00    +0.000 A 
ATOM      3  C   UNL     1      46.863   6.838  12.270  0.00  0.00    +0.000 A 
ATOM      4  C   UNL     1      47.132   6.077  13.414  0.00  0.00    +0.000 A 
ATOM      5  C   UNL     1      46.166   5.166  13.859  0.00  0.00    +0.000 A 
ATOM      6  C   UNL     1      44.965   5.000  13.163  0.00  0.00    +0.000 A 
ENDROOT
BRANCH   1   7
ATOM      7  C   UNL     1      43.410   5.549  11.247  0.00  0.00    +0.000 C 
BRANCH   7   8
ATOM      8  N   UNL     1      43.593   4.939   9.931  0.00  0.00    +0.000 NA
ATOM      9  H   UNL     1      42.720   5.004   9.408  0.00  0.00    +0.000 HD
BRANCH   8  10
ATOM     10  C   UNL     1      43.969   3.525  10.008  0.00  0.00    +0.000 C 
BRANCH  10  16
ATOM     11  C   UNL     1      46.819   0.116   7.651  0.00  0.00    +0.000 C 
ATOM     12  C   UNL     1      46.422   1.549   7.846  0.00  0.00    +0.000 A 
ATOM     13  C   UNL     1      47.022   2.573   7.106  0.00  0.00    +0.000 A 
ATOM     14  C   UNL     1      46.643   3.902   7.307  0.00  0.00    +0.000 A 
ATOM     15  C   UNL     1      45.659   4.219   8.247  0.00  0.00    +0.000 A 
ATOM     16  C   UNL     1      45.047   3.208   8.996  0.00  0.00    +0.000 A 
ATOM     17  C   UNL     1      45.431   1.874   8.778  0.00  0.00    +0.000 A 
ENDBRANCH  10  16
ENDBRANCH   8  10
ENDBRANCH   7   8
ENDBRANCH   1   7
BRANCH   4  18
ATOM     18  C   UNL     1      48.423   6.245  14.176  0.00  0.00    +0.000 C 
BRANCH  18  19
ATOM     19  N   UNL     1      48.183   6.618  15.546  0.00  0.00    +0.000 N 
ATOM     20  C   UNL     1      48.787   5.956  16.587  0.00  0.00    +0.000 C 
ATOM     21  O   UNL     1      49.575   5.031  16.415  0.00  0.00    +0.000 OA
ATOM     22  H   UNL     1      47.423   7.259  15.741  0.00  0.00    +0.000 HD
BRANCH  20  23
ATOM     23  C   UNL     1      48.473   6.467  17.920  0.00  0.00    +0.000 A 
ATOM     24  C   UNL     1      48.133   7.793  18.171  0.00  0.00    +0.000 A 
ATOM     25  N   UNL     1      47.853   7.934  19.504  0.00  0.00    +0.000 N 
ATOM     26  C   UNL     1      48.045   6.739  20.137  0.00  0.00    +0.000 A 
ATOM     27  N   UNL     1      47.878   6.533  21.455  0.00  0.00    +0.000 NA
ATOM     28  C   UNL     1      48.153   5.265  21.799  0.00  0.00    +0.000 A 
ATOM     29  N   UNL     1      48.551   4.252  20.998  0.00  0.00    +0.000 NA
ATOM     30  C   UNL     1      48.687   4.537  19.701  0.00  0.00    +0.000 A 
ATOM     31  C   UNL     1      48.435   5.804  19.189  0.00  0.00    +0.000 A 
ATOM     32  H   UNL     1      47.556   8.779  19.970  0.00  0.00    +0.000 HD
BRANCH  30  33
ATOM     33  O   UNL     1      49.087   3.487  18.926  0.00  0.00    +0.000 OA
ATOM     34  H   UNL     1      48.453   2.805  19.215  0.00  0.00    +0.000 HD
ENDBRANCH  30  33
ENDBRANCH  20  23
ENDBRANCH  18  19
ENDBRANCH   4  18
TORSDOF 8
ENDMDL
MODEL 2
REMARK VINA RESULT:    -8.422      1.159      1.765
REMARK INTER + INTRA:         -13.365
REMARK INTER:                 -12.305
REMARK INTRA:                  -1.060
REMARK UNBOUND:                -1.251
REMARK  Name = 
REMARK  9 active torsions:
REMARK  status: ('A' for Active; 'I' for Inactive)
REMARK    1  A    between atoms: C_1  and  C_2
REMARK    2  A    between atoms: C_6  and  C_7
REMARK    3  A    between atoms: C_7  and  N_8
REMARK    4  A    between atoms: N_8  and  C_9
REMARK    5  A    between atoms: C_9  and  C_10
REMARK    6  A    between atoms: C_13  and  C_14
REMARK    7  A    between atoms: C_14  and  N_15
REMARK    8  A    between atoms: C_16  and  C_18
REMARK    9  A    between atoms: C_25  and  O_26
REMARK                            x       y       z     vdW  Elec       q    Type
REMARK                         _______ _______ _______ _____ _____    ______ ____
ROOT
ATOM      1  C   UNL     1      44.571   5.958  11.997  0.00  0.00    +0.000 A 
ATOM      2  C   UNL     1      45.183   7.204  11.808  0.00  0.00    +0.000 A 
ATOM      3  C   UNL     1      46.345   7.543  12.511  0.00  0.00    +0.000 A 
ATOM      4  C   UNL     1      46.919   6.640  13.415  0.00  0.00    +0.000 A 
ATOM      5  C   UNL     1      46.295   5.402  13.617  0.00  0.00    +0.000 A 
ATOM      6  C   UNL     1      45.137   5.062  12.914  0.00  0.00    +0.000 A 
ENDROOT
BRANCH   1   7
ATOM      7  C   UNL     1      43.329   5.575  11.222  0.00  0.00    +0.000 C 
BRANCH   7   8
ATOM      8  N   UNL     1      43.611   4.973   9.920  0.00  0.00    +0.000 NA
ATOM      9  H   UNL     1      42.779   5.036   9.335  0.00  0.00    +0.000 HD
BRANCH   8  10
ATOM     10  C   UNL     1      43.989   3.560  10.018  0.00  0.00    +0.000 C 
BRANCH  10  16
ATOM     11  C   UNL     1      46.796   0.112   7.667  0.00  0.00    +0.000 C 
ATOM     12  C   UNL     1      46.416   1.550   7.859  0.00  0.00    +0.000 A 
ATOM     13  C   UNL     1      47.027   2.565   7.116  0.00  0.00    +0.000 A 
ATOM     14  C   UNL     1      46.664   3.899   7.313  0.00  0.00    +0.000 A 
ATOM     15  C   UNL     1      45.686   4.230   8.253  0.00  0.00    +0.000 A 
ATOM     16  C   UNL     1      45.063   3.228   9.007  0.00  0.00    +0.000 A 
ATOM     17  C   UNL     1      45.430   1.890   8.791  0.00  0.00    +0.000 A 
ENDBRANCH  10  16
ENDBRANCH   8  10
ENDBRANCH   7   8
ENDBRANCH   1   7
BRANCH   4  18
ATOM     18  C   UNL     1      48.169   6.993  14.182  0.00  0.00    +0.000 C 
BRANCH  18  19
ATOM     19  N   UNL     1      48.228   6.300  15.443  0.00  0.00    +0.000 N 
ATOM     20  C   UNL     1      49.416   6.114  16.106  0.00  0.00    +0.000 C 
ATOM     21  O   UNL     1      50.486   6.538  15.679  0.00  0.00    +0.000 OA
ATOM     22  H   UNL     1      47.404   5.795  15.750  0.00  0.00    +0.000 HD
BRANCH  20  23
ATOM     23  C   UNL     1      49.315   5.424  17.391  0.00  0.00    +0.000 A 
ATOM     24  C   UNL     1      49.921   4.199  17.651  0.00  0.00    +0.000 A 
ATOM     25  N   UNL     1      49.675   3.851  18.952  0.00  0.00    +0.000 N 
ATOM     26  C   UNL     1      48.885   4.800  19.535  0.00  0.00    +0.000 A 
ATOM     27  N   UNL     1      48.439   4.756  20.802  0.00  0.00    +0.000 NA
ATOM     28  C   UNL     1      47.670   5.816  21.097  0.00  0.00    +0.000 A 
ATOM     29  N   UNL     1      47.330   6.847  20.293  0.00  0.00    +0.000 NA
ATOM     30  C   UNL     1      47.818   6.820  19.050  0.00  0.00    +0.000 A 
ATOM     31  C   UNL     1      48.634   5.791  18.597  0.00  0.00    +0.000 A 
ATOM     32  H   UNL     1      50.009   3.024  19.427  0.00  0.00    +0.000 HD
BRANCH  30  33
ATOM     33  O   UNL     1      47.455   7.881  18.272  0.00  0.00    +0.000 OA
ATOM     34  H   UNL     1      47.940   8.600  18.719  0.00  0.00    +0.000 HD
ENDBRANCH  30  33
ENDBRANCH  20  23
ENDBRANCH  18  19
ENDBRANCH   4  18
TORSDOF 8
ENDMDL
MODEL 3
REMARK VINA RESULT:    -8.224      1.308      2.552
REMARK INTER + INTRA:         -13.080
REMARK INTER:                 -11.812
REMARK INTRA:                  -1.268
REMARK UNBOUND:                -1.251
REMARK  Name = 
REMARK  9 active torsions:
REMARK  status: ('A' for Active; 'I' for Inactive)
REMARK    1  A    between atoms: C_1  and  C_2
REMARK    2  A    between atoms: C_6  and  C_7
REMARK    3  A    between atoms: C_7  and  N_8
REMARK    4  A    between atoms: N_8  and  C_9
REMARK    5  A    between atoms: C_9  and  C_10
REMARK    6  A    between atoms: C_13  and  C_14
REMARK    7  A    between atoms: C_14  and  N_15
REMARK    8  A    between atoms: C_16  and  C_18
REMARK    9  A    between atoms: C_25  and  O_26
REMARK                            x       y       z     vdW  Elec       q    Type
REMARK                         _______ _______ _______ _____ _____    ______ ____
ROOT
ATOM      1  C   UNL     1      44.647   5.762  11.852  0.00  0.00    +0.000 A 
ATOM      2  C   UNL     1      44.927   5.090  13.051  0.00  0.00    +0.000 A 
ATOM      3  C   UNL     1      46.120   5.332  13.743  0.00  0.00    +0.000 A 
ATOM      4  C   UNL     1      47.054   6.253  13.251  0.00  0.00    +0.000 A 
ATOM      5  C   UNL     1      46.781   6.909  12.045  0.00  0.00    +0.000 A 
ATOM      6  C   UNL     1      45.590   6.671  11.354  0.00  0.00    +0.000 A 
ENDROOT
BRANCH   1   7
ATOM      7  C   UNL     1      43.349   5.524  11.113  0.00  0.00    +0.000 C 
BRANCH   7   8
ATOM      8  N   UNL     1      43.517   4.834   9.836  0.00  0.00    +0.000 NA
ATOM      9  H   UNL     1      42.619   4.799   9.354  0.00  0.00    +0.000 HD
BRANCH   8  10
ATOM     10  C   UNL     1      44.000   3.459   9.993  0.00  0.00    +0.000 C 
BRANCH  10  16
ATOM     11  C   UNL     1      46.860   0.092   7.589  0.00  0.00    +0.000 C 
ATOM     12  C   UNL     1      46.462   1.521   7.807  0.00  0.00    +0.000 A 
ATOM     13  C   UNL     1      47.065   2.558   7.088  0.00  0.00    +0.000 A 
ATOM     14  C   UNL     1      46.685   3.884   7.310  0.00  0.00    +0.000 A 
ATOM     15  C   UNL     1      45.698   4.184   8.251  0.00  0.00    +0.000 A 
ATOM     16  C   UNL     1      45.083   3.160   8.981  0.00  0.00    +0.000 A 
ATOM     17  C   UNL     1      45.467   1.831   8.741  0.00  0.00    +0.000 A 
ENDBRANCH  10  16
ENDBRANCH   8  10
ENDBRANCH   7   8
ENDBRANCH   1   7
BRANCH   4  18
ATOM     18  C   UNL     1      48.344   6.521  13.985  0.00  0.00    +0.000 C 
BRANCH  18  19
ATOM     19  N   UNL     1      48.107   6.850  15.367  0.00  0.00    +0.000 N 
ATOM     20  C   UNL     1      48.954   6.427  16.362  0.00  0.00    +0.000 C 
ATOM     21  O   UNL     1      49.965   5.769  16.135  0.00  0.00    +0.000 OA
ATOM     22  H   UNL     1      47.208   7.246  15.617  0.00  0.00    +0.000 HD
BRANCH  20  23
ATOM     23  C   UNL     1      48.604   6.866  17.711  0.00  0.00    +0.000 A 
ATOM     24  C   UNL     1      48.656   6.032  18.824  0.00  0.00    +0.000 A 
ATOM     25  N   UNL     1      48.315   6.756  19.936  0.00  0.00    +0.000 N 
ATOM     26  C   UNL     1      47.999   8.033  19.567  0.00  0.00    +0.000 A 
ATOM     27  N   UNL     1      47.600   8.999  20.412  0.00  0.00    +0.000 NA
ATOM     28  C   UNL     1      47.342  10.148  19.768  0.00  0.00    +0.000 A 
ATOM     29  N   UNL     1      47.442  10.401  18.444  0.00  0.00    +0.000 NA
ATOM     30  C   UNL     1      47.850   9.390  17.673  0.00  0.00    +0.000 A 
ATOM     31  C   UNL     1      48.160   8.140  18.194  0.00  0.00    +0.000 A 
ATOM     32  H   UNL     1      48.287   6.420  20.888  0.00  0.00    +0.000 HD
BRANCH  30  33
ATOM     33  O   UNL     1      47.941   9.688  16.345  0.00  0.00    +0.000 OA
ATOM     34  H   UNL     1      47.154  10.253  16.238  0.00  0.00    +0.000 HD
ENDBRANCH  30  33
ENDBRANCH  20  23
ENDBRANCH  18  19
ENDBRANCH   4  18
TORSDOF 8
ENDMDL
MODEL 4
REMARK VINA RESULT:    -8.205      4.074      6.056
REMARK INTER + INTRA:         -13.053
REMARK INTER:                 -11.990
REMARK INTRA:                  -1.063
REMARK UNBOUND:                -1.251
REMARK  Name = 
REMARK  9 active torsions:
REMARK  status: ('A' for Active; 'I' for Inactive)
REMARK    1  A    between atoms: C_1  and  C_2
REMARK    2  A    between atoms: C_6  and  C_7
REMARK    3  A    between atoms: C_7  and  N_8
REMARK    4  A    between atoms: N_8  and  C_9
REMARK    5  A    between atoms: C_9  and  C_10
REMARK    6  A    between atoms: C_13  and  C_14
REMARK    7  A    between atoms: C_14  and  N_15
REMARK    8  A    between atoms: C_16  and  C_18
REMARK    9  A    between atoms: C_25  and  O_26
REMARK                            x       y       z     vdW  Elec       q    Type
REMARK                         _______ _______ _______ _____ _____    ______ ____
ROOT
ATOM      1  C   UNL     1      44.663   3.699  12.647  0.00  0.00    +0.000 A 
ATOM      2  C   UNL     1      45.955   3.226  12.914  0.00  0.00    +0.000 A 
ATOM      3  C   UNL     1      46.956   4.096  13.364  0.00  0.00    +0.000 A 
ATOM      4  C   UNL     1      46.682   5.456  13.559  0.00  0.00    +0.000 A 
ATOM      5  C   UNL     1      45.395   5.930  13.275  0.00  0.00    +0.000 A 
ATOM      6  C   UNL     1      44.395   5.062  12.828  0.00  0.00    +0.000 A 
ENDROOT
BRANCH   1   7
ATOM      7  C   UNL     1      43.571   2.760  12.185  0.00  0.00    +0.000 C 
BRANCH   7   8
ATOM      8  N   UNL     1      43.640   2.431  10.763  0.00  0.00    +0.000 NA
ATOM      9  H   UNL     1      44.360   1.724  10.618  0.00  0.00    +0.000 HD
BRANCH   8  10
ATOM     10  C   UNL     1      43.970   3.589   9.928  0.00  0.00    +0.000 C 
BRANCH  10  16
ATOM     11  C   UNL     1      46.803   0.095   7.679  0.00  0.00    +0.000 C 
ATOM     12  C   UNL     1      46.429   1.537   7.845  0.00  0.00    +0.000 A 
ATOM     13  C   UNL     1      47.063   2.540   7.104  0.00  0.00    +0.000 A 
ATOM     14  C   UNL     1      46.705   3.878   7.278  0.00  0.00    +0.000 A 
ATOM     15  C   UNL     1      45.708   4.227   8.192  0.00  0.00    +0.000 A 
ATOM     16  C   UNL     1      45.062   3.238   8.943  0.00  0.00    +0.000 A 
ATOM     17  C   UNL     1      45.425   1.894   8.752  0.00  0.00    +0.000 A 
ENDBRANCH  10  16
ENDBRANCH   8  10
ENDBRANCH   7   8
ENDBRANCH   1   7
BRANCH   4  18
ATOM     18  C   UNL     1      47.750   6.405  14.041  0.00  0.00    +0.000 C 
BRANCH  18  19
ATOM     19  N   UNL     1      47.534   7.739  13.543  0.00  0.00    +0.000 N 
ATOM     20  C   UNL     1      48.087   8.162  12.359  0.00  0.00    +0.000 C 
ATOM     21  O   UNL     1      48.774   7.432  11.651  0.00  0.00    +0.000 OA
ATOM     22  H   UNL     1      47.116   8.420  14.166  0.00  0.00    +0.000 HD
BRANCH  20  23
ATOM     23  C   UNL     1      47.753   9.530  11.966  0.00  0.00    +0.000 A 
ATOM     24  C   UNL     1      48.706  10.476  11.603  0.00  0.00    +0.000 A 
ATOM     25  N   UNL     1      48.067  11.634  11.246  0.00  0.00    +0.000 N 
ATOM     26  C   UNL     1      46.720  11.479  11.410  0.00  0.00    +0.000 A 
ATOM     27  N   UNL     1      45.802  12.431  11.170  0.00  0.00    +0.000 NA
ATOM     28  C   UNL     1      44.559  12.001  11.435  0.00  0.00    +0.000 A 
ATOM     29  N   UNL     1      44.175  10.787  11.885  0.00  0.00    +0.000 NA
ATOM     30  C   UNL     1      45.146   9.894  12.093  0.00  0.00    +0.000 A 
ATOM     31  C   UNL     1      46.484  10.188  11.861  0.00  0.00    +0.000 A 
ATOM     32  H   UNL     1      48.502  12.484  10.917  0.00  0.00    +0.000 HD
BRANCH  30  33
ATOM     33  O   UNL     1      44.717   8.680  12.544  0.00  0.00    +0.000 OA
ATOM     34  H   UNL     1      43.836   8.640  12.128  0.00  0.00    +0.000 HD
ENDBRANCH  30  33
ENDBRANCH  20  23
ENDBRANCH  18  19
ENDBRANCH   4  18
TORSDOF 8
ENDMDL
MODEL 5
REMARK VINA RESULT:    -8.118      1.309      2.363
REMARK INTER + INTRA:         -12.929
REMARK INTER:                 -11.953
REMARK INTRA:                  -0.976
REMARK UNBOUND:                -1.251
REMARK  Name = 
REMARK  9 active torsions:
REMARK  status: ('A' for Active; 'I' for Inactive)
REMARK    1  A    between atoms: C_1  and  C_2
REMARK    2  A    between atoms: C_6  and  C_7
REMARK    3  A    between atoms: C_7  and  N_8
REMARK    4  A    between atoms: N_8  and  C_9
REMARK    5  A    between atoms: C_9  and  C_10
REMARK    6  A    between atoms: C_13  and  C_14
REMARK    7  A    between atoms: C_14  and  N_15
REMARK    8  A    between atoms: C_16  and  C_18
REMARK    9  A    between atoms: C_25  and  O_26
REMARK                            x       y       z     vdW  Elec       q    Type
REMARK                         _______ _______ _______ _____ _____    ______ ____
ROOT
ATOM      1  C   UNL     1      45.786   5.228  11.969  0.00  0.00    +0.000 A 
ATOM      2  C   UNL     1      45.914   4.622  13.227  0.00  0.00    +0.000 A 
ATOM      3  C   UNL     1      46.832   5.110  14.165  0.00  0.00    +0.000 A 
ATOM      4  C   UNL     1      47.637   6.216  13.865  0.00  0.00    +0.000 A 
ATOM      5  C   UNL     1      47.520   6.809  12.601  0.00  0.00    +0.000 A 
ATOM      6  C   UNL     1      46.603   6.325  11.665  0.00  0.00    +0.000 A 
ENDROOT
BRANCH   1   7
ATOM      7  C   UNL     1      44.779   4.722  10.961  0.00  0.00    +0.000 C 
BRANCH   7   8
ATOM      8  N   UNL     1      45.116   5.050   9.577  0.00  0.00    +0.000 NA
ATOM      9  H   UNL     1      44.871   6.023   9.395  0.00  0.00    +0.000 HD
BRANCH   8  10
ATOM     10  C   UNL     1      44.404   4.215   8.605  0.00  0.00    +0.000 C 
BRANCH  10  16
ATOM     11  C   UNL     1      47.740   2.698   5.160  0.00  0.00    +0.000 C 
ATOM     12  C   UNL     1      46.944   2.408   6.398  0.00  0.00    +0.000 A 
ATOM     13  C   UNL     1      47.047   1.175   7.051  0.00  0.00    +0.000 A 
ATOM     14  C   UNL     1      46.293   0.921   8.199  0.00  0.00    +0.000 A 
ATOM     15  C   UNL     1      45.433   1.897   8.706  0.00  0.00    +0.000 A 
ATOM     16  C   UNL     1      45.317   3.137   8.066  0.00  0.00    +0.000 A 
ATOM     17  C   UNL     1      46.088   3.383   6.918  0.00  0.00    +0.000 A 
ENDBRANCH  10  16
ENDBRANCH   8  10
ENDBRANCH   7   8
ENDBRANCH   1   7
BRANCH   4  18
ATOM     18  C   UNL     1      48.631   6.751  14.865  0.00  0.00    +0.000 C 
BRANCH  18  19
ATOM     19  N   UNL     1      48.354   6.269  16.194  0.00  0.00    +0.000 N 
ATOM     20  C   UNL     1      49.318   5.643  16.946  0.00  0.00    +0.000 C 
ATOM     21  O   UNL     1      50.466   5.476  16.545  0.00  0.00    +0.000 OA
ATOM     22  H   UNL     1      47.388   6.238  16.499  0.00  0.00    +0.000 HD
BRANCH  20  23
ATOM     23  C   UNL     1      48.900   5.239  18.287  0.00  0.00    +0.000 A 
ATOM     24  C   UNL     1      48.938   3.923  18.736  0.00  0.00    +0.000 A 
ATOM     25  N   UNL     1      48.530   3.889  20.043  0.00  0.00    +0.000 N 
ATOM     26  C   UNL     1      48.184   5.148  20.444  0.00  0.00    +0.000 A 
ATOM     27  N   UNL     1      47.720   5.465  21.664  0.00  0.00    +0.000 NA
ATOM     28  C   UNL     1      47.448   6.775  21.769  0.00  0.00    +0.000 A 
ATOM     29  N   UNL     1      47.590   7.733  20.827  0.00  0.00    +0.000 NA
ATOM     30  C   UNL     1      48.062   7.338  19.642  0.00  0.00    +0.000 A 
ATOM     31  C   UNL     1      48.395   6.014  19.381  0.00  0.00    +0.000 A 
ATOM     32  H   UNL     1      48.477   3.073  20.635  0.00  0.00    +0.000 HD
BRANCH  30  33
ATOM     33  O   UNL     1      48.194   8.335  18.720  0.00  0.00    +0.000 OA
ATOM     34  H   UNL     1      47.721   9.057  19.175  0.00  0.00    +0.000 HD
ENDBRANCH  30  33
ENDBRANCH  20  23
ENDBRANCH  18  19
ENDBRANCH   4  18
TORSDOF 8
ENDMDL
MODEL 6
REMARK VINA RESULT:    -8.084      1.696      2.133
REMARK INTER + INTRA:         -12.879
REMARK INTER:                 -11.903
REMARK INTRA:                  -0.975
REMARK UNBOUND:                -1.251
REMARK  Name = 
REMARK  9 active torsions:
REMARK  status: ('A' for Active; 'I' for Inactive)
REMARK    1  A    between atoms: C_1  and  C_2
REMARK    2  A    between atoms: C_6  and  C_7
REMARK    3  A    between atoms: C_7  and  N_8
REMARK    4  A    between atoms: N_8  and  C_9
REMARK    5  A    between atoms: C_9  and  C_10
REMARK    6  A    between atoms: C_13  and  C_14
REMARK    7  A    between atoms: C_14  and  N_15
REMARK    8  A    between atoms: C_16  and  C_18
REMARK    9  A    between atoms: C_25  and  O_26
REMARK                            x       y       z     vdW  Elec       q    Type
REMARK                         _______ _______ _______ _____ _____    ______ ____
ROOT
ATOM      1  C   UNL     1      44.405   6.338  11.704  0.00  0.00    +0.000 A 
ATOM      2  C   UNL     1      45.480   5.605  12.224  0.00  0.00    +0.000 A 
ATOM      3  C   UNL     1      46.540   6.253  12.871  0.00  0.00    +0.000 A 
ATOM      4  C   UNL     1      46.542   7.646  13.013  0.00  0.00    +0.000 A 
ATOM      5  C   UNL     1      45.475   8.379  12.476  0.00  0.00    +0.000 A 
ATOM      6  C   UNL     1      44.416   7.733  11.832  0.00  0.00    +0.000 A 
ENDROOT
BRANCH   1   7
ATOM      7  C   UNL     1      43.245   5.642  11.026  0.00  0.00    +0.000 C 
BRANCH   7   8
ATOM      8  N   UNL     1      43.601   4.997   9.764  0.00  0.00    +0.000 NA
ATOM      9  H   UNL     1      42.798   5.020   9.138  0.00  0.00    +0.000 HD
BRANCH   8  10
ATOM     10  C   UNL     1      44.002   3.598   9.935  0.00  0.00    +0.000 C 
BRANCH  10  16
ATOM     11  C   UNL     1      46.787   0.069   7.680  0.00  0.00    +0.000 C 
ATOM     12  C   UNL     1      46.429   1.516   7.845  0.00  0.00    +0.000 A 
ATOM     13  C   UNL     1      47.070   2.510   7.098  0.00  0.00    +0.000 A 
ATOM     14  C   UNL     1      46.726   3.852   7.270  0.00  0.00    +0.000 A 
ATOM     15  C   UNL     1      45.738   4.213   8.189  0.00  0.00    +0.000 A 
ATOM     16  C   UNL     1      45.086   3.233   8.946  0.00  0.00    +0.000 A 
ATOM     17  C   UNL     1      45.434   1.886   8.755  0.00  0.00    +0.000 A 
ENDBRANCH  10  16
ENDBRANCH   8  10
ENDBRANCH   7   8
ENDBRANCH   1   7
BRANCH   4  18
ATOM     18  C   UNL     1      47.677   8.358  13.705  0.00  0.00    +0.000 C 
BRANCH  18  19
ATOM     19  N   UNL     1      47.999   7.737  14.964  0.00  0.00    +0.000 N 
ATOM     20  C   UNL     1      49.163   7.029  15.139  0.00  0.00    +0.000 C 
ATOM     21  O   UNL     1      50.000   6.901  14.250  0.00  0.00    +0.000 OA
ATOM     22  H   UNL     1      47.272   7.678  15.668  0.00  0.00    +0.000 HD
BRANCH  20  23
ATOM     23  C   UNL     1      49.369   6.485  16.480  0.00  0.00    +0.000 A 
ATOM     24  C   UNL     1      50.113   7.131  17.462  0.00  0.00    +0.000 A 
ATOM     25  N   UNL     1      50.072   6.386  18.610  0.00  0.00    +0.000 N 
ATOM     26  C   UNL     1      49.354   5.246  18.387  0.00  0.00    +0.000 A 
ATOM     27  N   UNL     1      49.137   4.284  19.300  0.00  0.00    +0.000 NA
ATOM     28  C   UNL     1      48.412   3.273  18.796  0.00  0.00    +0.000 A 
ATOM     29  N   UNL     1      47.917   3.147  17.545  0.00  0.00    +0.000 NA
ATOM     30  C   UNL     1      48.171   4.149  16.699  0.00  0.00    +0.000 A 
ATOM     31  C   UNL     1      48.905   5.267  17.075  0.00  0.00    +0.000 A 
ATOM     32  H   UNL     1      50.502   6.619  19.494  0.00  0.00    +0.000 HD
BRANCH  30  33
ATOM     33  O   UNL     1      47.651   3.984  15.449  0.00  0.00    +0.000 OA
ATOM     34  H   UNL     1      47.429   4.909  15.229  0.00  0.00    +0.000 HD
ENDBRANCH  30  33
ENDBRANCH  20  23
ENDBRANCH  18  19
ENDBRANCH   4  18
TORSDOF 8
ENDMDL
MODEL 7
REMARK VINA RESULT:    -7.638      2.998      8.333
REMARK INTER + INTRA:         -12.238
REMARK INTER:                 -10.279
REMARK INTRA:                  -1.959
REMARK UNBOUND:                -1.251
REMARK  Name = 
REMARK  9 active torsions:
REMARK  status: ('A' for Active; 'I' for Inactive)
REMARK    1  A    between atoms: C_1  and  C_2
REMARK    2  A    between atoms: C_6  and  C_7
REMARK    3  A    between atoms: C_7  and  N_8
REMARK    4  A    between atoms: N_8  and  C_9
REMARK    5  A    between atoms: C_9  and  C_10
REMARK    6  A    between atoms: C_13  and  C_14
REMARK    7  A    between atoms: C_14  and  N_15
REMARK    8  A    between atoms: C_16  and  C_18
REMARK    9  A    between atoms: C_25  and  O_26
REMARK                            x       y       z     vdW  Elec       q    Type
REMARK                         _______ _______ _______ _____ _____    ______ ____
ROOT
ATOM      1  C   UNL     1      49.334   7.936  17.520  0.00  0.00    +0.000 A 
ATOM      2  C   UNL     1      48.444   8.712  16.765  0.00  0.00    +0.000 A 
ATOM      3  C   UNL     1      48.468   8.668  15.366  0.00  0.00    +0.000 A 
ATOM      4  C   UNL     1      49.381   7.843  14.695  0.00  0.00    +0.000 A 
ATOM      5  C   UNL     1      50.281   7.082  15.452  0.00  0.00    +0.000 A 
ATOM      6  C   UNL     1      50.256   7.123  16.848  0.00  0.00    +0.000 A 
ENDROOT
BRANCH   1   7
ATOM      7  C   UNL     1      49.295   7.959  19.032  0.00  0.00    +0.000 C 
BRANCH   7   8
ATOM      8  N   UNL     1      48.213   7.162  19.606  0.00  0.00    +0.000 NA
ATOM      9  H   UNL     1      47.868   7.623  20.447  0.00  0.00    +0.000 HD
BRANCH   8  10
ATOM     10  C   UNL     1      48.638   5.809  19.974  0.00  0.00    +0.000 C 
BRANCH  10  16
ATOM     11  C   UNL     1      50.409   2.040  17.154  0.00  0.00    +0.000 C 
ATOM     12  C   UNL     1      49.316   3.025  17.449  0.00  0.00    +0.000 A 
ATOM     13  C   UNL     1      48.151   3.066  16.676  0.00  0.00    +0.000 A 
ATOM     14  C   UNL     1      47.148   3.994  16.962  0.00  0.00    +0.000 A 
ATOM     15  C   UNL     1      47.299   4.888  18.024  0.00  0.00    +0.000 A 
ATOM     16  C   UNL     1      48.458   4.862  18.809  0.00  0.00    +0.000 A 
ATOM     17  C   UNL     1      49.455   3.917  18.517  0.00  0.00    +0.000 A 
ENDBRANCH  10  16
ENDBRANCH   8  10
ENDBRANCH   7   8
ENDBRANCH   1   7
BRANCH   4  18
ATOM     18  C   UNL     1      49.420   7.788  13.188  0.00  0.00    +0.000 C 
BRANCH  18  19
ATOM     19  N   UNL     1      48.123   7.489  12.638  0.00  0.00    +0.000 N 
ATOM     20  C   UNL     1      47.562   6.241  12.758  0.00  0.00    +0.000 C 
ATOM     21  O   UNL     1      48.115   5.321  13.353  0.00  0.00    +0.000 OA
ATOM     22  H   UNL     1      47.706   8.161  12.004  0.00  0.00    +0.000 HD
BRANCH  20  23
ATOM     23  C   UNL     1      46.228   6.096  12.179  0.00  0.00    +0.000 A 
ATOM     24  C   UNL     1      45.569   7.122  11.509  0.00  0.00    +0.000 A 
ATOM     25  N   UNL     1      44.368   6.651  11.049  0.00  0.00    +0.000 N 
ATOM     26  C   UNL     1      44.209   5.352  11.442  0.00  0.00    +0.000 A 
ATOM     27  N   UNL     1      43.130   4.597  11.176  0.00  0.00    +0.000 NA
ATOM     28  C   UNL     1      43.243   3.366  11.700  0.00  0.00    +0.000 A 
ATOM     29  N   UNL     1      44.269   2.857  12.416  0.00  0.00    +0.000 NA
ATOM     30  C   UNL     1      45.306   3.670  12.632  0.00  0.00    +0.000 A 
ATOM     31  C   UNL     1      45.340   4.972  12.150  0.00  0.00    +0.000 A 
ATOM     32  H   UNL     1      43.687   7.165  10.509  0.00  0.00    +0.000 HD
BRANCH  30  33
ATOM     33  O   UNL     1      46.322   3.117  13.356  0.00  0.00    +0.000 OA
ATOM     34  H   UNL     1      46.678   3.912  13.795  0.00  0.00    +0.000 HD
ENDBRANCH  30  33
ENDBRANCH  20  23
ENDBRANCH  18  19
ENDBRANCH   4  18
TORSDOF 8
ENDMDL
MODEL 8
REMARK VINA RESULT:    -7.475      2.905      8.990
REMARK INTER + INTRA:         -12.003
REMARK INTER:                 -10.466
REMARK INTRA:                  -1.537
REMARK UNBOUND:                -1.251
REMARK  Name = 
REMARK  9 active torsions:
REMARK  status: ('A' for Active; 'I' for Inactive)
REMARK    1  A    between atoms: C_1  and  C_2
REMARK    2  A    between atoms: C_6  and  C_7
REMARK    3  A    between atoms: C_7  and  N_8
REMARK    4  A    between atoms: N_8  and  C_9
REMARK    5  A    between atoms: C_9  and  C_10
REMARK    6  A    between atoms: C_13  and  C_14
REMARK    7  A    between atoms: C_14  and  N_15
REMARK    8  A    between atoms: C_16  and  C_18
REMARK    9  A    between atoms: C_25  and  O_26
REMARK                            x       y       z     vdW  Elec       q    Type
REMARK                         _______ _______ _______ _____ _____    ______ ____
ROOT
ATOM      1  C   UNL     1      48.815   8.046  16.086  0.00  0.00    +0.000 A 
ATOM      2  C   UNL     1      48.324   9.169  15.406  0.00  0.00    +0.000 A 
ATOM      3  C   UNL     1      47.890   9.068  14.079  0.00  0.00    +0.000 A 
ATOM      4  C   UNL     1      47.937   7.840  13.406  0.00  0.00    +0.000 A 
ATOM      5  C   UNL     1      48.446   6.723  14.081  0.00  0.00    +0.000 A 
ATOM      6  C   UNL     1      48.876   6.822  15.407  0.00  0.00    +0.000 A 
ENDROOT
BRANCH   1   7
ATOM      7  C   UNL     1      49.261   8.143  17.528  0.00  0.00    +0.000 C 
BRANCH   7   8
ATOM      8  N   UNL     1      48.426   7.381  18.454  0.00  0.00    +0.000 NA
ATOM      9  H   UNL     1      48.116   7.995  19.207  0.00  0.00    +0.000 HD
BRANCH   8  10
ATOM     10  C   UNL     1      49.134   6.249  19.058  0.00  0.00    +0.000 C 
BRANCH  10  16
ATOM     11  C   UNL     1      50.724   1.873  17.154  0.00  0.00    +0.000 C 
ATOM     12  C   UNL     1      49.606   2.844  17.390  0.00  0.00    +0.000 A 
ATOM     13  C   UNL     1      48.310   2.580  16.935  0.00  0.00    +0.000 A 
ATOM     14  C   UNL     1      47.283   3.500  17.159  0.00  0.00    +0.000 A 
ATOM     15  C   UNL     1      47.542   4.691  17.841  0.00  0.00    +0.000 A 
ATOM     16  C   UNL     1      48.833   4.974  18.303  0.00  0.00    +0.000 A 
ATOM     17  C   UNL     1      49.854   4.035  18.080  0.00  0.00    +0.000 A 
ENDBRANCH  10  16
ENDBRANCH   8  10
ENDBRANCH   7   8
ENDBRANCH   1   7
BRANCH   4  18
ATOM     18  C   UNL     1      47.476   7.717  11.976  0.00  0.00    +0.000 C 
BRANCH  18  19
ATOM     19  N   UNL     1      46.857   6.440  11.729  0.00  0.00    +0.000 N 
ATOM     20  C   UNL     1      45.552   6.194  12.081  0.00  0.00    +0.000 C 
ATOM     21  O   UNL     1      44.837   7.043  12.603  0.00  0.00    +0.000 OA
ATOM     22  H   UNL     1      47.450   5.665  11.454  0.00  0.00    +0.000 HD
BRANCH  20  23
ATOM     23  C   UNL     1      45.051   4.864  11.739  0.00  0.00    +0.000 A 
ATOM     24  C   UNL     1      44.548   3.971  12.679  0.00  0.00    +0.000 A 
ATOM     25  N   UNL     1      44.120   2.842  12.031  0.00  0.00    +0.000 N 
ATOM     26  C   UNL     1      44.372   2.962  10.694  0.00  0.00    +0.000 A 
ATOM     27  N   UNL     1      44.095   2.023   9.774  0.00  0.00    +0.000 NA
ATOM     28  C   UNL     1      44.467   2.407   8.543  0.00  0.00    +0.000 A 
ATOM     29  N   UNL     1      45.050   3.568   8.174  0.00  0.00    +0.000 NA
ATOM     30  C   UNL     1      45.287   4.451   9.147  0.00  0.00    +0.000 A 
ATOM     31  C   UNL     1      44.955   4.201  10.472  0.00  0.00    +0.000 A 
ATOM     32  H   UNL     1      43.688   2.033  12.455  0.00  0.00    +0.000 HD
BRANCH  30  33
ATOM     33  O   UNL     1      45.874   5.612   8.733  0.00  0.00    +0.000 OA
ATOM     34  H   UNL     1      46.274   5.316   7.893  0.00  0.00    +0.000 HD
ENDBRANCH  30  33
ENDBRANCH  20  23
ENDBRANCH  18  19
ENDBRANCH   4  18
TORSDOF 8
ENDMDL
MODEL 9
REMARK VINA RESULT:    -7.243      3.155      9.323
REMARK INTER + INTRA:         -11.669
REMARK INTER:                 -10.209
REMARK INTRA:                  -1.460
REMARK UNBOUND:                -1.251
REMARK  Name = 
REMARK  9 active torsions:
REMARK  status: ('A' for Active; 'I' for Inactive)
REMARK    1  A    between atoms: C_1  and  C_2
REMARK    2  A    between atoms: C_6  and  C_7
REMARK    3  A    between atoms: C_7  and  N_8
REMARK    4  A    between atoms: N_8  and  C_9
REMARK    5  A    between atoms: C_9  and  C_10
REMARK    6  A    between atoms: C_13  and  C_14
REMARK    7  A    between atoms: C_14  and  N_15
REMARK    8  A    between atoms: C_16  and  C_18
REMARK    9  A    between atoms: C_25  and  O_26
REMARK                            x       y       z     vdW  Elec       q    Type
REMARK                         _______ _______ _______ _____ _____    ______ ____
ROOT
ATOM      1  C   UNL     1      49.511   8.114  14.163  0.00  0.00    +0.000 A 
ATOM      2  C   UNL     1      49.236   7.127  13.207  0.00  0.00    +0.000 A 
ATOM      3  C   UNL     1      47.947   6.984  12.678  0.00  0.00    +0.000 A 
ATOM      4  C   UNL     1      46.910   7.829  13.092  0.00  0.00    +0.000 A 
ATOM      5  C   UNL     1      47.183   8.804  14.060  0.00  0.00    +0.000 A 
ATOM      6  C   UNL     1      48.469   8.949  14.588  0.00  0.00    +0.000 A 
ENDROOT
BRANCH   1   7
ATOM      7  C   UNL     1      50.907   8.290  14.719  0.00  0.00    +0.000 C 
BRANCH   7   8
ATOM      8  N   UNL     1      51.011   8.001  16.148  0.00  0.00    +0.000 NA
ATOM      9  H   UNL     1      51.896   8.366  16.499  0.00  0.00    +0.000 HD
BRANCH   8  10
ATOM     10  C   UNL     1      50.965   6.566  16.442  0.00  0.00    +0.000 C 
BRANCH  10  16
ATOM     11  C   UNL     1      47.299   3.268  17.433  0.00  0.00    +0.000 C 
ATOM     12  C   UNL     1      47.923   4.611  17.673  0.00  0.00    +0.000 A 
ATOM     13  C   UNL     1      47.355   5.522  18.570  0.00  0.00    +0.000 A 
ATOM     14  C   UNL     1      47.947   6.770  18.774  0.00  0.00    +0.000 A 
ATOM     15  C   UNL     1      49.112   7.118  18.087  0.00  0.00    +0.000 A 
ATOM     16  C   UNL     1      49.695   6.219  17.186  0.00  0.00    +0.000 A 
ATOM     17  C   UNL     1      49.095   4.963  16.996  0.00  0.00    +0.000 A 
ENDBRANCH  10  16
ENDBRANCH   8  10
ENDBRANCH   7   8
ENDBRANCH   1   7
BRANCH   4  18
ATOM     18  C   UNL     1      45.517   7.686  12.533  0.00  0.00    +0.000 C 
BRANCH  18  19
ATOM     19  N   UNL     1      45.344   6.420  11.867  0.00  0.00    +0.000 N 
ATOM     20  C   UNL     1      44.433   5.494  12.312  0.00  0.00    +0.000 C 
ATOM     21  O   UNL     1      43.705   5.692  13.280  0.00  0.00    +0.000 OA
ATOM     22  H   UNL     1      46.029   6.148  11.172  0.00  0.00    +0.000 HD
BRANCH  20  23
ATOM     23  C   UNL     1      44.345   4.271  11.516  0.00  0.00    +0.000 A 
ATOM     24  C   UNL     1      43.802   3.083  11.996  0.00  0.00    +0.000 A 
ATOM     25  N   UNL     1      43.824   2.150  10.994  0.00  0.00    +0.000 N 
ATOM     26  C   UNL     1      44.410   2.688   9.884  0.00  0.00    +0.000 A 
ATOM     27  N   UNL     1      44.610   2.034   8.727  0.00  0.00    +0.000 NA
ATOM     28  C   UNL     1      45.221   2.807   7.817  0.00  0.00    +0.000 A 
ATOM     29  N   UNL     1      45.621   4.091   7.949  0.00  0.00    +0.000 NA
ATOM     30  C   UNL     1      45.381   4.672   9.127  0.00  0.00    +0.000 A 
ATOM     31  C   UNL     1      44.752   4.002  10.169  0.00  0.00    +0.000 A 
ATOM     32  H   UNL     1      43.475   1.203  11.046  0.00  0.00    +0.000 HD
BRANCH  30  33
ATOM     33  O   UNL     1      45.797   5.968   9.218  0.00  0.00    +0.000 OA
ATOM     34  H   UNL     1      44.937   6.426   9.254  0.00  0.00    +0.000 HD
ENDBRANCH  30  33
ENDBRANCH  20  23
ENDBRANCH  18  19
ENDBRANCH   4  18
TORSDOF 8
ENDMDL
