MODEL 1
REMARK VINA RESULT:    -7.427      0.000      0.000
REMARK INTER + INTRA:         -10.218
REMARK INTER:                  -9.815
REMARK INTRA:                  -0.403
REMARK UNBOUND:                -0.403
REMARK  Name = 
REMARK  6 active torsions:
REMARK  status: ('A' for Active; 'I' for Inactive)
REMARK    1  A    between atoms: N_1  and  C_2
REMARK    2  A    between atoms: C_2  and  C_3
REMARK    3  A    between atoms: C_7  and  N_8
REMARK    4  A    between atoms: N_8  and  C_9
REMARK    5  A    between atoms: C_9  and  C_10
REMARK    6  A    between atoms: C_10  and  C_11
REMARK                            x       y       z     vdW  Elec       q    Type
REMARK                         _______ _______ _______ _____ _____    ______ ____
ROOT
ATOM      1  N   UNL     1      43.590   4.133  10.969  0.00  0.00    +0.000 N 
ATOM      2  H   UNL     1      42.795   3.784  11.500  0.00  0.00    +0.000 HD
ENDROOT
BRANCH   1   7
ATOM      3  C   UNL     1      46.166   5.100  13.510  0.00  0.00    +0.000 A 
ATOM      4  C   UNL     1      46.283   6.438  13.157  0.00  0.00    +0.000 A 
ATOM      5  N   UNL     1      45.573   7.022  12.170  0.00  0.00    +0.000 NA
ATOM      6  C   UNL     1      44.700   6.224  11.504  0.00  0.00    +0.000 A 
ATOM      7  C   UNL     1      44.465   4.872  11.774  0.00  0.00    +0.000 A 
ATOM      8  C   UNL     1      45.250   4.321  12.789  0.00  0.00    +0.000 A 
BRANCH   3   9
ATOM      9  C   UNL     1      46.967   4.514  14.636  0.00  0.00    +0.000 C 
BRANCH   9  10
ATOM     10  N   UNL     1      47.396   3.152  14.344  0.00  0.00    +0.000 NA
ATOM     11  H   UNL     1      46.688   2.499  14.674  0.00  0.00    +0.000 HD
ATOM     12  H   UNL     1      48.243   2.949  14.875  0.00  0.00    +0.000 HD
ENDBRANCH   9  10
ENDBRANCH   3   9
ENDBRANCH   1   7
BRANCH   1  13
ATOM     13  C   UNL     1      44.137   3.179  10.006  0.00  0.00    +0.000 C 
BRANCH  13  14
ATOM     14  C   UNL     1      44.707   3.912   8.787  0.00  0.00    +0.000 C 
BRANCH  14  15
ATOM     15  C   UNL     1      45.654   3.039   8.001  0.00  0.00    +0.000 A 
ATOM     16  C   UNL     1      46.362   3.561   6.906  0.00  0.00    +0.000 A 
ATOM     17  C   UNL     1      47.248   2.757   6.183  0.00  0.00    +0.000 A 
ATOM     18  C   UNL     1      47.441   1.427   6.551  0.00  0.00    +0.000 A 
ATOM     19  C   UNL     1      46.750   0.913   7.642  0.00  0.00    +0.000 A 
ATOM     20  F   UNL     1      46.941  -0.363   8.001  0.00  0.00    +0.000 F 
ATOM     21  C   UNL     1      45.865   1.704   8.369  0.00  0.00    +0.000 A 
ENDBRANCH  14  15
ENDBRANCH  13  14
ENDBRANCH   1  13
TORSDOF 6
ENDMDL
MODEL 2
REMARK VINA RESULT:    -7.368      3.152      6.286
REMARK INTER + INTRA:         -10.141
REMARK INTER:                  -9.607
REMARK INTRA:                  -0.533
REMARK UNBOUND:                -0.403
REMARK  Name = 
REMARK  6 active torsions:
REMARK  status: ('A' for Active; 'I' for Inactive)
REMARK    1  A    between atoms: N_1  and  C_2
REMARK    2  A    between atoms: C_2  and  C_3
REMARK    3  A    between atoms: C_7  and  N_8
REMARK    4  A    between atoms: N_8  and  C_9
REMARK    5  A    between atoms: C_9  and  C_10
REMARK    6  A    between atoms: C_10  and  C_11
REMARK                            x       y       z     vdW  Elec       q    Type
REMARK                         _______ _______ _______ _____ _____    ______ ____
ROOT
ATOM      1  N   UNL     1      44.153   2.480  10.578  0.00  0.00    +0.000 N 
ATOM      2  H   UNL     1      43.664   1.603  10.409  0.00  0.00    +0.000 HD
ENDROOT
BRANCH   1   7
ATOM      3  C   UNL     1      46.451   2.271   7.629  0.00  0.00    +0.000 A 
ATOM      4  C   UNL     1      46.494   3.627   7.330  0.00  0.00    +0.000 A 
ATOM      5  N   UNL     1      45.840   4.575   8.032  0.00  0.00    +0.000 NA
ATOM      6  C   UNL     1      45.106   4.141   9.089  0.00  0.00    +0.000 A 
ATOM      7  C   UNL     1      45.000   2.813   9.515  0.00  0.00    +0.000 A 
ATOM      8  C   UNL     1      45.678   1.878   8.731  0.00  0.00    +0.000 A 
BRANCH   3   9
ATOM      9  C   UNL     1      47.223   1.266   6.824  0.00  0.00    +0.000 C 
BRANCH   9  10
ATOM     10  N   UNL     1      48.339   1.879   6.117  0.00  0.00    +0.000 NA
ATOM     11  H   UNL     1      48.722   1.211   5.449  0.00  0.00    +0.000 HD
ATOM     12  H   UNL     1      49.085   2.079   6.782  0.00  0.00    +0.000 HD
ENDBRANCH   9  10
ENDBRANCH   3   9
ENDBRANCH   1   7
BRANCH   1  13
ATOM     13  C   UNL     1      43.330   3.521  11.191  0.00  0.00    +0.000 C 
BRANCH  13  14
ATOM     14  C   UNL     1      43.722   3.723  12.658  0.00  0.00    +0.000 C 
BRANCH  14  15
ATOM     15  C   UNL     1      44.796   4.773  12.811  0.00  0.00    +0.000 A 
ATOM     16  C   UNL     1      46.090   4.414  13.221  0.00  0.00    +0.000 A 
ATOM     17  C   UNL     1      47.089   5.383  13.353  0.00  0.00    +0.000 A 
ATOM     18  C   UNL     1      46.807   6.719  13.069  0.00  0.00    +0.000 A 
ATOM     19  C   UNL     1      45.529   7.072  12.651  0.00  0.00    +0.000 A 
ATOM     20  F   UNL     1      45.259   8.354  12.371  0.00  0.00    +0.000 F 
ATOM     21  C   UNL     1      44.527   6.116  12.517  0.00  0.00    +0.000 A 
ENDBRANCH  14  15
ENDBRANCH  13  14
ENDBRANCH   1  13
TORSDOF 6
ENDMDL
MODEL 3
REMARK VINA RESULT:    -7.353      3.034      6.318
REMARK INTER + INTRA:         -10.121
REMARK INTER:                  -9.681
REMARK INTRA:                  -0.440
REMARK UNBOUND:                -0.403
REMARK  Name = 
REMARK  6 active torsions:
REMARK  status: ('A' for Active; 'I' for Inactive)
REMARK    1  A    between atoms: N_1  and  C_2
REMARK    2  A    between atoms: C_2  and  C_3
REMARK    3  A    between atoms: C_7  and  N_8
REMARK    4  A    between atoms: N_8  and  C_9
REMARK    5  A    between atoms: C_9  and  C_10
REMARK    6  A    between atoms: C_10  and  C_11
REMARK                            x       y       z     vdW  Elec       q    Type
REMARK                         _______ _______ _______ _____ _____    ______ ____
ROOT
ATOM      1  N   UNL     1      44.212   4.586   9.094  0.00  0.00    +0.000 N 
ATOM      2  H   UNL     1      44.644   5.493   8.930  0.00  0.00    +0.000 HD
ENDROOT
BRANCH   1   7
ATOM      3  C   UNL     1      46.638   2.636   7.010  0.00  0.00    +0.000 A 
ATOM      4  C   UNL     1      46.532   1.427   7.685  0.00  0.00    +0.000 A 
ATOM      5  N   UNL     1      45.723   1.222   8.744  0.00  0.00    +0.000 NA
ATOM      6  C   UNL     1      44.980   2.285   9.147  0.00  0.00    +0.000 A 
ATOM      7  C   UNL     1      44.969   3.546   8.542  0.00  0.00    +0.000 A 
ATOM      8  C   UNL     1      45.848   3.701   7.468  0.00  0.00    +0.000 A 
BRANCH   3   9
ATOM      9  C   UNL     1      47.539   2.795   5.820  0.00  0.00    +0.000 C 
BRANCH   9  10
ATOM     10  N   UNL     1      48.526   1.726   5.742  0.00  0.00    +0.000 NA
ATOM     11  H   UNL     1      49.066   1.703   6.605  0.00  0.00    +0.000 HD
ATOM     12  H   UNL     1      49.187   1.938   4.995  0.00  0.00    +0.000 HD
ENDBRANCH   9  10
ENDBRANCH   3   9
ENDBRANCH   1   7
BRANCH   1  13
ATOM     13  C   UNL     1      43.638   4.423  10.429  0.00  0.00    +0.000 C 
BRANCH  13  14
ATOM     14  C   UNL     1      43.791   5.713  11.241  0.00  0.00    +0.000 C 
BRANCH  14  15
ATOM     15  C   UNL     1      45.107   5.758  11.979  0.00  0.00    +0.000 A 
ATOM     16  C   UNL     1      46.161   6.558  11.509  0.00  0.00    +0.000 A 
ATOM     17  C   UNL     1      47.376   6.609  12.198  0.00  0.00    +0.000 A 
ATOM     18  C   UNL     1      47.549   5.869  13.366  0.00  0.00    +0.000 A 
ATOM     19  C   UNL     1      46.501   5.087  13.838  0.00  0.00    +0.000 A 
ATOM     20  F   UNL     1      46.662   4.380  14.965  0.00  0.00    +0.000 F 
ATOM     21  C   UNL     1      45.286   5.028  13.161  0.00  0.00    +0.000 A 
ENDBRANCH  14  15
ENDBRANCH  13  14
ENDBRANCH   1  13
TORSDOF 6
ENDMDL
MODEL 4
REMARK VINA RESULT:    -6.951      0.765      2.017
REMARK INTER + INTRA:          -9.590
REMARK INTER:                  -9.120
REMARK INTRA:                  -0.470
REMARK UNBOUND:                -0.403
REMARK  Name = 
REMARK  6 active torsions:
REMARK  status: ('A' for Active; 'I' for Inactive)
REMARK    1  A    between atoms: N_1  and  C_2
REMARK    2  A    between atoms: C_2  and  C_3
REMARK    3  A    between atoms: C_7  and  N_8
REMARK    4  A    between atoms: N_8  and  C_9
REMARK    5  A    between atoms: C_9  and  C_10
REMARK    6  A    between atoms: C_10  and  C_11
REMARK                            x       y       z     vdW  Elec       q    Type
REMARK                         _______ _______ _______ _____ _____    ______ ____
ROOT
ATOM      1  N   UNL     1      43.977   4.114  11.165  0.00  0.00    +0.000 N 
ATOM      2  H   UNL     1      43.124   3.960  11.698  0.00  0.00    +0.000 HD
ENDROOT
BRANCH   1   7
ATOM      3  C   UNL     1      46.668   5.845  13.111  0.00  0.00    +0.000 A 
ATOM      4  C   UNL     1      47.116   4.744  13.830  0.00  0.00    +0.000 A 
ATOM      5  N   UNL     1      46.605   3.502  13.702  0.00  0.00    +0.000 NA
ATOM      6  C   UNL     1      45.595   3.356  12.806  0.00  0.00    +0.000 A 
ATOM      7  C   UNL     1      45.070   4.371  12.001  0.00  0.00    +0.000 A 
ATOM      8  C   UNL     1      45.622   5.638  12.200  0.00  0.00    +0.000 A 
BRANCH   3   9
ATOM      9  C   UNL     1      47.295   7.199  13.280  0.00  0.00    +0.000 C 
BRANCH   9  10
ATOM     10  N   UNL     1      46.876   8.124  12.235  0.00  0.00    +0.000 NA
ATOM     11  H   UNL     1      46.112   8.700  12.583  0.00  0.00    +0.000 HD
ATOM     12  H   UNL     1      46.501   7.592  11.450  0.00  0.00    +0.000 HD
ENDBRANCH   9  10
ENDBRANCH   3   9
ENDBRANCH   1   7
BRANCH   1  13
ATOM     13  C   UNL     1      44.145   3.216  10.023  0.00  0.00    +0.000 C 
BRANCH  13  14
ATOM     14  C   UNL     1      44.748   3.966   8.832  0.00  0.00    +0.000 C 
BRANCH  14  15
ATOM     15  C   UNL     1      45.680   3.090   8.031  0.00  0.00    +0.000 A 
ATOM     16  C   UNL     1      46.405   3.620   6.951  0.00  0.00    +0.000 A 
ATOM     17  C   UNL     1      47.277   2.812   6.216  0.00  0.00    +0.000 A 
ATOM     18  C   UNL     1      47.439   1.470   6.555  0.00  0.00    +0.000 A 
ATOM     19  C   UNL     1      46.731   0.949   7.631  0.00  0.00    +0.000 A 
ATOM     20  F   UNL     1      46.891  -0.340   7.964  0.00  0.00    +0.000 F 
ATOM     21  C   UNL     1      45.860   1.743   8.371  0.00  0.00    +0.000 A 
ENDBRANCH  14  15
ENDBRANCH  13  14
ENDBRANCH   1  13
TORSDOF 6
ENDMDL
MODEL 5
REMARK VINA RESULT:    -6.835      1.679      2.068
REMARK INTER + INTRA:          -9.436
REMARK INTER:                  -9.051
REMARK INTRA:                  -0.385
REMARK UNBOUND:                -0.403
REMARK  Name = 
REMARK  6 active torsions:
REMARK  status: ('A' for Active; 'I' for Inactive)
REMARK    1  A    between atoms: N_1  and  C_2
REMARK    2  A    between atoms: C_2  and  C_3
REMARK    3  A    between atoms: C_7  and  N_8
REMARK    4  A    between atoms: N_8  and  C_9
REMARK    5  A    between atoms: C_9  and  C_10
REMARK    6  A    between atoms: C_10  and  C_11
REMARK                            x       y       z     vdW  Elec       q    Type
REMARK                         _______ _______ _______ _____ _____    ______ ____
ROOT
ATOM      1  N   UNL     1      43.898   5.254  10.536  0.00  0.00    +0.000 N 
ATOM      2  H   UNL     1      42.968   5.126  10.931  0.00  0.00    +0.000 HD
ENDROOT
BRANCH   1   7
ATOM      3  C   UNL     1      46.639   6.509  12.758  0.00  0.00    +0.000 A 
ATOM      4  C   UNL     1      46.275   7.850  12.762  0.00  0.00    +0.000 A 
ATOM      5  N   UNL     1      45.205   8.343  12.106  0.00  0.00    +0.000 NA
ATOM      6  C   UNL     1      44.460   7.446  11.412  0.00  0.00    +0.000 A 
ATOM      7  C   UNL     1      44.697   6.069  11.346  0.00  0.00    +0.000 A 
ATOM      8  C   UNL     1      45.834   5.626  12.023  0.00  0.00    +0.000 A 
BRANCH   3   9
ATOM      9  C   UNL     1      47.829   6.016  13.529  0.00  0.00    +0.000 C 
BRANCH   9  10
ATOM     10  N   UNL     1      49.083   6.400  12.895  0.00  0.00    +0.000 NA
ATOM     11  H   UNL     1      49.500   7.171  13.415  0.00  0.00    +0.000 HD
ATOM     12  H   UNL     1      48.888   6.756  11.960  0.00  0.00    +0.000 HD
ENDBRANCH   9  10
ENDBRANCH   3   9
ENDBRANCH   1   7
BRANCH   1  13
ATOM     13  C   UNL     1      44.474   4.046   9.947  0.00  0.00    +0.000 C 
BRANCH  13  14
ATOM     14  C   UNL     1      44.691   4.232   8.442  0.00  0.00    +0.000 C 
BRANCH  14  15
ATOM     15  C   UNL     1      45.601   3.171   7.872  0.00  0.00    +0.000 A 
ATOM     16  C   UNL     1      45.725   1.923   8.503  0.00  0.00    +0.000 A 
ATOM     17  C   UNL     1      46.559   0.936   7.971  0.00  0.00    +0.000 A 
ATOM     18  C   UNL     1      47.272   1.183   6.799  0.00  0.00    +0.000 A 
ATOM     19  C   UNL     1      47.140   2.414   6.167  0.00  0.00    +0.000 A 
ATOM     20  F   UNL     1      47.819   2.649   5.036  0.00  0.00    +0.000 F 
ATOM     21  C   UNL     1      46.312   3.404   6.688  0.00  0.00    +0.000 A 
ENDBRANCH  14  15
ENDBRANCH  13  14
ENDBRANCH   1  13
TORSDOF 6
ENDMDL
MODEL 6
REMARK VINA RESULT:    -6.503      1.669      2.907
REMARK INTER + INTRA:          -8.997
REMARK INTER:                  -8.536
REMARK INTRA:                  -0.461
REMARK UNBOUND:                -0.403
REMARK  Name = 
REMARK  6 active torsions:
REMARK  status: ('A' for Active; 'I' for Inactive)
REMARK    1  A    between atoms: N_1  and  C_2
REMARK    2  A    between atoms: C_2  and  C_3
REMARK    3  A    between atoms: C_7  and  N_8
REMARK    4  A    between atoms: N_8  and  C_9
REMARK    5  A    between atoms: C_9  and  C_10
REMARK    6  A    between atoms: C_10  and  C_11
REMARK                            x       y       z     vdW  Elec       q    Type
REMARK                         _______ _______ _______ _____ _____    ______ ____
ROOT
ATOM      1  N   UNL     1      44.102   4.005  12.346  0.00  0.00    +0.000 N 
ATOM      2  H   UNL     1      43.709   3.622  13.203  0.00  0.00    +0.000 HD
ENDROOT
BRANCH   1   7
ATOM      3  C   UNL     1      46.326   6.998  12.698  0.00  0.00    +0.000 A 
ATOM      4  C   UNL     1      47.382   6.369  13.345  0.00  0.00    +0.000 A 
ATOM      5  N   UNL     1      47.406   5.055  13.648  0.00  0.00    +0.000 NA
ATOM      6  C   UNL     1      46.316   4.334  13.283  0.00  0.00    +0.000 A 
ATOM      7  C   UNL     1      45.199   4.834  12.605  0.00  0.00    +0.000 A 
ATOM      8  C   UNL     1      45.224   6.205  12.344  0.00  0.00    +0.000 A 
BRANCH   3   9
ATOM      9  C   UNL     1      46.369   8.461  12.365  0.00  0.00    +0.000 C 
BRANCH   9  10
ATOM     10  N   UNL     1      45.243   9.182  12.945  0.00  0.00    +0.000 NA
ATOM     11  H   UNL     1      44.718   9.638  12.201  0.00  0.00    +0.000 HD
ATOM     12  H   UNL     1      45.598   9.926  13.544  0.00  0.00    +0.000 HD
ENDBRANCH   9  10
ENDBRANCH   3   9
ENDBRANCH   1   7
BRANCH   1  13
ATOM     13  C   UNL     1      44.168   3.055  11.236  0.00  0.00    +0.000 C 
BRANCH  13  14
ATOM     14  C   UNL     1      44.120   3.791   9.894  0.00  0.00    +0.000 C 
BRANCH  14  15
ATOM     15  C   UNL     1      45.066   3.183   8.887  0.00  0.00    +0.000 A 
ATOM     16  C   UNL     1      45.428   1.829   8.975  0.00  0.00    +0.000 A 
ATOM     17  C   UNL     1      46.295   1.262   8.038  0.00  0.00    +0.000 A 
ATOM     18  C   UNL     1      46.805   2.039   6.999  0.00  0.00    +0.000 A 
ATOM     19  C   UNL     1      46.438   3.376   6.905  0.00  0.00    +0.000 A 
ATOM     20  F   UNL     1      46.921   4.122   5.902  0.00  0.00    +0.000 F 
ATOM     21  C   UNL     1      45.574   3.952   7.832  0.00  0.00    +0.000 A 
ENDBRANCH  14  15
ENDBRANCH  13  14
ENDBRANCH   1  13
TORSDOF 6
ENDMDL
MODEL 7
REMARK VINA RESULT:    -6.466      3.571      7.020
REMARK INTER + INTRA:          -8.948
REMARK INTER:                  -8.756
REMARK INTRA:                  -0.192
REMARK UNBOUND:                -0.403
REMARK  Name = 
REMARK  6 active torsions:
REMARK  status: ('A' for Active; 'I' for Inactive)
REMARK    1  A    between atoms: N_1  and  C_2
REMARK    2  A    between atoms: C_2  and  C_3
REMARK    3  A    between atoms: C_7  and  N_8
REMARK    4  A    between atoms: N_8  and  C_9
REMARK    5  A    between atoms: C_9  and  C_10
REMARK    6  A    between atoms: C_10  and  C_11
REMARK                            x       y       z     vdW  Elec       q    Type
REMARK                         _______ _______ _______ _____ _____    ______ ____
ROOT
ATOM      1  N   UNL     1      45.110   5.092   9.457  0.00  0.00    +0.000 N 
ATOM      2  H   UNL     1      45.849   5.792   9.443  0.00  0.00    +0.000 HD
ENDROOT
BRANCH   1   7
ATOM      3  C   UNL     1      46.659   2.709   7.019  0.00  0.00    +0.000 A 
ATOM      4  C   UNL     1      46.313   1.530   7.666  0.00  0.00    +0.000 A 
ATOM      5  N   UNL     1      45.608   1.479   8.815  0.00  0.00    +0.000 NA
ATOM      6  C   UNL     1      45.231   2.672   9.342  0.00  0.00    +0.000 A 
ATOM      7  C   UNL     1      45.489   3.927   8.781  0.00  0.00    +0.000 A 
ATOM      8  C   UNL     1      46.244   3.913   7.607  0.00  0.00    +0.000 A 
BRANCH   3   9
ATOM      9  C   UNL     1      47.424   2.700   5.727  0.00  0.00    +0.000 C 
BRANCH   9  10
ATOM     10  N   UNL     1      48.520   1.740   5.752  0.00  0.00    +0.000 NA
ATOM     11  H   UNL     1      48.235   0.892   5.265  0.00  0.00    +0.000 HD
ATOM     12  H   UNL     1      48.702   1.469   6.718  0.00  0.00    +0.000 HD
ENDBRANCH   9  10
ENDBRANCH   3   9
ENDBRANCH   1   7
BRANCH   1  13
ATOM     13  C   UNL     1      44.407   4.983  10.734  0.00  0.00    +0.000 C 
BRANCH  13  14
ATOM     14  C   UNL     1      45.406   4.862  11.890  0.00  0.00    +0.000 C 
BRANCH  14  15
ATOM     15  C   UNL     1      45.883   6.214  12.361  0.00  0.00    +0.000 A 
ATOM     16  C   UNL     1      47.182   6.374  12.872  0.00  0.00    +0.000 A 
ATOM     17  C   UNL     1      47.629   7.627  13.299  0.00  0.00    +0.000 A 
ATOM     18  C   UNL     1      46.788   8.735  13.212  0.00  0.00    +0.000 A 
ATOM     19  C   UNL     1      45.507   8.580  12.695  0.00  0.00    +0.000 A 
ATOM     20  F   UNL     1      44.700   9.645  12.605  0.00  0.00    +0.000 F 
ATOM     21  C   UNL     1      45.050   7.336  12.267  0.00  0.00    +0.000 A 
ENDBRANCH  14  15
ENDBRANCH  13  14
ENDBRANCH   1  13
TORSDOF 6
ENDMDL
MODEL 8
REMARK VINA RESULT:    -6.001      2.728      6.247
REMARK INTER + INTRA:          -8.334
REMARK INTER:                  -7.958
REMARK INTRA:                  -0.376
REMARK UNBOUND:                -0.403
REMARK  Name = 
REMARK  6 active torsions:
REMARK  status: ('A' for Active; 'I' for Inactive)
REMARK    1  A    between atoms: N_1  and  C_2
REMARK    2  A    between atoms: C_2  and  C_3
REMARK    3  A    between atoms: C_7  and  N_8
REMARK    4  A    between atoms: N_8  and  C_9
REMARK    5  A    between atoms: C_9  and  C_10
REMARK    6  A    between atoms: C_10  and  C_11
REMARK                            x       y       z     vdW  Elec       q    Type
REMARK                         _______ _______ _______ _____ _____    ______ ____
ROOT
ATOM      1  N   UNL     1      43.552   5.695  10.497  0.00  0.00    +0.000 N 
ATOM      2  H   UNL     1      43.277   6.355   9.772  0.00  0.00    +0.000 HD
ENDROOT
BRANCH   1   7
ATOM      3  C   UNL     1      45.292   3.169   8.349  0.00  0.00    +0.000 A 
ATOM      4  C   UNL     1      44.996   2.044   9.108  0.00  0.00    +0.000 A 
ATOM      5  N   UNL     1      44.267   2.070  10.243  0.00  0.00    +0.000 NA
ATOM      6  C   UNL     1      43.811   3.287  10.636  0.00  0.00    +0.000 A 
ATOM      7  C   UNL     1      44.012   4.491   9.953  0.00  0.00    +0.000 A 
ATOM      8  C   UNL     1      44.796   4.400   8.802  0.00  0.00    +0.000 A 
BRANCH   3   9
ATOM      9  C   UNL     1      46.088   3.072   7.080  0.00  0.00    +0.000 C 
BRANCH   9  10
ATOM     10  N   UNL     1      46.921   4.249   6.871  0.00  0.00    +0.000 NA
ATOM     11  H   UNL     1      47.007   4.426   5.872  0.00  0.00    +0.000 HD
ATOM     12  H   UNL     1      47.862   4.055   7.210  0.00  0.00    +0.000 HD
ENDBRANCH   9  10
ENDBRANCH   3   9
ENDBRANCH   1   7
BRANCH   1  13
ATOM     13  C   UNL     1      44.275   6.297  11.617  0.00  0.00    +0.000 C 
BRANCH  13  14
ATOM     14  C   UNL     1      45.772   6.386  11.306  0.00  0.00    +0.000 C 
BRANCH  14  15
ATOM     15  C   UNL     1      46.613   6.212  12.547  0.00  0.00    +0.000 A 
ATOM     16  C   UNL     1      47.639   7.123  12.847  0.00  0.00    +0.000 A 
ATOM     17  C   UNL     1      48.411   6.969  14.001  0.00  0.00    +0.000 A 
ATOM     18  C   UNL     1      48.164   5.908  14.871  0.00  0.00    +0.000 A 
ATOM     19  C   UNL     1      47.141   5.013  14.580  0.00  0.00    +0.000 A 
ATOM     20  F   UNL     1      46.897   3.997  15.419  0.00  0.00    +0.000 F 
ATOM     21  C   UNL     1      46.365   5.156  13.433  0.00  0.00    +0.000 A 
ENDBRANCH  14  15
ENDBRANCH  13  14
ENDBRANCH   1  13
TORSDOF 6
ENDMDL
MODEL 9
REMARK VINA RESULT:    -5.974      2.200      3.155
REMARK INTER + INTRA:          -8.299
REMARK INTER:                  -7.815
REMARK INTRA:                  -0.484
REMARK UNBOUND:                -0.403
REMARK  Name = 
REMARK  6 active torsions:
REMARK  status: ('A' for Active; 'I' for Inactive)
REMARK    1  A    between atoms: N_1  and  C_2
REMARK    2  A    between atoms: C_2  and  C_3
REMARK    3  A    between atoms: C_7  and  N_8
REMARK    4  A    between atoms: N_8  and  C_9
REMARK    5  A    between atoms: C_9  and  C_10
REMARK    6  A    between atoms: C_10  and  C_11
REMARK                            x       y       z     vdW  Elec       q    Type
REMARK                         _______ _______ _______ _____ _____    ______ ____
ROOT
ATOM      1  N   UNL     1      44.351   6.200  12.687  0.00  0.00    +0.000 N 
ATOM      2  H   UNL     1      43.958   6.164  13.626  0.00  0.00    +0.000 HD
ENDROOT
BRANCH   1   7
ATOM      3  C   UNL     1      47.796   7.627  12.341  0.00  0.00    +0.000 A 
ATOM      4  C   UNL     1      47.438   8.968  12.294  0.00  0.00    +0.000 A 
ATOM      5  N   UNL     1      46.168   9.413  12.382  0.00  0.00    +0.000 NA
ATOM      6  C   UNL     1      45.207   8.464  12.525  0.00  0.00    +0.000 A 
ATOM      7  C   UNL     1      45.431   7.086  12.613  0.00  0.00    +0.000 A 
ATOM      8  C   UNL     1      46.764   6.689  12.489  0.00  0.00    +0.000 A 
BRANCH   3   9
ATOM      9  C   UNL     1      49.232   7.195  12.263  0.00  0.00    +0.000 C 
BRANCH   9  10
ATOM     10  N   UNL     1      49.824   7.042  13.586  0.00  0.00    +0.000 NA
ATOM     11  H   UNL     1      50.351   7.883  13.817  0.00  0.00    +0.000 HD
ATOM     12  H   UNL     1      50.498   6.278  13.562  0.00  0.00    +0.000 HD
ENDBRANCH   9  10
ENDBRANCH   3   9
ENDBRANCH   1   7
BRANCH   1  13
ATOM     13  C   UNL     1      44.445   4.900  12.023  0.00  0.00    +0.000 C 
BRANCH  13  14
ATOM     14  C   UNL     1      43.902   4.987  10.593  0.00  0.00    +0.000 C 
BRANCH  14  15
ATOM     15  C   UNL     1      44.620   4.039   9.663  0.00  0.00    +0.000 A 
ATOM     16  C   UNL     1      44.535   2.650   9.856  0.00  0.00    +0.000 A 
ATOM     17  C   UNL     1      45.190   1.771   8.989  0.00  0.00    +0.000 A 
ATOM     18  C   UNL     1      45.929   2.268   7.918  0.00  0.00    +0.000 A 
ATOM     19  C   UNL     1      46.003   3.642   7.719  0.00  0.00    +0.000 A 
ATOM     20  F   UNL     1      46.707   4.121   6.685  0.00  0.00    +0.000 F 
ATOM     21  C   UNL     1      45.355   4.528   8.576  0.00  0.00    +0.000 A 
ENDBRANCH  14  15
ENDBRANCH  13  14
ENDBRANCH   1  13
TORSDOF 6
ENDMDL
