MODEL 1
REMARK VINA RESULT:    -8.306      0.000      0.000
REMARK INTER + INTRA:         -13.211
REMARK INTER:                 -12.433
REMARK INTRA:                  -0.778
REMARK UNBOUND:                -0.778
REMARK  Name = 
REMARK  9 active torsions:
REMARK  status: ('A' for Active; 'I' for Inactive)
REMARK    1  A    between atoms: N_1  and  C_2
REMARK    2  A    between atoms: C_2  and  N_3
REMARK    3  A    between atoms: C_2  and  C_11
REMARK    4  A    between atoms: N_3  and  C_4
REMARK    5  A    between atoms: C_4  and  C_5
REMARK    6  A    between atoms: C_14  and  C_15
REMARK    7  A    between atoms: C_15  and  N_16
REMARK    8  A    between atoms: N_16  and  C_17
REMARK    9  A    between atoms: C_17  and  C_18
REMARK                            x       y       z     vdW  Elec       q    Type
REMARK                         _______ _______ _______ _____ _____    ______ ____
ROOT
ATOM      1  C   UNL     1      44.871   4.450  11.675  0.00  0.00    +0.000 A 
ATOM      2  C   UNL     1      45.165   5.809  11.887  0.00  0.00    +0.000 A 
ATOM      3  C   UNL     1      46.063   6.205  12.881  0.00  0.00    +0.000 A 
ATOM      4  C   UNL     1      46.711   5.251  13.674  0.00  0.00    +0.000 A 
ATOM      5  C   UNL     1      46.436   3.896  13.459  0.00  0.00    +0.000 A 
ATOM      6  C   UNL     1      45.525   3.501  12.477  0.00  0.00    +0.000 A 
ENDROOT
BRANCH   1   7
ATOM      7  C   UNL     1      43.812   4.066  10.657  0.00  0.00    +0.000 C 
BRANCH   7   8
ATOM      8  N   UNL     1      43.321   5.194   9.897  0.00  0.00    +0.000 NA
ATOM      9  H   UNL     1      43.884   5.993  10.184  0.00  0.00    +0.000 HD
ATOM     10  H   UNL     1      42.391   5.418  10.235  0.00  0.00    +0.000 HD
ENDBRANCH   7   8
BRANCH   7  11
ATOM     11  N   UNL     1      44.296   3.179   9.624  0.00  0.00    +0.000 NA
ATOM     12  H   UNL     1      43.501   2.702   9.207  0.00  0.00    +0.000 HD
BRANCH  11  13
ATOM     13  C   UNL     1      44.999   3.887   8.553  0.00  0.00    +0.000 C 
BRANCH  13  14
ATOM     14  C   UNL     1      45.953   2.958   7.841  0.00  0.00    +0.000 A 
ATOM     15  C   UNL     1      46.726   3.404   6.766  0.00  0.00    +0.000 A 
ATOM     16  C   UNL     1      47.580   2.505   6.144  0.00  0.00    +0.000 A 
ATOM     17  N   UNL     1      47.712   1.213   6.514  0.00  0.00    +0.000 NA
ATOM     18  C   UNL     1      46.957   0.803   7.553  0.00  0.00    +0.000 A 
ATOM     19  C   UNL     1      46.080   1.625   8.242  0.00  0.00    +0.000 A 
ENDBRANCH  13  14
ENDBRANCH  11  13
ENDBRANCH   7  11
ENDBRANCH   1   7
BRANCH   4  20
ATOM     20  C   UNL     1      47.642   5.670  14.785  0.00  0.00    +0.000 C 
BRANCH  20  21
ATOM     21  N   UNL     1      47.281   4.981  16.023  0.00  0.00    +0.000 NA
ATOM     22  H   UNL     1      47.136   3.993  15.809  0.00  0.00    +0.000 HD
BRANCH  21  23
ATOM     23  C   UNL     1      48.348   5.092  17.022  0.00  0.00    +0.000 C 
BRANCH  23  24
ATOM     24  C   UNL     1      49.244   3.886  17.029  0.00  0.00    +0.000 A 
ATOM     25  C   UNL     1      50.407   3.842  17.775  0.00  0.00    +0.000 A 
ATOM     26  N   UNL     1      51.231   2.774  17.797  0.00  0.00    +0.000 NA
ATOM     27  C   UNL     1      50.826   1.749  17.033  0.00  0.00    +0.000 A 
ATOM     28  N   UNL     1      49.705   1.725  16.283  0.00  0.00    +0.000 NA
ATOM     29  N   UNL     1      48.896   2.818  16.281  0.00  0.00    +0.000 NA
ENDBRANCH  23  24
ENDBRANCH  21  23
ENDBRANCH  20  21
ENDBRANCH   4  20
TORSDOF 9
ENDMDL
MODEL 2
REMARK VINA RESULT:    -8.126      1.180      2.018
REMARK INTER + INTRA:         -12.942
REMARK INTER:                 -12.089
REMARK INTRA:                  -0.852
REMARK UNBOUND:                -0.778
REMARK  Name = 
REMARK  9 active torsions:
REMARK  status: ('A' for Active; 'I' for Inactive)
REMARK    1  A    between atoms: N_1  and  C_2
REMARK    2  A    between atoms: C_2  and  N_3
REMARK    3  A    between atoms: C_2  and  C_11
REMARK    4  A    between atoms: N_3  and  C_4
REMARK    5  A    between atoms: C_4  and  C_5
REMARK    6  A    between atoms: C_14  and  C_15
REMARK    7  A    between atoms: C_15  and  N_16
REMARK    8  A    between atoms: N_16  and  C_17
REMARK    9  A    between atoms: C_17  and  C_18
REMARK                            x       y       z     vdW  Elec       q    Type
REMARK                         _______ _______ _______ _____ _____    ______ ____
ROOT
ATOM      1  C   UNL     1      45.122   4.855  11.630  0.00  0.00    +0.000 A 
ATOM      2  C   UNL     1      45.593   4.158  12.758  0.00  0.00    +0.000 A 
ATOM      3  C   UNL     1      46.647   4.659  13.525  0.00  0.00    +0.000 A 
ATOM      4  C   UNL     1      47.242   5.883  13.201  0.00  0.00    +0.000 A 
ATOM      5  C   UNL     1      46.770   6.590  12.089  0.00  0.00    +0.000 A 
ATOM      6  C   UNL     1      45.728   6.081  11.312  0.00  0.00    +0.000 A 
ENDROOT
BRANCH   1   7
ATOM      7  C   UNL     1      44.047   4.227  10.761  0.00  0.00    +0.000 C 
BRANCH   7   8
ATOM      8  N   UNL     1      43.409   5.176   9.876  0.00  0.00    +0.000 NA
ATOM      9  H   UNL     1      42.738   5.687  10.447  0.00  0.00    +0.000 HD
ATOM     10  H   UNL     1      42.828   4.657   9.226  0.00  0.00    +0.000 HD
ENDBRANCH   7   8
BRANCH   7  11
ATOM     11  N   UNL     1      44.552   3.234   9.842  0.00  0.00    +0.000 NA
ATOM     12  H   UNL     1      43.825   2.541   9.679  0.00  0.00    +0.000 HD
BRANCH  11  13
ATOM     13  C   UNL     1      44.924   3.799   8.543  0.00  0.00    +0.000 C 
BRANCH  13  14
ATOM     14  C   UNL     1      45.895   2.891   7.829  0.00  0.00    +0.000 A 
ATOM     15  C   UNL     1      46.062   1.561   8.225  0.00  0.00    +0.000 A 
ATOM     16  C   UNL     1      46.975   0.773   7.538  0.00  0.00    +0.000 A 
ATOM     17  N   UNL     1      47.719   1.214   6.501  0.00  0.00    +0.000 NA
ATOM     18  C   UNL     1      47.541   2.500   6.135  0.00  0.00    +0.000 A 
ATOM     19  C   UNL     1      46.652   3.363   6.754  0.00  0.00    +0.000 A 
ENDBRANCH  13  14
ENDBRANCH  11  13
ENDBRANCH   7  11
ENDBRANCH   1   7
BRANCH   4  20
ATOM     20  C   UNL     1      48.416   6.408  13.991  0.00  0.00    +0.000 C 
BRANCH  20  21
ATOM     21  N   UNL     1      47.962   6.894  15.293  0.00  0.00    +0.000 NA
ATOM     22  H   UNL     1      47.005   6.570  15.441  0.00  0.00    +0.000 HD
BRANCH  21  23
ATOM     23  C   UNL     1      48.805   6.377  16.375  0.00  0.00    +0.000 C 
BRANCH  23  24
ATOM     24  C   UNL     1      48.477   4.951  16.715  0.00  0.00    +0.000 A 
ATOM     25  C   UNL     1      47.195   4.552  17.042  0.00  0.00    +0.000 A 
ATOM     26  N   UNL     1      46.873   3.280  17.354  0.00  0.00    +0.000 NA
ATOM     27  C   UNL     1      47.907   2.425  17.319  0.00  0.00    +0.000 A 
ATOM     28  N   UNL     1      49.180   2.747  17.009  0.00  0.00    +0.000 NA
ATOM     29  N   UNL     1      49.472   4.038  16.700  0.00  0.00    +0.000 NA
ENDBRANCH  23  24
ENDBRANCH  21  23
ENDBRANCH  20  21
ENDBRANCH   4  20
TORSDOF 9
ENDMDL
MODEL 3
REMARK VINA RESULT:    -7.426      1.637      8.337
REMARK INTER + INTRA:         -11.894
REMARK INTER:                 -11.017
REMARK INTRA:                  -0.877
REMARK UNBOUND:                -0.778
REMARK  Name = 
REMARK  9 active torsions:
REMARK  status: ('A' for Active; 'I' for Inactive)
REMARK    1  A    between atoms: N_1  and  C_2
REMARK    2  A    between atoms: C_2  and  N_3
REMARK    3  A    between atoms: C_2  and  C_11
REMARK    4  A    between atoms: N_3  and  C_4
REMARK    5  A    between atoms: C_4  and  C_5
REMARK    6  A    between atoms: C_14  and  C_15
REMARK    7  A    between atoms: C_15  and  N_16
REMARK    8  A    between atoms: N_16  and  C_17
REMARK    9  A    between atoms: C_17  and  C_18
REMARK                            x       y       z     vdW  Elec       q    Type
REMARK                         _______ _______ _______ _____ _____    ______ ____
ROOT
ATOM      1  C   UNL     1      46.899   6.162  12.796  0.00  0.00    +0.000 A 
ATOM      2  C   UNL     1      46.540   6.463  11.470  0.00  0.00    +0.000 A 
ATOM      3  C   UNL     1      45.642   5.657  10.766  0.00  0.00    +0.000 A 
ATOM      4  C   UNL     1      45.060   4.541  11.377  0.00  0.00    +0.000 A 
ATOM      5  C   UNL     1      45.400   4.242  12.702  0.00  0.00    +0.000 A 
ATOM      6  C   UNL     1      46.311   5.038  13.400  0.00  0.00    +0.000 A 
ENDROOT
BRANCH   1   7
ATOM      7  C   UNL     1      47.957   7.000  13.491  0.00  0.00    +0.000 C 
BRANCH   7   8
ATOM      8  N   UNL     1      47.399   7.975  14.401  0.00  0.00    +0.000 NA
ATOM      9  H   UNL     1      48.191   8.481  14.793  0.00  0.00    +0.000 HD
ATOM     10  H   UNL     1      47.012   7.477  15.196  0.00  0.00    +0.000 HD
ENDBRANCH   7   8
BRANCH   7  11
ATOM     11  N   UNL     1      48.830   6.234  14.352  0.00  0.00    +0.000 NA
ATOM     12  H   UNL     1      49.790   6.373  14.047  0.00  0.00    +0.000 HD
BRANCH  11  13
ATOM     13  C   UNL     1      48.745   6.643  15.755  0.00  0.00    +0.000 C 
BRANCH  13  14
ATOM     14  C   UNL     1      48.676   5.434  16.656  0.00  0.00    +0.000 A 
ATOM     15  C   UNL     1      49.672   5.183  17.603  0.00  0.00    +0.000 A 
ATOM     16  C   UNL     1      49.562   4.052  18.399  0.00  0.00    +0.000 A 
ATOM     17  N   UNL     1      48.543   3.170  18.316  0.00  0.00    +0.000 NA
ATOM     18  C   UNL     1      47.592   3.431  17.396  0.00  0.00    +0.000 A 
ATOM     19  C   UNL     1      47.610   4.535  16.559  0.00  0.00    +0.000 A 
ENDBRANCH  13  14
ENDBRANCH  11  13
ENDBRANCH   7  11
ENDBRANCH   1   7
BRANCH   4  20
ATOM     20  C   UNL     1      44.130   3.634  10.610  0.00  0.00    +0.000 C 
BRANCH  20  21
ATOM     21  N   UNL     1      44.783   2.351  10.357  0.00  0.00    +0.000 NA
ATOM     22  H   UNL     1      44.373   1.654  10.982  0.00  0.00    +0.000 HD
BRANCH  21  23
ATOM     23  C   UNL     1      44.580   1.916   8.972  0.00  0.00    +0.000 C 
BRANCH  23  24
ATOM     24  C   UNL     1      45.831   2.045   8.150  0.00  0.00    +0.000 A 
ATOM     25  C   UNL     1      46.239   3.256   7.623  0.00  0.00    +0.000 A 
ATOM     26  N   UNL     1      47.355   3.400   6.879  0.00  0.00    +0.000 NA
ATOM     27  C   UNL     1      48.045   2.264   6.692  0.00  0.00    +0.000 A 
ATOM     28  N   UNL     1      47.704   1.052   7.177  0.00  0.00    +0.000 NA
ATOM     29  N   UNL     1      46.573   0.940   7.922  0.00  0.00    +0.000 NA
ENDBRANCH  23  24
ENDBRANCH  21  23
ENDBRANCH  20  21
ENDBRANCH   4  20
TORSDOF 9
ENDMDL
MODEL 4
REMARK VINA RESULT:    -7.168      1.711      2.296
REMARK INTER + INTRA:         -11.507
REMARK INTER:                 -10.789
REMARK INTRA:                  -0.718
REMARK UNBOUND:                -0.778
REMARK  Name = 
REMARK  9 active torsions:
REMARK  status: ('A' for Active; 'I' for Inactive)
REMARK    1  A    between atoms: N_1  and  C_2
REMARK    2  A    between atoms: C_2  and  N_3
REMARK    3  A    between atoms: C_2  and  C_11
REMARK    4  A    between atoms: N_3  and  C_4
REMARK    5  A    between atoms: C_4  and  C_5
REMARK    6  A    between atoms: C_14  and  C_15
REMARK    7  A    between atoms: C_15  and  N_16
REMARK    8  A    between atoms: N_16  and  C_17
REMARK    9  A    between atoms: C_17  and  C_18
REMARK                            x       y       z     vdW  Elec       q    Type
REMARK                         _______ _______ _______ _____ _____    ______ ____
ROOT
ATOM      1  C   UNL     1      45.077   4.699  11.624  0.00  0.00    +0.000 A 
ATOM      2  C   UNL     1      45.596   5.997  11.780  0.00  0.00    +0.000 A 
ATOM      3  C   UNL     1      46.497   6.295  12.805  0.00  0.00    +0.000 A 
ATOM      4  C   UNL     1      46.924   5.297  13.687  0.00  0.00    +0.000 A 
ATOM      5  C   UNL     1      46.424   3.998  13.531  0.00  0.00    +0.000 A 
ATOM      6  C   UNL     1      45.510   3.705  12.517  0.00  0.00    +0.000 A 
ENDROOT
BRANCH   1   7
ATOM      7  C   UNL     1      44.021   4.439  10.565  0.00  0.00    +0.000 C 
BRANCH   7   8
ATOM      8  N   UNL     1      43.192   5.593  10.297  0.00  0.00    +0.000 NA
ATOM      9  H   UNL     1      43.727   6.183   9.662  0.00  0.00    +0.000 HD
ATOM     10  H   UNL     1      43.135   6.142  11.148  0.00  0.00    +0.000 HD
ENDBRANCH   7   8
BRANCH   7  11
ATOM     11  N   UNL     1      44.568   4.137   9.263  0.00  0.00    +0.000 NA
ATOM     12  H   UNL     1      45.532   4.460   9.232  0.00  0.00    +0.000 HD
BRANCH  11  13
ATOM     13  C   UNL     1      44.572   2.704   8.966  0.00  0.00    +0.000 C 
BRANCH  13  14
ATOM     14  C   UNL     1      45.799   2.330   8.172  0.00  0.00    +0.000 A 
ATOM     15  C   UNL     1      46.542   3.300   7.494  0.00  0.00    +0.000 A 
ATOM     16  C   UNL     1      47.657   2.899   6.773  0.00  0.00    +0.000 A 
ATOM     17  N   UNL     1      48.075   1.618   6.684  0.00  0.00    +0.000 NA
ATOM     18  C   UNL     1      47.345   0.698   7.345  0.00  0.00    +0.000 A 
ATOM     19  C   UNL     1      46.220   0.999   8.096  0.00  0.00    +0.000 A 
ENDBRANCH  13  14
ENDBRANCH  11  13
ENDBRANCH   7  11
ENDBRANCH   1   7
BRANCH   4  20
ATOM     20  C   UNL     1      47.855   5.618  14.829  0.00  0.00    +0.000 C 
BRANCH  20  21
ATOM     21  N   UNL     1      47.375   4.986  16.057  0.00  0.00    +0.000 NA
ATOM     22  H   UNL     1      46.807   4.176  15.800  0.00  0.00    +0.000 HD
BRANCH  21  23
ATOM     23  C   UNL     1      48.492   4.529  16.890  0.00  0.00    +0.000 C 
BRANCH  23  24
ATOM     24  C   UNL     1      48.318   4.918  18.331  0.00  0.00    +0.000 A 
ATOM     25  C   UNL     1      47.650   6.070  18.703  0.00  0.00    +0.000 A 
ATOM     26  N   UNL     1      47.482   6.444  19.988  0.00  0.00    +0.000 NA
ATOM     27  C   UNL     1      48.018   5.602  20.883  0.00  0.00    +0.000 A 
ATOM     28  N   UNL     1      48.680   4.464  20.589  0.00  0.00    +0.000 NA
ATOM     29  N   UNL     1      48.834   4.114  19.285  0.00  0.00    +0.000 NA
ENDBRANCH  23  24
ENDBRANCH  21  23
ENDBRANCH  20  21
ENDBRANCH   4  20
TORSDOF 9
ENDMDL
MODEL 5
REMARK VINA RESULT:    -7.027      4.007      4.766
REMARK INTER + INTRA:         -11.296
REMARK INTER:                 -10.356
REMARK INTRA:                  -0.940
REMARK UNBOUND:                -0.778
REMARK  Name = 
REMARK  9 active torsions:
REMARK  status: ('A' for Active; 'I' for Inactive)
REMARK    1  A    between atoms: N_1  and  C_2
REMARK    2  A    between atoms: C_2  and  N_3
REMARK    3  A    between atoms: C_2  and  C_11
REMARK    4  A    between atoms: N_3  and  C_4
REMARK    5  A    between atoms: C_4  and  C_5
REMARK    6  A    between atoms: C_14  and  C_15
REMARK    7  A    between atoms: C_15  and  N_16
REMARK    8  A    between atoms: N_16  and  C_17
REMARK    9  A    between atoms: C_17  and  C_18
REMARK                            x       y       z     vdW  Elec       q    Type
REMARK                         _______ _______ _______ _____ _____    ______ ____
ROOT
ATOM      1  C   UNL     1      45.066   5.197  11.479  0.00  0.00    +0.000 A 
ATOM      2  C   UNL     1      45.734   6.353  11.037  0.00  0.00    +0.000 A 
ATOM      3  C   UNL     1      46.860   6.836  11.709  0.00  0.00    +0.000 A 
ATOM      4  C   UNL     1      47.363   6.161  12.826  0.00  0.00    +0.000 A 
ATOM      5  C   UNL     1      46.713   5.002  13.264  0.00  0.00    +0.000 A 
ATOM      6  C   UNL     1      45.578   4.529  12.603  0.00  0.00    +0.000 A 
ENDROOT
BRANCH   1   7
ATOM      7  C   UNL     1      43.786   4.764  10.787  0.00  0.00    +0.000 C 
BRANCH   7   8
ATOM      8  N   UNL     1      42.838   5.844  10.622  0.00  0.00    +0.000 NA
ATOM      9  H   UNL     1      42.868   6.097   9.636  0.00  0.00    +0.000 HD
ATOM     10  H   UNL     1      43.210   6.661  11.094  0.00  0.00    +0.000 HD
ENDBRANCH   7   8
BRANCH   7  11
ATOM     11  N   UNL     1      43.985   4.313   9.429  0.00  0.00    +0.000 NA
ATOM     12  H   UNL     1      44.759   4.835   9.024  0.00  0.00    +0.000 HD
BRANCH  11  13
ATOM     13  C   UNL     1      44.319   2.890   9.347  0.00  0.00    +0.000 C 
BRANCH  13  14
ATOM     14  C   UNL     1      45.506   2.676   8.440  0.00  0.00    +0.000 A 
ATOM     15  C   UNL     1      46.083   3.742   7.745  0.00  0.00    +0.000 A 
ATOM     16  C   UNL     1      47.168   3.487   6.919  0.00  0.00    +0.000 A 
ATOM     17  N   UNL     1      47.707   2.262   6.741  0.00  0.00    +0.000 NA
ATOM     18  C   UNL     1      47.135   1.247   7.421  0.00  0.00    +0.000 A 
ATOM     19  C   UNL     1      46.054   1.401   8.273  0.00  0.00    +0.000 A 
ENDBRANCH  13  14
ENDBRANCH  11  13
ENDBRANCH   7  11
ENDBRANCH   1   7
BRANCH   4  20
ATOM     20  C   UNL     1      48.546   6.703  13.590  0.00  0.00    +0.000 C 
BRANCH  20  21
ATOM     21  N   UNL     1      49.707   6.800  12.708  0.00  0.00    +0.000 NA
ATOM     22  H   UNL     1      49.465   6.376  11.811  0.00  0.00    +0.000 HD
BRANCH  21  23
ATOM     23  C   UNL     1      50.084   8.199  12.479  0.00  0.00    +0.000 C 
BRANCH  23  24
ATOM     24  C   UNL     1      51.093   8.339  11.375  0.00  0.00    +0.000 A 
ATOM     25  C   UNL     1      51.780   9.518  11.156  0.00  0.00    +0.000 A 
ATOM     26  N   UNL     1      52.689   9.672  10.171  0.00  0.00    +0.000 NA
ATOM     27  C   UNL     1      52.875   8.579   9.416  0.00  0.00    +0.000 A 
ATOM     28  N   UNL     1      52.240   7.399   9.575  0.00  0.00    +0.000 NA
ATOM     29  N   UNL     1      51.330   7.276  10.576  0.00  0.00    +0.000 NA
ENDBRANCH  23  24
ENDBRANCH  21  23
ENDBRANCH  20  21
ENDBRANCH   4  20
TORSDOF 9
ENDMDL
MODEL 6
REMARK VINA RESULT:    -6.987      1.427      8.790
REMARK INTER + INTRA:         -11.236
REMARK INTER:                 -10.465
REMARK INTRA:                  -0.772
REMARK UNBOUND:                -0.778
REMARK  Name = 
REMARK  9 active torsions:
REMARK  status: ('A' for Active; 'I' for Inactive)
REMARK    1  A    between atoms: N_1  and  C_2
REMARK    2  A    between atoms: C_2  and  N_3
REMARK    3  A    between atoms: C_2  and  C_11
REMARK    4  A    between atoms: N_3  and  C_4
REMARK    5  A    between atoms: C_4  and  C_5
REMARK    6  A    between atoms: C_14  and  C_15
REMARK    7  A    between atoms: C_15  and  N_16
REMARK    8  A    between atoms: N_16  and  C_17
REMARK    9  A    between atoms: C_17  and  C_18
REMARK                            x       y       z     vdW  Elec       q    Type
REMARK                         _______ _______ _______ _____ _____    ______ ____
ROOT
ATOM      1  C   UNL     1      46.577   4.924  13.584  0.00  0.00    +0.000 A 
ATOM      2  C   UNL     1      46.094   3.669  13.172  0.00  0.00    +0.000 A 
ATOM      3  C   UNL     1      45.116   3.563  12.181  0.00  0.00    +0.000 A 
ATOM      4  C   UNL     1      44.612   4.709  11.556  0.00  0.00    +0.000 A 
ATOM      5  C   UNL     1      45.098   5.962  11.949  0.00  0.00    +0.000 A 
ATOM      6  C   UNL     1      46.063   6.068  12.953  0.00  0.00    +0.000 A 
ENDROOT
BRANCH   1   7
ATOM      7  C   UNL     1      47.562   5.004  14.737  0.00  0.00    +0.000 C 
BRANCH   7   8
ATOM      8  N   UNL     1      48.012   6.351  15.005  0.00  0.00    +0.000 NA
ATOM      9  H   UNL     1      48.691   6.277  15.761  0.00  0.00    +0.000 HD
ATOM     10  H   UNL     1      47.241   6.863  15.421  0.00  0.00    +0.000 HD
ENDBRANCH   7   8
BRANCH   7  11
ATOM     11  N   UNL     1      47.000   4.604  16.007  0.00  0.00    +0.000 NA
ATOM     12  H   UNL     1      46.029   4.338  15.864  0.00  0.00    +0.000 HD
BRANCH  11  13
ATOM     13  C   UNL     1      47.692   3.456  16.597  0.00  0.00    +0.000 C 
BRANCH  13  14
ATOM     14  C   UNL     1      48.684   3.912  17.638  0.00  0.00    +0.000 A 
ATOM     15  C   UNL     1      48.257   4.512  18.826  0.00  0.00    +0.000 A 
ATOM     16  C   UNL     1      49.213   4.920  19.745  0.00  0.00    +0.000 A 
ATOM     17  N   UNL     1      50.543   4.774  19.562  0.00  0.00    +0.000 NA
ATOM     18  C   UNL     1      50.934   4.194  18.409  0.00  0.00    +0.000 A 
ATOM     19  C   UNL     1      50.057   3.748  17.433  0.00  0.00    +0.000 A 
ENDBRANCH  13  14
ENDBRANCH  11  13
ENDBRANCH   7  11
ENDBRANCH   1   7
BRANCH   4  20
ATOM     20  C   UNL     1      43.519   4.611  10.522  0.00  0.00    +0.000 C 
BRANCH  20  21
ATOM     21  N   UNL     1      43.887   3.634   9.498  0.00  0.00    +0.000 NA
ATOM     22  H   UNL     1      43.055   3.420   8.945  0.00  0.00    +0.000 HD
BRANCH  21  23
ATOM     23  C   UNL     1      44.920   4.166   8.604  0.00  0.00    +0.000 C 
BRANCH  23  24
ATOM     24  C   UNL     1      45.831   3.089   8.089  0.00  0.00    +0.000 A 
ATOM     25  C   UNL     1      45.702   1.770   8.482  0.00  0.00    +0.000 A 
ATOM     26  N   UNL     1      46.508   0.784   8.038  0.00  0.00    +0.000 NA
ATOM     27  C   UNL     1      47.452   1.189   7.175  0.00  0.00    +0.000 A 
ATOM     28  N   UNL     1      47.633   2.456   6.750  0.00  0.00    +0.000 NA
ATOM     29  N   UNL     1      46.805   3.428   7.217  0.00  0.00    +0.000 NA
ENDBRANCH  23  24
ENDBRANCH  21  23
ENDBRANCH  20  21
ENDBRANCH   4  20
TORSDOF 9
ENDMDL
MODEL 7
REMARK VINA RESULT:    -6.903      2.352      3.382
REMARK INTER + INTRA:         -11.111
REMARK INTER:                 -10.473
REMARK INTRA:                  -0.638
REMARK UNBOUND:                -0.778
REMARK  Name = 
REMARK  9 active torsions:
REMARK  status: ('A' for Active; 'I' for Inactive)
REMARK    1  A    between atoms: N_1  and  C_2
REMARK    2  A    between atoms: C_2  and  N_3
REMARK    3  A    between atoms: C_2  and  C_11
REMARK    4  A    between atoms: N_3  and  C_4
REMARK    5  A    between atoms: C_4  and  C_5
REMARK    6  A    between atoms: C_14  and  C_15
REMARK    7  A    between atoms: C_15  and  N_16
REMARK    8  A    between atoms: N_16  and  C_17
REMARK    9  A    between atoms: C_17  and  C_18
REMARK                            x       y       z     vdW  Elec       q    Type
REMARK                         _______ _______ _______ _____ _____    ______ ____
ROOT
ATOM      1  C   UNL     1      45.245   4.865  11.791  0.00  0.00    +0.000 A 
ATOM      2  C   UNL     1      45.761   4.173  12.901  0.00  0.00    +0.000 A 
ATOM      3  C   UNL     1      46.801   4.708  13.665  0.00  0.00    +0.000 A 
ATOM      4  C   UNL     1      47.335   5.964  13.355  0.00  0.00    +0.000 A 
ATOM      5  C   UNL     1      46.818   6.667  12.261  0.00  0.00    +0.000 A 
ATOM      6  C   UNL     1      45.791   6.122  11.487  0.00  0.00    +0.000 A 
ENDROOT
BRANCH   1   7
ATOM      7  C   UNL     1      44.189   4.203  10.924  0.00  0.00    +0.000 C 
BRANCH   7   8
ATOM      8  N   UNL     1      43.547   5.124  10.013  0.00  0.00    +0.000 NA
ATOM      9  H   UNL     1      44.291   5.523   9.444  0.00  0.00    +0.000 HD
ATOM     10  H   UNL     1      43.204   5.912  10.553  0.00  0.00    +0.000 HD
ENDBRANCH   7   8
BRANCH   7  11
ATOM     11  N   UNL     1      44.720   3.199  10.030  0.00  0.00    +0.000 NA
ATOM     12  H   UNL     1      44.058   2.428   9.978  0.00  0.00    +0.000 HD
BRANCH  11  13
ATOM     13  C   UNL     1      44.926   3.700   8.670  0.00  0.00    +0.000 C 
BRANCH  13  14
ATOM     14  C   UNL     1      45.928   2.844   7.936  0.00  0.00    +0.000 A 
ATOM     15  C   UNL     1      46.067   1.484   8.231  0.00  0.00    +0.000 A 
ATOM     16  C   UNL     1      47.010   0.746   7.531  0.00  0.00    +0.000 A 
ATOM     17  N   UNL     1      47.809   1.262   6.573  0.00  0.00    +0.000 NA
ATOM     18  C   UNL     1      47.659   2.575   6.303  0.00  0.00    +0.000 A 
ATOM     19  C   UNL     1      46.743   3.394   6.943  0.00  0.00    +0.000 A 
ENDBRANCH  13  14
ENDBRANCH  11  13
ENDBRANCH   7  11
ENDBRANCH   1   7
BRANCH   4  20
ATOM     20  C   UNL     1      48.493   6.529  14.140  0.00  0.00    +0.000 C 
BRANCH  20  21
ATOM     21  N   UNL     1      48.029   6.993  15.447  0.00  0.00    +0.000 NA
ATOM     22  H   UNL     1      47.222   6.431  15.719  0.00  0.00    +0.000 HD
BRANCH  21  23
ATOM     23  C   UNL     1      49.073   6.840  16.465  0.00  0.00    +0.000 C 
BRANCH  23  24
ATOM     24  C   UNL     1      48.647   7.390  17.797  0.00  0.00    +0.000 A 
ATOM     25  C   UNL     1      47.974   8.592  17.913  0.00  0.00    +0.000 A 
ATOM     26  N   UNL     1      47.583   9.109  19.095  0.00  0.00    +0.000 NA
ATOM     27  C   UNL     1      47.901   8.357  20.160  0.00  0.00    +0.000 A 
ATOM     28  N   UNL     1      48.554   7.177  20.118  0.00  0.00    +0.000 NA
ATOM     29  N   UNL     1      48.935   6.682  18.911  0.00  0.00    +0.000 NA
ENDBRANCH  23  24
ENDBRANCH  21  23
ENDBRANCH  20  21
ENDBRANCH   4  20
TORSDOF 9
ENDMDL
MODEL 8
REMARK VINA RESULT:    -6.850      2.027      2.943
REMARK INTER + INTRA:         -11.032
REMARK INTER:                 -10.207
REMARK INTRA:                  -0.825
REMARK UNBOUND:                -0.778
REMARK  Name = 
REMARK  9 active torsions:
REMARK  status: ('A' for Active; 'I' for Inactive)
REMARK    1  A    between atoms: N_1  and  C_2
REMARK    2  A    between atoms: C_2  and  N_3
REMARK    3  A    between atoms: C_2  and  C_11
REMARK    4  A    between atoms: N_3  and  C_4
REMARK    5  A    between atoms: C_4  and  C_5
REMARK    6  A    between atoms: C_14  and  C_15
REMARK    7  A    between atoms: C_15  and  N_16
REMARK    8  A    between atoms: N_16  and  C_17
REMARK    9  A    between atoms: C_17  and  C_18
REMARK                            x       y       z     vdW  Elec       q    Type
REMARK                         _______ _______ _______ _____ _____    ______ ____
ROOT
ATOM      1  C   UNL     1      45.391   4.807  12.313  0.00  0.00    +0.000 A 
ATOM      2  C   UNL     1      46.578   4.756  13.065  0.00  0.00    +0.000 A 
ATOM      3  C   UNL     1      47.257   5.924  13.419  0.00  0.00    +0.000 A 
ATOM      4  C   UNL     1      46.753   7.177  13.052  0.00  0.00    +0.000 A 
ATOM      5  C   UNL     1      45.564   7.238  12.316  0.00  0.00    +0.000 A 
ATOM      6  C   UNL     1      44.895   6.069  11.947  0.00  0.00    +0.000 A 
ENDROOT
BRANCH   1   7
ATOM      7  C   UNL     1      44.740   3.513  11.858  0.00  0.00    +0.000 C 
BRANCH   7   8
ATOM      8  N   UNL     1      43.604   3.134  12.669  0.00  0.00    +0.000 NA
ATOM      9  H   UNL     1      43.120   4.001  12.898  0.00  0.00    +0.000 HD
ATOM     10  H   UNL     1      43.953   2.807  13.564  0.00  0.00    +0.000 HD
ENDBRANCH   7   8
BRANCH   7  11
ATOM     11  N   UNL     1      44.167   3.587  10.533  0.00  0.00    +0.000 NA
ATOM     12  H   UNL     1      44.639   4.325  10.016  0.00  0.00    +0.000 HD
BRANCH  11  13
ATOM     13  C   UNL     1      44.326   2.344   9.776  0.00  0.00    +0.000 C 
BRANCH  13  14
ATOM     14  C   UNL     1      45.383   2.504   8.711  0.00  0.00    +0.000 A 
ATOM     15  C   UNL     1      46.136   1.410   8.273  0.00  0.00    +0.000 A 
ATOM     16  C   UNL     1      47.100   1.616   7.298  0.00  0.00    +0.000 A 
ATOM     17  N   UNL     1      47.362   2.818   6.740  0.00  0.00    +0.000 NA
ATOM     18  C   UNL     1      46.625   3.860   7.177  0.00  0.00    +0.000 A 
ATOM     19  C   UNL     1      45.636   3.755   8.141  0.00  0.00    +0.000 A 
ENDBRANCH  13  14
ENDBRANCH  11  13
ENDBRANCH   7  11
ENDBRANCH   1   7
BRANCH   4  20
ATOM     20  C   UNL     1      47.505   8.442  13.383  0.00  0.00    +0.000 C 
BRANCH  20  21
ATOM     21  N   UNL     1      47.387   8.733  14.810  0.00  0.00    +0.000 NA
ATOM     22  H   UNL     1      46.854   7.980  15.248  0.00  0.00    +0.000 HD
BRANCH  21  23
ATOM     23  C   UNL     1      48.706   8.806  15.448  0.00  0.00    +0.000 C 
BRANCH  23  24
ATOM     24  C   UNL     1      48.986   7.603  16.304  0.00  0.00    +0.000 A 
ATOM     25  C   UNL     1      48.639   7.558  17.641  0.00  0.00    +0.000 A 
ATOM     26  N   UNL     1      48.882   6.494  18.433  0.00  0.00    +0.000 NA
ATOM     27  C   UNL     1      49.491   5.472  17.812  0.00  0.00    +0.000 A 
ATOM     28  N   UNL     1      49.856   5.449  16.514  0.00  0.00    +0.000 NA
ATOM     29  N   UNL     1      49.598   6.538  15.743  0.00  0.00    +0.000 NA
ENDBRANCH  23  24
ENDBRANCH  21  23
ENDBRANCH  20  21
ENDBRANCH   4  20
TORSDOF 9
ENDMDL
MODEL 9
REMARK VINA RESULT:    -6.830      3.109      8.228
REMARK INTER + INTRA:         -11.001
REMARK INTER:                 -10.053
REMARK INTRA:                  -0.948
REMARK UNBOUND:                -0.778
REMARK  Name = 
REMARK  9 active torsions:
REMARK  status: ('A' for Active; 'I' for Inactive)
REMARK    1  A    between atoms: N_1  and  C_2
REMARK    2  A    between atoms: C_2  and  N_3
REMARK    3  A    between atoms: C_2  and  C_11
REMARK    4  A    between atoms: N_3  and  C_4
REMARK    5  A    between atoms: C_4  and  C_5
REMARK    6  A    between atoms: C_14  and  C_15
REMARK    7  A    between atoms: C_15  and  N_16
REMARK    8  A    between atoms: N_16  and  C_17
REMARK    9  A    between atoms: C_17  and  C_18
REMARK                            x       y       z     vdW  Elec       q    Type
REMARK                         _______ _______ _______ _____ _____    ______ ____
ROOT
ATOM      1  C   UNL     1      47.250   6.004  13.200  0.00  0.00    +0.000 A 
ATOM      2  C   UNL     1      46.751   4.753  13.606  0.00  0.00    +0.000 A 
ATOM      3  C   UNL     1      45.815   4.065  12.831  0.00  0.00    +0.000 A 
ATOM      4  C   UNL     1      45.371   4.597  11.616  0.00  0.00    +0.000 A 
ATOM      5  C   UNL     1      45.873   5.835  11.197  0.00  0.00    +0.000 A 
ATOM      6  C   UNL     1      46.795   6.531  11.980  0.00  0.00    +0.000 A 
ENDROOT
BRANCH   1   7
ATOM      7  C   UNL     1      48.184   6.770  14.120  0.00  0.00    +0.000 C 
BRANCH   7   8
ATOM      8  N   UNL     1      48.354   6.137  15.409  0.00  0.00    +0.000 NA
ATOM      9  H   UNL     1      47.421   6.066  15.813  0.00  0.00    +0.000 HD
ATOM     10  H   UNL     1      48.832   6.792  16.019  0.00  0.00    +0.000 HD
ENDBRANCH   7   8
BRANCH   7  11
ATOM     11  N   UNL     1      49.541   6.850  13.631  0.00  0.00    +0.000 NA
ATOM     12  H   UNL     1      49.525   6.789  12.616  0.00  0.00    +0.000 HD
BRANCH  11  13
ATOM     13  C   UNL     1      50.200   8.108  13.988  0.00  0.00    +0.000 C 
BRANCH  13  14
ATOM     14  C   UNL     1      49.596   9.259  13.221  0.00  0.00    +0.000 A 
ATOM     15  C   UNL     1      49.053  10.362  13.886  0.00  0.00    +0.000 A 
ATOM     16  C   UNL     1      48.504  11.388  13.131  0.00  0.00    +0.000 A 
ATOM     17  N   UNL     1      48.459  11.388  11.782  0.00  0.00    +0.000 NA
ATOM     18  C   UNL     1      48.989  10.315  11.160  0.00  0.00    +0.000 A 
ATOM     19  C   UNL     1      49.564   9.244  11.824  0.00  0.00    +0.000 A 
ENDBRANCH  13  14
ENDBRANCH  11  13
ENDBRANCH   7  11
ENDBRANCH   1   7
BRANCH   4  20
ATOM     20  C   UNL     1      44.322   3.887  10.796  0.00  0.00    +0.000 C 
BRANCH  20  21
ATOM     21  N   UNL     1      44.749   2.517  10.519  0.00  0.00    +0.000 NA
ATOM     22  H   UNL     1      44.233   1.889  11.138  0.00  0.00    +0.000 HD
BRANCH  21  23
ATOM     23  C   UNL     1      44.463   2.144   9.130  0.00  0.00    +0.000 C 
BRANCH  23  24
ATOM     24  C   UNL     1      45.705   2.117   8.285  0.00  0.00    +0.000 A 
ATOM     25  C   UNL     1      46.227   3.263   7.714  0.00  0.00    +0.000 A 
ATOM     26  N   UNL     1      47.338   3.267   6.949  0.00  0.00    +0.000 NA
ATOM     27  C   UNL     1      47.903   2.061   6.788  0.00  0.00    +0.000 A 
ATOM     28  N   UNL     1      47.447   0.906   7.316  0.00  0.00    +0.000 NA
ATOM     29  N   UNL     1      46.324   0.935   8.082  0.00  0.00    +0.000 NA
ENDBRANCH  23  24
ENDBRANCH  21  23
ENDBRANCH  20  21
ENDBRANCH   4  20
TORSDOF 9
ENDMDL
