MODEL 1
REMARK VINA RESULT:    -7.164      0.000      0.000
REMARK INTER + INTRA:         -11.274
REMARK INTER:                 -10.515
REMARK INTRA:                  -0.759
REMARK UNBOUND:                -0.759
REMARK  Name = 
REMARK  11 active torsions:
REMARK  status: ('A' for Active; 'I' for Inactive)
REMARK    1  A    between atoms: C_1  and  O_2
REMARK    2  A    between atoms: O_2  and  C_3
REMARK    3  A    between atoms: C_5  and  C_6
REMARK    4  A    between atoms: C_6  and  N_7
REMARK    5  A    between atoms: N_7  and  C_8
REMARK    6  A    between atoms: N_7  and  C_9
REMARK    7  A    between atoms: C_9  and  C_10
REMARK    8  A    between atoms: C_15  and  C_16
REMARK    9  A    between atoms: C_16  and  N_17
REMARK   10  A    between atoms: N_17  and  C_18
REMARK   11  A    between atoms: C_19  and  C_21
REMARK                            x       y       z     vdW  Elec       q    Type
REMARK                         _______ _______ _______ _____ _____    ______ ____
ROOT
ATOM      1  C   UNL     1      49.015   7.499  13.677  0.00  0.00    +0.000 A 
ATOM      2  C   UNL     1      49.807   7.649  12.519  0.00  0.00    +0.000 A 
ATOM      3  C   UNL     1      50.751   8.689  12.388  0.00  0.00    +0.000 A 
ATOM      4  C   UNL     1      50.869   9.670  13.370  0.00  0.00    +0.000 A 
ATOM      5  C   UNL     1      50.163   9.503  14.548  0.00  0.00    +0.000 A 
ATOM      6  C   UNL     1      49.391   8.336  14.748  0.00  0.00    +0.000 A 
ENDROOT
BRANCH   1   7
ATOM      7  C   UNL     1      48.059   6.295  13.855  0.00  0.00    +0.000 C 
BRANCH   7   8
ATOM      8  N   UNL     1      46.844   6.207  12.943  0.00  0.00    +0.000 NA
ATOM      9  C   UNL     1      46.144   7.512  12.973  0.00  0.00    +0.000 C 
BRANCH   8  10
ATOM     10  C   UNL     1      45.859   5.189  13.413  0.00  0.00    +0.000 C 
BRANCH  10  13
ATOM     11  C   UNL     1      44.232   3.625  10.297  0.00  0.00    +0.000 A 
ATOM     12  C   UNL     1      45.139   4.391  11.016  0.00  0.00    +0.000 A 
ATOM     13  C   UNL     1      45.093   4.299  12.401  0.00  0.00    +0.000 A 
ATOM     14  N   UNL     1      44.218   3.433  12.992  0.00  0.00    +0.000 NA
ATOM     15  C   UNL     1      43.431   2.699  12.189  0.00  0.00    +0.000 A 
ATOM     16  N   UNL     1      43.380   2.757  10.858  0.00  0.00    +0.000 NA
BRANCH  11  18
ATOM     17  C   UNL     1      45.466   3.928   8.280  0.00  0.00    +0.000 C 
ATOM     18  O   UNL     1      44.195   3.819   8.930  0.00  0.00    +0.000 OA
ENDBRANCH  11  18
ENDBRANCH  10  13
ENDBRANCH   8  10
ENDBRANCH   7   8
ENDBRANCH   1   7
BRANCH   6  19
ATOM     19  C   UNL     1      49.379   7.783  16.153  0.00  0.00    +0.000 C 
BRANCH  19  20
ATOM     20  N   UNL     1      50.476   6.793  16.369  0.00  0.00    +0.000 N 
ATOM     21  C   UNL     1      51.810   7.107  15.859  0.00  0.00    +0.000 C 
ATOM     22  C   UNL     1      50.158   5.684  17.159  0.00  0.00    +0.000 C 
ATOM     23  O   UNL     1      48.995   5.609  17.588  0.00  0.00    +0.000 OA
BRANCH  22  24
ATOM     24  C   UNL     1      51.100   4.715  17.699  0.00  0.00    +0.000 A 
ATOM     25  C   UNL     1      51.968   5.259  18.658  0.00  0.00    +0.000 A 
ATOM     26  S   UNL     1      53.100   4.195  19.302  0.00  0.00    +0.000 S 
ATOM     27  C   UNL     1      52.483   2.919  18.371  0.00  0.00    +0.000 A 
ATOM     28  N   UNL     1      53.071   1.706  18.464  0.00  0.00    +0.000 NA
ATOM     29  C   UNL     1      52.450   0.766  17.834  0.00  0.00    +0.000 A 
ATOM     30  N   UNL     1      51.304   0.947  17.115  0.00  0.00    +0.000 N 
ATOM     31  C   UNL     1      50.653   2.169  17.003  0.00  0.00    +0.000 A 
ATOM     32  O   UNL     1      49.556   2.255  16.457  0.00  0.00    +0.000 OA
ATOM     33  C   UNL     1      51.352   3.279  17.632  0.00  0.00    +0.000 A 
ATOM     34  H   UNL     1      50.838   0.144  16.719  0.00  0.00    +0.000 HD
ENDBRANCH  22  24
ENDBRANCH  19  20
ENDBRANCH   6  19
TORSDOF 8
ENDMDL
MODEL 2
REMARK VINA RESULT:    -7.122      2.800      7.857
REMARK INTER + INTRA:         -11.213
REMARK INTER:                 -10.364
REMARK INTRA:                  -0.849
REMARK UNBOUND:                -0.759
REMARK  Name = 
REMARK  11 active torsions:
REMARK  status: ('A' for Active; 'I' for Inactive)
REMARK    1  A    between atoms: C_1  and  O_2
REMARK    2  A    between atoms: O_2  and  C_3
REMARK    3  A    between atoms: C_5  and  C_6
REMARK    4  A    between atoms: C_6  and  N_7
REMARK    5  A    between atoms: N_7  and  C_8
REMARK    6  A    between atoms: N_7  and  C_9
REMARK    7  A    between atoms: C_9  and  C_10
REMARK    8  A    between atoms: C_15  and  C_16
REMARK    9  A    between atoms: C_16  and  N_17
REMARK   10  A    between atoms: N_17  and  C_18
REMARK   11  A    between atoms: C_19  and  C_21
REMARK                            x       y       z     vdW  Elec       q    Type
REMARK                         _______ _______ _______ _____ _____    ______ ____
ROOT
ATOM      1  C   UNL     1      48.835   9.036  14.312  0.00  0.00    +0.000 A 
ATOM      2  C   UNL     1      49.719  10.124  14.149  0.00  0.00    +0.000 A 
ATOM      3  C   UNL     1      50.071  10.618  12.875  0.00  0.00    +0.000 A 
ATOM      4  C   UNL     1      49.626   9.982  11.719  0.00  0.00    +0.000 A 
ATOM      5  C   UNL     1      48.697   8.965  11.848  0.00  0.00    +0.000 A 
ATOM      6  C   UNL     1      48.189   8.633  13.125  0.00  0.00    +0.000 A 
ENDROOT
BRANCH   1   7
ATOM      7  C   UNL     1      48.372   8.570  15.713  0.00  0.00    +0.000 C 
BRANCH   7   8
ATOM      8  N   UNL     1      49.335   7.731  16.540  0.00  0.00    +0.000 NA
ATOM      9  C   UNL     1      50.152   6.912  15.614  0.00  0.00    +0.000 C 
BRANCH   8  10
ATOM     10  C   UNL     1      48.621   6.771  17.434  0.00  0.00    +0.000 C 
BRANCH  10  13
ATOM     11  C   UNL     1      50.233   3.278  17.405  0.00  0.00    +0.000 A 
ATOM     12  C   UNL     1      50.106   4.623  17.721  0.00  0.00    +0.000 A 
ATOM     13  C   UNL     1      48.920   5.251  17.365  0.00  0.00    +0.000 A 
ATOM     14  N   UNL     1      47.919   4.526  16.783  0.00  0.00    +0.000 NA
ATOM     15  C   UNL     1      48.137   3.217  16.581  0.00  0.00    +0.000 A 
ATOM     16  N   UNL     1      49.256   2.547  16.852  0.00  0.00    +0.000 NA
BRANCH  11  18
ATOM     17  C   UNL     1      51.526   1.276  17.444  0.00  0.00    +0.000 C 
ATOM     18  O   UNL     1      51.461   2.692  17.643  0.00  0.00    +0.000 OA
ENDBRANCH  11  18
ENDBRANCH  10  13
ENDBRANCH   8  10
ENDBRANCH   7   8
ENDBRANCH   1   7
BRANCH   6  19
ATOM     19  C   UNL     1      46.730   8.245  13.176  0.00  0.00    +0.000 C 
BRANCH  19  20
ATOM     20  N   UNL     1      46.521   6.819  12.783  0.00  0.00    +0.000 N 
ATOM     21  C   UNL     1      47.272   5.784  13.491  0.00  0.00    +0.000 C 
ATOM     22  C   UNL     1      45.518   6.581  11.839  0.00  0.00    +0.000 C 
ATOM     23  O   UNL     1      44.912   7.569  11.395  0.00  0.00    +0.000 OA
BRANCH  22  24
ATOM     24  C   UNL     1      44.974   5.282  11.473  0.00  0.00    +0.000 A 
ATOM     25  C   UNL     1      44.058   4.780  12.410  0.00  0.00    +0.000 A 
ATOM     26  S   UNL     1      43.411   3.268  12.057  0.00  0.00    +0.000 S 
ATOM     27  C   UNL     1      44.283   3.195  10.604  0.00  0.00    +0.000 A 
ATOM     28  N   UNL     1      44.168   2.090   9.834  0.00  0.00    +0.000 NA
ATOM     29  C   UNL     1      44.749   2.181   8.685  0.00  0.00    +0.000 A 
ATOM     30  N   UNL     1      45.441   3.276   8.257  0.00  0.00    +0.000 N 
ATOM     31  C   UNL     1      45.574   4.441   9.003  0.00  0.00    +0.000 A 
ATOM     32  O   UNL     1      46.092   5.445   8.523  0.00  0.00    +0.000 OA
ATOM     33  C   UNL     1      45.002   4.365  10.338  0.00  0.00    +0.000 A 
ATOM     34  H   UNL     1      45.798   3.296   7.313  0.00  0.00    +0.000 HD
ENDBRANCH  22  24
ENDBRANCH  19  20
ENDBRANCH   6  19
TORSDOF 8
ENDMDL
MODEL 3
REMARK VINA RESULT:    -6.924      2.726      3.598
REMARK INTER + INTRA:         -10.921
REMARK INTER:                 -10.227
REMARK INTRA:                  -0.694
REMARK UNBOUND:                -0.759
REMARK  Name = 
REMARK  11 active torsions:
REMARK  status: ('A' for Active; 'I' for Inactive)
REMARK    1  A    between atoms: C_1  and  O_2
REMARK    2  A    between atoms: O_2  and  C_3
REMARK    3  A    between atoms: C_5  and  C_6
REMARK    4  A    between atoms: C_6  and  N_7
REMARK    5  A    between atoms: N_7  and  C_8
REMARK    6  A    between atoms: N_7  and  C_9
REMARK    7  A    between atoms: C_9  and  C_10
REMARK    8  A    between atoms: C_15  and  C_16
REMARK    9  A    between atoms: C_16  and  N_17
REMARK   10  A    between atoms: N_17  and  C_18
REMARK   11  A    between atoms: C_19  and  C_21
REMARK                            x       y       z     vdW  Elec       q    Type
REMARK                         _______ _______ _______ _____ _____    ______ ____
ROOT
ATOM      1  C   UNL     1      46.143   9.831  12.124  0.00  0.00    +0.000 A 
ATOM      2  C   UNL     1      45.648  10.761  11.187  0.00  0.00    +0.000 A 
ATOM      3  C   UNL     1      46.449  11.802  10.672  0.00  0.00    +0.000 A 
ATOM      4  C   UNL     1      47.743  12.006  11.147  0.00  0.00    +0.000 A 
ATOM      5  C   UNL     1      48.279  11.063  12.006  0.00  0.00    +0.000 A 
ATOM      6  C   UNL     1      47.535   9.907  12.336  0.00  0.00    +0.000 A 
ENDROOT
BRANCH   1   7
ATOM      7  C   UNL     1      45.291   8.630  12.603  0.00  0.00    +0.000 C 
BRANCH   7   8
ATOM      8  N   UNL     1      45.087   7.471  11.639  0.00  0.00    +0.000 NA
ATOM      9  C   UNL     1      43.642   7.379  11.323  0.00  0.00    +0.000 C 
BRANCH   8  10
ATOM     10  C   UNL     1      45.471   6.161  12.244  0.00  0.00    +0.000 C 
BRANCH  10  13
ATOM     11  C   UNL     1      44.380   3.197  10.048  0.00  0.00    +0.000 A 
ATOM     12  C   UNL     1      45.133   4.301  10.419  0.00  0.00    +0.000 A 
ATOM     13  C   UNL     1      44.904   4.832  11.682  0.00  0.00    +0.000 A 
ATOM     14  N   UNL     1      44.010   4.226  12.518  0.00  0.00    +0.000 NA
ATOM     15  C   UNL     1      43.384   3.126  12.068  0.00  0.00    +0.000 A 
ATOM     16  N   UNL     1      43.513   2.578  10.860  0.00  0.00    +0.000 NA
BRANCH  11  18
ATOM     17  C   UNL     1      45.753   2.099   8.437  0.00  0.00    +0.000 C 
ATOM     18  O   UNL     1      44.518   2.755   8.746  0.00  0.00    +0.000 OA
ENDBRANCH  11  18
ENDBRANCH  10  13
ENDBRANCH   8  10
ENDBRANCH   7   8
ENDBRANCH   1   7
BRANCH   6  19
ATOM     19  C   UNL     1      48.329   8.630  12.484  0.00  0.00    +0.000 C 
BRANCH  19  20
ATOM     20  N   UNL     1      48.569   8.290  13.919  0.00  0.00    +0.000 N 
ATOM     21  C   UNL     1      48.378   9.333  14.925  0.00  0.00    +0.000 C 
ATOM     22  C   UNL     1      48.844   6.947  14.195  0.00  0.00    +0.000 C 
ATOM     23  O   UNL     1      48.888   6.168  13.230  0.00  0.00    +0.000 OA
BRANCH  22  24
ATOM     24  C   UNL     1      48.883   6.332  15.513  0.00  0.00    +0.000 A 
ATOM     25  C   UNL     1      49.621   7.071  16.450  0.00  0.00    +0.000 A 
ATOM     26  S   UNL     1      49.726   6.399  17.988  0.00  0.00    +0.000 S 
ATOM     27  C   UNL     1      48.757   5.089  17.520  0.00  0.00    +0.000 A 
ATOM     28  N   UNL     1      48.497   4.120  18.426  0.00  0.00    +0.000 NA
ATOM     29  C   UNL     1      47.639   3.240  18.029  0.00  0.00    +0.000 A 
ATOM     30  N   UNL     1      47.037   3.248  16.805  0.00  0.00    +0.000 N 
ATOM     31  C   UNL     1      47.258   4.230  15.847  0.00  0.00    +0.000 A 
ATOM     32  O   UNL     1      46.596   4.269  14.814  0.00  0.00    +0.000 OA
ATOM     33  C   UNL     1      48.275   5.205  16.213  0.00  0.00    +0.000 A 
ATOM     34  H   UNL     1      46.318   2.569  16.604  0.00  0.00    +0.000 HD
ENDBRANCH  22  24
ENDBRANCH  19  20
ENDBRANCH   6  19
TORSDOF 8
ENDMDL
MODEL 4
REMARK VINA RESULT:    -6.800      3.014      7.441
REMARK INTER + INTRA:         -10.739
REMARK INTER:                  -9.508
REMARK INTRA:                  -1.231
REMARK UNBOUND:                -0.759
REMARK  Name = 
REMARK  11 active torsions:
REMARK  status: ('A' for Active; 'I' for Inactive)
REMARK    1  A    between atoms: C_1  and  O_2
REMARK    2  A    between atoms: O_2  and  C_3
REMARK    3  A    between atoms: C_5  and  C_6
REMARK    4  A    between atoms: C_6  and  N_7
REMARK    5  A    between atoms: N_7  and  C_8
REMARK    6  A    between atoms: N_7  and  C_9
REMARK    7  A    between atoms: C_9  and  C_10
REMARK    8  A    between atoms: C_15  and  C_16
REMARK    9  A    between atoms: C_16  and  N_17
REMARK   10  A    between atoms: N_17  and  C_18
REMARK   11  A    between atoms: C_19  and  C_21
REMARK                            x       y       z     vdW  Elec       q    Type
REMARK                         _______ _______ _______ _____ _____    ______ ____
ROOT
ATOM      1  C   UNL     1      50.163   8.619  13.811  0.00  0.00    +0.000 A 
ATOM      2  C   UNL     1      50.979   9.769  13.771  0.00  0.00    +0.000 A 
ATOM      3  C   UNL     1      50.838  10.752  12.769  0.00  0.00    +0.000 A 
ATOM      4  C   UNL     1      49.942  10.573  11.718  0.00  0.00    +0.000 A 
ATOM      5  C   UNL     1      49.076   9.495  11.776  0.00  0.00    +0.000 A 
ATOM      6  C   UNL     1      49.084   8.643  12.904  0.00  0.00    +0.000 A 
ENDROOT
BRANCH   1   7
ATOM      7  C   UNL     1      50.254   7.600  14.973  0.00  0.00    +0.000 C 
BRANCH   7   8
ATOM      8  N   UNL     1      49.212   7.685  16.078  0.00  0.00    +0.000 NA
ATOM      9  C   UNL     1      49.234   9.059  16.633  0.00  0.00    +0.000 C 
BRANCH   8  10
ATOM     10  C   UNL     1      49.521   6.767  17.215  0.00  0.00    +0.000 C 
BRANCH  10  13
ATOM     11  C   UNL     1      49.567   2.920  17.148  0.00  0.00    +0.000 A 
ATOM     12  C   UNL     1      50.000   4.197  17.477  0.00  0.00    +0.000 A 
ATOM     13  C   UNL     1      49.174   5.258  17.131  0.00  0.00    +0.000 A 
ATOM     14  N   UNL     1      47.964   5.010  16.547  0.00  0.00    +0.000 NA
ATOM     15  C   UNL     1      47.628   3.728  16.332  0.00  0.00    +0.000 A 
ATOM     16  N   UNL     1      48.377   2.657  16.592  0.00  0.00    +0.000 NA
BRANCH  11  18
ATOM     17  C   UNL     1      51.816   2.258  17.581  0.00  0.00    +0.000 C 
ATOM     18  O   UNL     1      50.450   1.882  17.376  0.00  0.00    +0.000 OA
ENDBRANCH  11  18
ENDBRANCH  10  13
ENDBRANCH   8  10
ENDBRANCH   7   8
ENDBRANCH   1   7
BRANCH   6  19
ATOM     19  C   UNL     1      47.739   8.118  13.346  0.00  0.00    +0.000 C 
BRANCH  19  20
ATOM     20  N   UNL     1      47.394   6.834  12.664  0.00  0.00    +0.000 N 
ATOM     21  C   UNL     1      48.086   5.615  13.080  0.00  0.00    +0.000 C 
ATOM     22  C   UNL     1      46.333   6.886  11.755  0.00  0.00    +0.000 C 
ATOM     23  O   UNL     1      45.793   7.989  11.576  0.00  0.00    +0.000 OA
BRANCH  22  24
ATOM     24  C   UNL     1      45.666   5.744  11.147  0.00  0.00    +0.000 A 
ATOM     25  C   UNL     1      45.874   5.650   9.763  0.00  0.00    +0.000 A 
ATOM     26  S   UNL     1      45.107   4.365   8.997  0.00  0.00    +0.000 S 
ATOM     27  C   UNL     1      44.471   3.819  10.471  0.00  0.00    +0.000 A 
ATOM     28  N   UNL     1      43.675   2.728  10.469  0.00  0.00    +0.000 NA
ATOM     29  C   UNL     1      43.356   2.301  11.645  0.00  0.00    +0.000 A 
ATOM     30  N   UNL     1      43.758   2.885  12.811  0.00  0.00    +0.000 N 
ATOM     31  C   UNL     1      44.589   3.997  12.867  0.00  0.00    +0.000 A 
ATOM     32  O   UNL     1      45.030   4.406  13.937  0.00  0.00    +0.000 OA
ATOM     33  C   UNL     1      44.917   4.564  11.568  0.00  0.00    +0.000 A 
ATOM     34  H   UNL     1      43.530   2.442  13.689  0.00  0.00    +0.000 HD
ENDBRANCH  22  24
ENDBRANCH  19  20
ENDBRANCH   6  19
TORSDOF 8
ENDMDL
MODEL 5
REMARK VINA RESULT:    -6.729      1.916      3.153
REMARK INTER + INTRA:         -10.635
REMARK INTER:                  -9.393
REMARK INTRA:                  -1.242
REMARK UNBOUND:                -0.759
REMARK  Name = 
REMARK  11 active torsions:
REMARK  status: ('A' for Active; 'I' for Inactive)
REMARK    1  A    between atoms: C_1  and  O_2
REMARK    2  A    between atoms: O_2  and  C_3
REMARK    3  A    between atoms: C_5  and  C_6
REMARK    4  A    between atoms: C_6  and  N_7
REMARK    5  A    between atoms: N_7  and  C_8
REMARK    6  A    between atoms: N_7  and  C_9
REMARK    7  A    between atoms: C_9  and  C_10
REMARK    8  A    between atoms: C_15  and  C_16
REMARK    9  A    between atoms: C_16  and  N_17
REMARK   10  A    between atoms: N_17  and  C_18
REMARK   11  A    between atoms: C_19  and  C_21
REMARK                            x       y       z     vdW  Elec       q    Type
REMARK                         _______ _______ _______ _____ _____    ______ ____
ROOT
ATOM      1  C   UNL     1      48.788   8.529  16.284  0.00  0.00    +0.000 A 
ATOM      2  C   UNL     1      49.700   9.524  16.693  0.00  0.00    +0.000 A 
ATOM      3  C   UNL     1      50.111   9.655  18.036  0.00  0.00    +0.000 A 
ATOM      4  C   UNL     1      49.553   8.857  19.031  0.00  0.00    +0.000 A 
ATOM      5  C   UNL     1      48.719   7.822  18.648  0.00  0.00    +0.000 A 
ATOM      6  C   UNL     1      48.494   7.570  17.275  0.00  0.00    +0.000 A 
ENDROOT
BRANCH   1   7
ATOM      7  C   UNL     1      48.424   8.325  14.793  0.00  0.00    +0.000 C 
BRANCH   7   8
ATOM      8  N   UNL     1      49.390   7.533  13.925  0.00  0.00    +0.000 NA
ATOM      9  C   UNL     1      50.401   8.469  13.379  0.00  0.00    +0.000 C 
BRANCH   8  10
ATOM     10  C   UNL     1      48.711   6.914  12.748  0.00  0.00    +0.000 C 
BRANCH  10  13
ATOM     11  C   UNL     1      45.223   5.312  13.009  0.00  0.00    +0.000 A 
ATOM     12  C   UNL     1      46.184   6.215  12.577  0.00  0.00    +0.000 A 
ATOM     13  C   UNL     1      47.501   5.964  12.940  0.00  0.00    +0.000 A 
ATOM     14  N   UNL     1      47.804   4.832  13.643  0.00  0.00    +0.000 NA
ATOM     15  C   UNL     1      46.794   4.003  13.953  0.00  0.00    +0.000 A 
ATOM     16  N   UNL     1      45.503   4.189  13.682  0.00  0.00    +0.000 NA
BRANCH  11  18
ATOM     17  C   UNL     1      43.638   6.224  11.478  0.00  0.00    +0.000 C 
ATOM     18  O   UNL     1      43.903   5.636  12.756  0.00  0.00    +0.000 OA
ENDBRANCH  11  18
ENDBRANCH  10  13
ENDBRANCH   8  10
ENDBRANCH   7   8
ENDBRANCH   1   7
BRANCH   6  19
ATOM     19  C   UNL     1      48.371   6.117  16.881  0.00  0.00    +0.000 C 
BRANCH  19  20
ATOM     20  N   UNL     1      49.227   5.238  17.733  0.00  0.00    +0.000 N 
ATOM     21  C   UNL     1      48.582   4.412  18.753  0.00  0.00    +0.000 C 
ATOM     22  C   UNL     1      50.583   5.186  17.397  0.00  0.00    +0.000 C 
ATOM     23  O   UNL     1      50.958   5.888  16.444  0.00  0.00    +0.000 OA
BRANCH  22  24
ATOM     24  C   UNL     1      51.562   4.243  17.916  0.00  0.00    +0.000 A 
ATOM     25  C   UNL     1      52.397   4.794  18.900  0.00  0.00    +0.000 A 
ATOM     26  S   UNL     1      53.569   3.761  19.523  0.00  0.00    +0.000 S 
ATOM     27  C   UNL     1      53.016   2.489  18.547  0.00  0.00    +0.000 A 
ATOM     28  N   UNL     1      53.656   1.300  18.608  0.00  0.00    +0.000 NA
ATOM     29  C   UNL     1      53.082   0.354  17.943  0.00  0.00    +0.000 A 
ATOM     30  N   UNL     1      51.936   0.506  17.219  0.00  0.00    +0.000 N 
ATOM     31  C   UNL     1      51.233   1.702  17.138  0.00  0.00    +0.000 A 
ATOM     32  O   UNL     1      50.138   1.758  16.584  0.00  0.00    +0.000 OA
ATOM     33  C   UNL     1      51.877   2.822  17.807  0.00  0.00    +0.000 A 
ATOM     34  H   UNL     1      51.509  -0.303  16.793  0.00  0.00    +0.000 HD
ENDBRANCH  22  24
ENDBRANCH  19  20
ENDBRANCH   6  19
TORSDOF 8
ENDMDL
MODEL 6
REMARK VINA RESULT:    -6.709      3.036      7.860
REMARK INTER + INTRA:         -10.606
REMARK INTER:                  -9.198
REMARK INTRA:                  -1.408
REMARK UNBOUND:                -0.759
REMARK  Name = 
REMARK  11 active torsions:
REMARK  status: ('A' for Active; 'I' for Inactive)
REMARK    1  A    between atoms: C_1  and  O_2
REMARK    2  A    between atoms: O_2  and  C_3
REMARK    3  A    between atoms: C_5  and  C_6
REMARK    4  A    between atoms: C_6  and  N_7
REMARK    5  A    between atoms: N_7  and  C_8
REMARK    6  A    between atoms: N_7  and  C_9
REMARK    7  A    between atoms: C_9  and  C_10
REMARK    8  A    between atoms: C_15  and  C_16
REMARK    9  A    between atoms: C_16  and  N_17
REMARK   10  A    between atoms: N_17  and  C_18
REMARK   11  A    between atoms: C_19  and  C_21
REMARK                            x       y       z     vdW  Elec       q    Type
REMARK                         _______ _______ _______ _____ _____    ______ ____
ROOT
ATOM      1  C   UNL     1      50.159   8.218  18.157  0.00  0.00    +0.000 A 
ATOM      2  C   UNL     1      49.224   8.572  19.152  0.00  0.00    +0.000 A 
ATOM      3  C   UNL     1      48.001   9.200  18.838  0.00  0.00    +0.000 A 
ATOM      4  C   UNL     1      47.711   9.581  17.530  0.00  0.00    +0.000 A 
ATOM      5  C   UNL     1      48.573   9.176  16.527  0.00  0.00    +0.000 A 
ATOM      6  C   UNL     1      49.681   8.355  16.837  0.00  0.00    +0.000 A 
ENDROOT
BRANCH   1   7
ATOM      7  C   UNL     1      51.450   7.434  18.498  0.00  0.00    +0.000 C 
BRANCH   7   8
ATOM      8  N   UNL     1      51.320   5.956  18.832  0.00  0.00    +0.000 NA
ATOM      9  C   UNL     1      51.914   5.727  20.170  0.00  0.00    +0.000 C 
BRANCH   8  10
ATOM     10  C   UNL     1      52.081   5.094  17.880  0.00  0.00    +0.000 C 
BRANCH  10  13
ATOM     11  C   UNL     1      52.240   1.254  17.713  0.00  0.00    +0.000 A 
ATOM     12  C   UNL     1      52.643   2.534  18.064  0.00  0.00    +0.000 A 
ATOM     13  C   UNL     1      51.778   3.578  17.765  0.00  0.00    +0.000 A 
ATOM     14  N   UNL     1      50.562   3.308  17.203  0.00  0.00    +0.000 NA
ATOM     15  C   UNL     1      50.259   2.022  16.963  0.00  0.00    +0.000 A 
ATOM     16  N   UNL     1      51.046   0.968  17.178  0.00  0.00    +0.000 NA
BRANCH  11  18
ATOM     17  C   UNL     1      54.431   0.427  17.265  0.00  0.00    +0.000 C 
ATOM     18  O   UNL     1      53.159   0.238  17.894  0.00  0.00    +0.000 OA
ENDBRANCH  11  18
ENDBRANCH  10  13
ENDBRANCH   8  10
ENDBRANCH   7   8
ENDBRANCH   1   7
BRANCH   6  19
ATOM     19  C   UNL     1      50.031   7.301  15.813  0.00  0.00    +0.000 C 
BRANCH  19  20
ATOM     20  N   UNL     1      48.817   6.588  15.314  0.00  0.00    +0.000 N 
ATOM     21  C   UNL     1      48.065   5.752  16.248  0.00  0.00    +0.000 C 
ATOM     22  C   UNL     1      48.425   6.882  14.005  0.00  0.00    +0.000 C 
ATOM     23  O   UNL     1      49.129   7.684  13.370  0.00  0.00    +0.000 OA
BRANCH  22  24
ATOM     24  C   UNL     1      47.167   6.504  13.379  0.00  0.00    +0.000 A 
ATOM     25  C   UNL     1      46.526   7.572  12.731  0.00  0.00    +0.000 A 
ATOM     26  S   UNL     1      45.052   7.205  12.009  0.00  0.00    +0.000 S 
ATOM     27  C   UNL     1      45.186   5.581  12.478  0.00  0.00    +0.000 A 
ATOM     28  N   UNL     1      44.183   4.731  12.164  0.00  0.00    +0.000 NA
ATOM     29  C   UNL     1      44.433   3.494  12.431  0.00  0.00    +0.000 A 
ATOM     30  N   UNL     1      45.593   3.046  12.995  0.00  0.00    +0.000 N 
ATOM     31  C   UNL     1      46.658   3.877  13.321  0.00  0.00    +0.000 A 
ATOM     32  O   UNL     1      47.729   3.413  13.703  0.00  0.00    +0.000 OA
ATOM     33  C   UNL     1      46.400   5.293  13.110  0.00  0.00    +0.000 A 
ATOM     34  H   UNL     1      45.741   2.053  13.098  0.00  0.00    +0.000 HD
ENDBRANCH  22  24
ENDBRANCH  19  20
ENDBRANCH   6  19
TORSDOF 8
ENDMDL
MODEL 7
REMARK VINA RESULT:    -6.156      2.716      7.925
REMARK INTER + INTRA:          -9.795
REMARK INTER:                  -8.807
REMARK INTRA:                  -0.988
REMARK UNBOUND:                -0.759
REMARK  Name = 
REMARK  11 active torsions:
REMARK  status: ('A' for Active; 'I' for Inactive)
REMARK    1  A    between atoms: C_1  and  O_2
REMARK    2  A    between atoms: O_2  and  C_3
REMARK    3  A    between atoms: C_5  and  C_6
REMARK    4  A    between atoms: C_6  and  N_7
REMARK    5  A    between atoms: N_7  and  C_8
REMARK    6  A    between atoms: N_7  and  C_9
REMARK    7  A    between atoms: C_9  and  C_10
REMARK    8  A    between atoms: C_15  and  C_16
REMARK    9  A    between atoms: C_16  and  N_17
REMARK   10  A    between atoms: N_17  and  C_18
REMARK   11  A    between atoms: C_19  and  C_21
REMARK                            x       y       z     vdW  Elec       q    Type
REMARK                         _______ _______ _______ _____ _____    ______ ____
ROOT
ATOM      1  C   UNL     1      49.818   7.800  17.357  0.00  0.00    +0.000 A 
ATOM      2  C   UNL     1      48.772   8.306  18.157  0.00  0.00    +0.000 A 
ATOM      3  C   UNL     1      47.903   9.320  17.699  0.00  0.00    +0.000 A 
ATOM      4  C   UNL     1      48.109   9.928  16.463  0.00  0.00    +0.000 A 
ATOM      5  C   UNL     1      49.076   9.398  15.628  0.00  0.00    +0.000 A 
ATOM      6  C   UNL     1      49.787   8.239  16.017  0.00  0.00    +0.000 A 
ENDROOT
BRANCH   1   7
ATOM      7  C   UNL     1      50.698   6.616  17.826  0.00  0.00    +0.000 C 
BRANCH   7   8
ATOM      8  N   UNL     1      51.112   6.571  19.289  0.00  0.00    +0.000 NA
ATOM      9  C   UNL     1      52.438   7.219  19.418  0.00  0.00    +0.000 C 
BRANCH   8  10
ATOM     10  C   UNL     1      51.276   5.173  19.785  0.00  0.00    +0.000 C 
BRANCH  10  13
ATOM     11  C   UNL     1      50.904   2.299  17.254  0.00  0.00    +0.000 A 
ATOM     12  C   UNL     1      50.559   3.467  17.919  0.00  0.00    +0.000 A 
ATOM     13  C   UNL     1      51.497   4.001  18.794  0.00  0.00    +0.000 A 
ATOM     14  N   UNL     1      52.719   3.404  18.921  0.00  0.00    +0.000 NA
ATOM     15  C   UNL     1      52.958   2.311  18.180  0.00  0.00    +0.000 A 
ATOM     16  N   UNL     1      52.103   1.711  17.352  0.00  0.00    +0.000 NA
BRANCH  11  18
ATOM     17  C   UNL     1      48.640   2.343  16.507  0.00  0.00    +0.000 C 
ATOM     18  O   UNL     1      49.921   1.703  16.488  0.00  0.00    +0.000 OA
ENDBRANCH  11  18
ENDBRANCH  10  13
ENDBRANCH   8  10
ENDBRANCH   7   8
ENDBRANCH   1   7
BRANCH   6  19
ATOM     19  C   UNL     1      50.113   7.261  14.914  0.00  0.00    +0.000 C 
BRANCH  19  20
ATOM     20  N   UNL     1      48.954   7.054  13.996  0.00  0.00    +0.000 N 
ATOM     21  C   UNL     1      48.958   7.734  12.701  0.00  0.00    +0.000 C 
ATOM     22  C   UNL     1      48.002   6.117  14.408  0.00  0.00    +0.000 C 
ATOM     23  O   UNL     1      48.191   5.562  15.502  0.00  0.00    +0.000 OA
BRANCH  22  24
ATOM     24  C   UNL     1      46.922   5.575  13.596  0.00  0.00    +0.000 A 
ATOM     25  C   UNL     1      46.855   4.174  13.625  0.00  0.00    +0.000 A 
ATOM     26  S   UNL     1      45.642   3.484  12.686  0.00  0.00    +0.000 S 
ATOM     27  C   UNL     1      45.096   5.015  12.204  0.00  0.00    +0.000 A 
ATOM     28  N   UNL     1      44.057   5.090  11.343  0.00  0.00    +0.000 NA
ATOM     29  C   UNL     1      43.618   6.288  11.144  0.00  0.00    +0.000 A 
ATOM     30  N   UNL     1      44.142   7.406  11.725  0.00  0.00    +0.000 N 
ATOM     31  C   UNL     1      45.198   7.380  12.628  0.00  0.00    +0.000 A 
ATOM     32  O   UNL     1      45.549   8.395  13.223  0.00  0.00    +0.000 OA
ATOM     33  C   UNL     1      45.780   6.062  12.829  0.00  0.00    +0.000 A 
ATOM     34  H   UNL     1      43.690   8.297  11.578  0.00  0.00    +0.000 HD
ENDBRANCH  22  24
ENDBRANCH  19  20
ENDBRANCH   6  19
TORSDOF 8
ENDMDL
MODEL 8
REMARK VINA RESULT:    -6.064      3.748      8.472
REMARK INTER + INTRA:          -9.659
REMARK INTER:                  -8.491
REMARK INTRA:                  -1.167
REMARK UNBOUND:                -0.759
REMARK  Name = 
REMARK  11 active torsions:
REMARK  status: ('A' for Active; 'I' for Inactive)
REMARK    1  A    between atoms: C_1  and  O_2
REMARK    2  A    between atoms: O_2  and  C_3
REMARK    3  A    between atoms: C_5  and  C_6
REMARK    4  A    between atoms: C_6  and  N_7
REMARK    5  A    between atoms: N_7  and  C_8
REMARK    6  A    between atoms: N_7  and  C_9
REMARK    7  A    between atoms: C_9  and  C_10
REMARK    8  A    between atoms: C_15  and  C_16
REMARK    9  A    between atoms: C_16  and  N_17
REMARK   10  A    between atoms: N_17  and  C_18
REMARK   11  A    between atoms: C_19  and  C_21
REMARK                            x       y       z     vdW  Elec       q    Type
REMARK                         _______ _______ _______ _____ _____    ______ ____
ROOT
ATOM      1  C   UNL     1      49.008   9.369  14.125  0.00  0.00    +0.000 A 
ATOM      2  C   UNL     1      49.900  10.380  13.708  0.00  0.00    +0.000 A 
ATOM      3  C   UNL     1      50.220  10.580  12.349  0.00  0.00    +0.000 A 
ATOM      4  C   UNL     1      49.735   9.718  11.369  0.00  0.00    +0.000 A 
ATOM      5  C   UNL     1      48.798   8.770  11.740  0.00  0.00    +0.000 A 
ATOM      6  C   UNL     1      48.323   8.731  13.071  0.00  0.00    +0.000 A 
ENDROOT
BRANCH   1   7
ATOM      7  C   UNL     1      48.581   9.225  15.606  0.00  0.00    +0.000 C 
BRANCH   7   8
ATOM      8  N   UNL     1      49.099   8.026  16.385  0.00  0.00    +0.000 NA
ATOM      9  C   UNL     1      49.948   8.522  17.493  0.00  0.00    +0.000 C 
BRANCH   8  10
ATOM     10  C   UNL     1      49.969   7.145  15.549  0.00  0.00    +0.000 C 
BRANCH  10  13
ATOM     11  C   UNL     1      53.760   7.680  15.164  0.00  0.00    +0.000 A 
ATOM     12  C   UNL     1      52.409   7.948  14.995  0.00  0.00    +0.000 A 
ATOM     13  C   UNL     1      51.511   7.169  15.712  0.00  0.00    +0.000 A 
ATOM     14  N   UNL     1      51.979   6.228  16.585  0.00  0.00    +0.000 NA
ATOM     15  C   UNL     1      53.310   6.101  16.707  0.00  0.00    +0.000 A 
ATOM     16  N   UNL     1      54.238   6.775  16.027  0.00  0.00    +0.000 NA
BRANCH  11  18
ATOM     17  C   UNL     1      54.169   8.667  13.033  0.00  0.00    +0.000 C 
ATOM     18  O   UNL     1      54.640   8.367  14.351  0.00  0.00    +0.000 OA
ENDBRANCH  11  18
ENDBRANCH  10  13
ENDBRANCH   8  10
ENDBRANCH   7   8
ENDBRANCH   1   7
BRANCH   6  19
ATOM     19  C   UNL     1      46.861   8.390  13.242  0.00  0.00    +0.000 C 
BRANCH  19  20
ATOM     20  N   UNL     1      46.577   6.970  12.876  0.00  0.00    +0.000 N 
ATOM     21  C   UNL     1      47.282   5.909  13.595  0.00  0.00    +0.000 C 
ATOM     22  C   UNL     1      45.554   6.767  11.945  0.00  0.00    +0.000 C 
ATOM     23  O   UNL     1      44.993   7.777  11.491  0.00  0.00    +0.000 OA
BRANCH  22  24
ATOM     24  C   UNL     1      44.941   5.491  11.607  0.00  0.00    +0.000 A 
ATOM     25  C   UNL     1      43.992   5.064  12.548  0.00  0.00    +0.000 A 
ATOM     26  S   UNL     1      43.265   3.582  12.227  0.00  0.00    +0.000 S 
ATOM     27  C   UNL     1      44.141   3.425  10.784  0.00  0.00    +0.000 A 
ATOM     28  N   UNL     1      43.970   2.309  10.040  0.00  0.00    +0.000 NA
ATOM     29  C   UNL     1      44.564   2.339   8.894  0.00  0.00    +0.000 A 
ATOM     30  N   UNL     1      45.318   3.383   8.445  0.00  0.00    +0.000 N 
ATOM     31  C   UNL     1      45.511   4.557   9.164  0.00  0.00    +0.000 A 
ATOM     32  O   UNL     1      46.087   5.519   8.664  0.00  0.00    +0.000 OA
ATOM     33  C   UNL     1      44.926   4.546  10.495  0.00  0.00    +0.000 A 
ATOM     34  H   UNL     1      45.683   3.360   7.503  0.00  0.00    +0.000 HD
ENDBRANCH  22  24
ENDBRANCH  19  20
ENDBRANCH   6  19
TORSDOF 8
ENDMDL
MODEL 9
REMARK VINA RESULT:    -5.946      3.726      9.147
REMARK INTER + INTRA:          -9.486
REMARK INTER:                  -7.897
REMARK INTRA:                  -1.590
REMARK UNBOUND:                -0.759
REMARK  Name = 
REMARK  11 active torsions:
REMARK  status: ('A' for Active; 'I' for Inactive)
REMARK    1  A    between atoms: C_1  and  O_2
REMARK    2  A    between atoms: O_2  and  C_3
REMARK    3  A    between atoms: C_5  and  C_6
REMARK    4  A    between atoms: C_6  and  N_7
REMARK    5  A    between atoms: N_7  and  C_8
REMARK    6  A    between atoms: N_7  and  C_9
REMARK    7  A    between atoms: C_9  and  C_10
REMARK    8  A    between atoms: C_15  and  C_16
REMARK    9  A    between atoms: C_16  and  N_17
REMARK   10  A    between atoms: N_17  and  C_18
REMARK   11  A    between atoms: C_19  and  C_21
REMARK                            x       y       z     vdW  Elec       q    Type
REMARK                         _______ _______ _______ _____ _____    ______ ____
ROOT
ATOM      1  C   UNL     1      48.675   5.346  18.451  0.00  0.00    +0.000 A 
ATOM      2  C   UNL     1      48.551   4.037  18.963  0.00  0.00    +0.000 A 
ATOM      3  C   UNL     1      48.109   2.961  18.164  0.00  0.00    +0.000 A 
ATOM      4  C   UNL     1      47.687   3.174  16.854  0.00  0.00    +0.000 A 
ATOM      5  C   UNL     1      47.873   4.429  16.304  0.00  0.00    +0.000 A 
ATOM      6  C   UNL     1      48.523   5.438  17.053  0.00  0.00    +0.000 A 
ENDROOT
BRANCH   1   7
ATOM      7  C   UNL     1      49.260   6.498  19.304  0.00  0.00    +0.000 C 
BRANCH   7   8
ATOM      8  N   UNL     1      50.457   6.191  20.192  0.00  0.00    +0.000 NA
ATOM      9  C   UNL     1      50.623   7.308  21.151  0.00  0.00    +0.000 C 
BRANCH   8  10
ATOM     10  C   UNL     1      51.729   6.111  19.414  0.00  0.00    +0.000 C 
BRANCH  10  13
ATOM     11  C   UNL     1      52.955   2.597  18.439  0.00  0.00    +0.000 A 
ATOM     12  C   UNL     1      52.311   3.815  18.276  0.00  0.00    +0.000 A 
ATOM     13  C   UNL     1      52.488   4.767  19.272  0.00  0.00    +0.000 A 
ATOM     14  N   UNL     1      53.319   4.498  20.323  0.00  0.00    +0.000 NA
ATOM     15  C   UNL     1      53.935   3.305  20.340  0.00  0.00    +0.000 A 
ATOM     16  N   UNL     1      53.788   2.323  19.451  0.00  0.00    +0.000 NA
BRANCH  11  18
ATOM     17  C   UNL     1      51.282   1.359  17.277  0.00  0.00    +0.000 C 
ATOM     18  O   UNL     1      52.671   1.611  17.513  0.00  0.00    +0.000 OA
ENDBRANCH  11  18
ENDBRANCH  10  13
ENDBRANCH   8  10
ENDBRANCH   7   8
ENDBRANCH   1   7
BRANCH   6  19
ATOM     19  C   UNL     1      49.429   6.360  16.272  0.00  0.00    +0.000 C 
BRANCH  19  20
ATOM     20  N   UNL     1      48.676   7.505  15.678  0.00  0.00    +0.000 N 
ATOM     21  C   UNL     1      48.382   8.661  16.524  0.00  0.00    +0.000 C 
ATOM     22  C   UNL     1      48.416   7.427  14.307  0.00  0.00    +0.000 C 
ATOM     23  O   UNL     1      48.810   6.409  13.713  0.00  0.00    +0.000 OA
BRANCH  22  24
ATOM     24  C   UNL     1      47.914   8.502  13.464  0.00  0.00    +0.000 A 
ATOM     25  C   UNL     1      48.907   9.414  13.077  0.00  0.00    +0.000 A 
ATOM     26  S   UNL     1      48.385  10.696  12.122  0.00  0.00    +0.000 S 
ATOM     27  C   UNL     1      46.798  10.099  12.127  0.00  0.00    +0.000 A 
ATOM     28  N   UNL     1      45.841  10.799  11.477  0.00  0.00    +0.000 NA
ATOM     29  C   UNL     1      44.699  10.200  11.412  0.00  0.00    +0.000 A 
ATOM     30  N   UNL     1      44.439   8.974  11.951  0.00  0.00    +0.000 N 
ATOM     31  C   UNL     1      45.393   8.210  12.614  0.00  0.00    +0.000 A 
ATOM     32  O   UNL     1      45.149   7.059  12.966  0.00  0.00    +0.000 OA
ATOM     33  C   UNL     1      46.678   8.870  12.782  0.00  0.00    +0.000 A 
ATOM     34  H   UNL     1      43.542   8.542  11.786  0.00  0.00    +0.000 HD
ENDBRANCH  22  24
ENDBRANCH  19  20
ENDBRANCH   6  19
TORSDOF 8
ENDMDL
