MODEL 1
REMARK VINA RESULT:    -7.188      0.000      0.000
REMARK INTER + INTRA:         -13.237
REMARK INTER:                 -12.021
REMARK INTRA:                  -1.215
REMARK UNBOUND:                -1.215
REMARK  Name = 
REMARK  14 active torsions:
REMARK  status: ('A' for Active; 'I' for Inactive)
REMARK    1  A    between atoms: C_1  and  N_2
REMARK    2  A    between atoms: N_2  and  C_3
REMARK    3  A    between atoms: C_3  and  C_4
REMARK    4  A    between atoms: C_3  and  C_14
REMARK    5  A    between atoms: C_4  and  N_5
REMARK    6  A    between atoms: N_5  and  C_6
REMARK    7  A    between atoms: N_5  and  C_7
REMARK    8  A    between atoms: C_7  and  C_8
REMARK    9  A    between atoms: C_17  and  C_18
REMARK   10  A    between atoms: C_18  and  N_19
REMARK   11  A    between atoms: N_19  and  C_20
REMARK   12  A    between atoms: C_20  and  C_21
REMARK   13  A    between atoms: C_21  and  O_22
REMARK   14  A    between atoms: C_23  and  C_25
REMARK                            x       y       z     vdW  Elec       q    Type
REMARK                         _______ _______ _______ _____ _____    ______ ____
ROOT
ATOM      1  C   UNL     1      47.248   5.587  13.814  0.00  0.00    +0.000 A 
ATOM      2  C   UNL     1      47.065   4.731  14.905  0.00  0.00    +0.000 A 
ATOM      3  C   UNL     1      47.704   4.957  16.121  0.00  0.00    +0.000 A 
ATOM      4  C   UNL     1      48.506   6.079  16.319  0.00  0.00    +0.000 A 
ATOM      5  C   UNL     1      48.704   6.948  15.232  0.00  0.00    +0.000 A 
ATOM      6  C   UNL     1      48.081   6.707  13.989  0.00  0.00    +0.000 A 
ENDROOT
BRANCH   1   7
ATOM      7  C   UNL     1      46.572   5.189  12.500  0.00  0.00    +0.000 C 
BRANCH   7   9
ATOM      8  C   UNL     1      45.472   7.123  11.513  0.00  0.00    +0.000 C 
ATOM      9  N   UNL     1      46.634   6.236  11.457  0.00  0.00    +0.000 NA
ATOM     10  H   UNL     1      47.480   6.780  11.638  0.00  0.00    +0.000 HD
ENDBRANCH   7   9
BRANCH   7  11
ATOM     11  C   UNL     1      45.111   4.633  12.727  0.00  0.00    +0.000 C 
BRANCH  11  12
ATOM     12  N   UNL     1      44.689   3.470  11.881  0.00  0.00    +0.000 NA
ATOM     13  C   UNL     1      43.576   2.713  12.478  0.00  0.00    +0.000 C 
BRANCH  12  14
ATOM     14  C   UNL     1      44.208   3.938  10.545  0.00  0.00    +0.000 C 
BRANCH  14  15
ATOM     15  C   UNL     1      45.073   3.578   9.361  0.00  0.00    +0.000 A 
ATOM     16  C   UNL     1      45.322   2.251   9.033  0.00  0.00    +0.000 A 
ATOM     17  N   UNL     1      46.115   1.888   7.995  0.00  0.00    +0.000 NA
ATOM     18  C   UNL     1      46.656   2.911   7.298  0.00  0.00    +0.000 A 
ATOM     19  C   UNL     1      46.397   4.235   7.602  0.00  0.00    +0.000 A 
ATOM     20  N   UNL     1      45.599   4.599   8.630  0.00  0.00    +0.000 NA
ENDBRANCH  14  15
ENDBRANCH  12  14
ENDBRANCH  11  12
ENDBRANCH   7  11
ENDBRANCH   1   7
BRANCH   4  21
ATOM     21  C   UNL     1      49.016   6.353  17.717  0.00  0.00    +0.000 C 
BRANCH  21  22
ATOM     22  N   UNL     1      50.116   5.506  18.190  0.00  0.00    +0.000 N 
ATOM     23  C   UNL     1      51.236   5.360  17.344  0.00  0.00    +0.000 C 
ATOM     24  O   UNL     1      51.327   5.986  16.298  0.00  0.00    +0.000 OA
BRANCH  23  25
ATOM     25  C   UNL     1      52.309   4.394  17.680  0.00  0.00    +0.000 A 
ATOM     26  C   UNL     1      53.533   4.747  18.223  0.00  0.00    +0.000 A 
ATOM     27  S   UNL     1      54.533   3.409  18.580  0.00  0.00    +0.000 S 
ATOM     28  C   UNL     1      53.296   2.311  18.182  0.00  0.00    +0.000 A 
ATOM     29  N   UNL     1      53.458   0.976  18.383  0.00  0.00    +0.000 NA
ATOM     30  C   UNL     1      52.410   0.270  18.105  0.00  0.00    +0.000 A 
ATOM     31  N   UNL     1      51.238   0.780  17.608  0.00  0.00    +0.000 N 
ATOM     32  C   UNL     1      51.072   2.108  17.275  0.00  0.00    +0.000 A 
ATOM     33  O   UNL     1      50.092   2.486  16.645  0.00  0.00    +0.000 OA
ATOM     34  C   UNL     1      52.179   2.956  17.682  0.00  0.00    +0.000 A 
ATOM     35  H   UNL     1      50.477   0.165  17.358  0.00  0.00    +0.000 HD
ENDBRANCH  23  25
BRANCH  22  36
ATOM     36  C   UNL     1      49.878   4.792  19.454  0.00  0.00    +0.000 C 
BRANCH  36  37
ATOM     37  C   UNL     1      48.446   4.303  19.653  0.00  0.00    +0.000 C 
BRANCH  37  38
ATOM     38  O   UNL     1      48.340   2.948  19.232  0.00  0.00    +0.000 OA
ATOM     39  H   UNL     1      47.799   2.935  18.424  0.00  0.00    +0.000 HD
ENDBRANCH  37  38
ENDBRANCH  36  37
ENDBRANCH  22  36
ENDBRANCH  21  22
ENDBRANCH   4  21
TORSDOF 12
ENDMDL
MODEL 2
REMARK VINA RESULT:    -7.171      1.110      1.978
REMARK INTER + INTRA:         -13.208
REMARK INTER:                 -11.590
REMARK INTRA:                  -1.618
REMARK UNBOUND:                -1.215
REMARK  Name = 
REMARK  14 active torsions:
REMARK  status: ('A' for Active; 'I' for Inactive)
REMARK    1  A    between atoms: C_1  and  N_2
REMARK    2  A    between atoms: N_2  and  C_3
REMARK    3  A    between atoms: C_3  and  C_4
REMARK    4  A    between atoms: C_3  and  C_14
REMARK    5  A    between atoms: C_4  and  N_5
REMARK    6  A    between atoms: N_5  and  C_6
REMARK    7  A    between atoms: N_5  and  C_7
REMARK    8  A    between atoms: C_7  and  C_8
REMARK    9  A    between atoms: C_17  and  C_18
REMARK   10  A    between atoms: C_18  and  N_19
REMARK   11  A    between atoms: N_19  and  C_20
REMARK   12  A    between atoms: C_20  and  C_21
REMARK   13  A    between atoms: C_21  and  O_22
REMARK   14  A    between atoms: C_23  and  C_25
REMARK                            x       y       z     vdW  Elec       q    Type
REMARK                         _______ _______ _______ _____ _____    ______ ____
ROOT
ATOM      1  C   UNL     1      46.976   5.896  13.343  0.00  0.00    +0.000 A 
ATOM      2  C   UNL     1      46.962   4.901  14.325  0.00  0.00    +0.000 A 
ATOM      3  C   UNL     1      47.716   5.019  15.489  0.00  0.00    +0.000 A 
ATOM      4  C   UNL     1      48.469   6.162  15.750  0.00  0.00    +0.000 A 
ATOM      5  C   UNL     1      48.498   7.171  14.772  0.00  0.00    +0.000 A 
ATOM      6  C   UNL     1      47.757   7.042  13.577  0.00  0.00    +0.000 A 
ENDROOT
BRANCH   1   7
ATOM      7  C   UNL     1      46.184   5.617  12.063  0.00  0.00    +0.000 C 
BRANCH   7   9
ATOM      8  C   UNL     1      44.717   7.449  11.418  0.00  0.00    +0.000 C 
ATOM      9  N   UNL     1      46.011   6.805  11.198  0.00  0.00    +0.000 NA
ATOM     10  H   UNL     1      46.758   7.458  11.445  0.00  0.00    +0.000 HD
ENDBRANCH   7   9
BRANCH   7  11
ATOM     11  C   UNL     1      44.825   4.867  12.355  0.00  0.00    +0.000 C 
BRANCH  11  12
ATOM     12  N   UNL     1      44.597   3.572  11.636  0.00  0.00    +0.000 NA
ATOM     13  C   UNL     1      43.552   2.751  12.268  0.00  0.00    +0.000 C 
BRANCH  12  14
ATOM     14  C   UNL     1      44.142   3.822  10.234  0.00  0.00    +0.000 C 
BRANCH  14  15
ATOM     15  C   UNL     1      45.086   3.387   9.138  0.00  0.00    +0.000 A 
ATOM     16  C   UNL     1      45.626   4.310   8.250  0.00  0.00    +0.000 A 
ATOM     17  N   UNL     1      46.453   3.956   7.237  0.00  0.00    +0.000 NA
ATOM     18  C   UNL     1      46.717   2.634   7.143  0.00  0.00    +0.000 A 
ATOM     19  C   UNL     1      46.202   1.710   8.034  0.00  0.00    +0.000 A 
ATOM     20  N   UNL     1      45.385   2.062   9.051  0.00  0.00    +0.000 NA
ENDBRANCH  14  15
ENDBRANCH  12  14
ENDBRANCH  11  12
ENDBRANCH   7  11
ENDBRANCH   1   7
BRANCH   4  21
ATOM     21  C   UNL     1      49.112   6.297  17.114  0.00  0.00    +0.000 C 
BRANCH  21  22
ATOM     22  N   UNL     1      50.409   5.635  17.293  0.00  0.00    +0.000 N 
ATOM     23  C   UNL     1      50.468   4.552  18.196  0.00  0.00    +0.000 C 
ATOM     24  O   UNL     1      49.461   4.122  18.739  0.00  0.00    +0.000 OA
BRANCH  23  25
ATOM     25  C   UNL     1      51.772   3.942  18.550  0.00  0.00    +0.000 A 
ATOM     26  C   UNL     1      52.674   4.495  19.443  0.00  0.00    +0.000 A 
ATOM     27  S   UNL     1      54.051   3.521  19.712  0.00  0.00    +0.000 S 
ATOM     28  C   UNL     1      53.404   2.254  18.780  0.00  0.00    +0.000 A 
ATOM     29  N   UNL     1      54.040   1.054  18.698  0.00  0.00    +0.000 NA
ATOM     30  C   UNL     1      53.396   0.163  18.016  0.00  0.00    +0.000 A 
ATOM     31  N   UNL     1      52.201   0.383  17.380  0.00  0.00    +0.000 N 
ATOM     32  C   UNL     1      51.584   1.616  17.335  0.00  0.00    +0.000 A 
ATOM     33  O   UNL     1      50.634   1.823  16.590  0.00  0.00    +0.000 OA
ATOM     34  C   UNL     1      52.208   2.614  18.186  0.00  0.00    +0.000 A 
ATOM     35  H   UNL     1      51.780  -0.341  16.816  0.00  0.00    +0.000 HD
ENDBRANCH  23  25
BRANCH  22  36
ATOM     36  C   UNL     1      51.548   6.257  16.600  0.00  0.00    +0.000 C 
BRANCH  36  37
ATOM     37  C   UNL     1      51.743   7.742  16.895  0.00  0.00    +0.000 C 
BRANCH  37  38
ATOM     38  O   UNL     1      52.553   7.896  18.055  0.00  0.00    +0.000 OA
ATOM     39  H   UNL     1      51.968   8.160  18.786  0.00  0.00    +0.000 HD
ENDBRANCH  37  38
ENDBRANCH  36  37
ENDBRANCH  22  36
ENDBRANCH  21  22
ENDBRANCH   4  21
TORSDOF 12
ENDMDL
MODEL 3
REMARK VINA RESULT:    -7.040      3.277      4.245
REMARK INTER + INTRA:         -12.988
REMARK INTER:                 -11.284
REMARK INTRA:                  -1.705
REMARK UNBOUND:                -1.215
REMARK  Name = 
REMARK  14 active torsions:
REMARK  status: ('A' for Active; 'I' for Inactive)
REMARK    1  A    between atoms: C_1  and  N_2
REMARK    2  A    between atoms: N_2  and  C_3
REMARK    3  A    between atoms: C_3  and  C_4
REMARK    4  A    between atoms: C_3  and  C_14
REMARK    5  A    between atoms: C_4  and  N_5
REMARK    6  A    between atoms: N_5  and  C_6
REMARK    7  A    between atoms: N_5  and  C_7
REMARK    8  A    between atoms: C_7  and  C_8
REMARK    9  A    between atoms: C_17  and  C_18
REMARK   10  A    between atoms: C_18  and  N_19
REMARK   11  A    between atoms: N_19  and  C_20
REMARK   12  A    between atoms: C_20  and  C_21
REMARK   13  A    between atoms: C_21  and  O_22
REMARK   14  A    between atoms: C_23  and  C_25
REMARK                            x       y       z     vdW  Elec       q    Type
REMARK                         _______ _______ _______ _____ _____    ______ ____
ROOT
ATOM      1  C   UNL     1      46.205   6.276  11.999  0.00  0.00    +0.000 A 
ATOM      2  C   UNL     1      46.677   5.704  13.186  0.00  0.00    +0.000 A 
ATOM      3  C   UNL     1      47.892   6.090  13.744  0.00  0.00    +0.000 A 
ATOM      4  C   UNL     1      48.661   7.104  13.176  0.00  0.00    +0.000 A 
ATOM      5  C   UNL     1      48.204   7.687  11.981  0.00  0.00    +0.000 A 
ATOM      6  C   UNL     1      46.985   7.279  11.396  0.00  0.00    +0.000 A 
ENDROOT
BRANCH   1   7
ATOM      7  C   UNL     1      44.905   5.709  11.426  0.00  0.00    +0.000 C 
BRANCH   7   9
ATOM      8  C   UNL     1      42.522   6.049  11.791  0.00  0.00    +0.000 C 
ATOM      9  N   UNL     1      43.787   6.678  11.412  0.00  0.00    +0.000 NA
ATOM     10  H   UNL     1      44.019   7.402  12.095  0.00  0.00    +0.000 HD
ENDBRANCH   7   9
BRANCH   7  11
ATOM     11  C   UNL     1      44.514   4.330  12.091  0.00  0.00    +0.000 C 
BRANCH  11  12
ATOM     12  N   UNL     1      44.413   3.143  11.180  0.00  0.00    +0.000 NA
ATOM     13  C   UNL     1      43.294   2.255  11.532  0.00  0.00    +0.000 C 
BRANCH  12  14
ATOM     14  C   UNL     1      44.175   3.580   9.770  0.00  0.00    +0.000 C 
BRANCH  14  15
ATOM     15  C   UNL     1      45.183   3.114   8.747  0.00  0.00    +0.000 A 
ATOM     16  C   UNL     1      45.638   1.801   8.736  0.00  0.00    +0.000 A 
ATOM     17  N   UNL     1      46.563   1.353   7.853  0.00  0.00    +0.000 NA
ATOM     18  C   UNL     1      47.021   2.277   6.979  0.00  0.00    +0.000 A 
ATOM     19  C   UNL     1      46.558   3.580   6.966  0.00  0.00    +0.000 A 
ATOM     20  N   UNL     1      45.630   4.027   7.841  0.00  0.00    +0.000 NA
ENDBRANCH  14  15
ENDBRANCH  12  14
ENDBRANCH  11  12
ENDBRANCH   7  11
ENDBRANCH   1   7
BRANCH   4  21
ATOM     21  C   UNL     1      49.873   7.593  13.938  0.00  0.00    +0.000 C 
BRANCH  21  22
ATOM     22  N   UNL     1      49.666   7.926  15.352  0.00  0.00    +0.000 N 
ATOM     23  C   UNL     1      50.341   7.141  16.311  0.00  0.00    +0.000 C 
ATOM     24  O   UNL     1      51.137   6.276  15.977  0.00  0.00    +0.000 OA
BRANCH  23  25
ATOM     25  C   UNL     1      50.054   7.312  17.756  0.00  0.00    +0.000 A 
ATOM     26  C   UNL     1      50.643   8.275  18.558  0.00  0.00    +0.000 A 
ATOM     27  S   UNL     1      50.053   8.281  20.161  0.00  0.00    +0.000 S 
ATOM     28  C   UNL     1      48.871   7.116  19.787  0.00  0.00    +0.000 A 
ATOM     29  N   UNL     1      47.934   6.755  20.705  0.00  0.00    +0.000 NA
ATOM     30  C   UNL     1      47.057   5.916  20.258  0.00  0.00    +0.000 A 
ATOM     31  N   UNL     1      47.062   5.382  18.995  0.00  0.00    +0.000 N 
ATOM     32  C   UNL     1      48.060   5.626  18.076  0.00  0.00    +0.000 A 
ATOM     33  O   UNL     1      48.143   4.975  17.041  0.00  0.00    +0.000 OA
ATOM     34  C   UNL     1      49.000   6.654  18.490  0.00  0.00    +0.000 A 
ATOM     35  H   UNL     1      46.379   4.687  18.730  0.00  0.00    +0.000 HD
ENDBRANCH  23  25
BRANCH  22  36
ATOM     36  C   UNL     1      48.670   8.974  15.625  0.00  0.00    +0.000 C 
BRANCH  36  37
ATOM     37  C   UNL     1      49.077  10.375  15.176  0.00  0.00    +0.000 C 
BRANCH  37  38
ATOM     38  O   UNL     1      48.263  10.783  14.083  0.00  0.00    +0.000 OA
ATOM     39  H   UNL     1      48.523  10.251  13.312  0.00  0.00    +0.000 HD
ENDBRANCH  37  38
ENDBRANCH  36  37
ENDBRANCH  22  36
ENDBRANCH  21  22
ENDBRANCH   4  21
TORSDOF 12
ENDMDL
MODEL 4
REMARK VINA RESULT:    -7.020      2.757      4.440
REMARK INTER + INTRA:         -12.956
REMARK INTER:                 -11.425
REMARK INTRA:                  -1.531
REMARK UNBOUND:                -1.215
REMARK  Name = 
REMARK  14 active torsions:
REMARK  status: ('A' for Active; 'I' for Inactive)
REMARK    1  A    between atoms: C_1  and  N_2
REMARK    2  A    between atoms: N_2  and  C_3
REMARK    3  A    between atoms: C_3  and  C_4
REMARK    4  A    between atoms: C_3  and  C_14
REMARK    5  A    between atoms: C_4  and  N_5
REMARK    6  A    between atoms: N_5  and  C_6
REMARK    7  A    between atoms: N_5  and  C_7
REMARK    8  A    between atoms: C_7  and  C_8
REMARK    9  A    between atoms: C_17  and  C_18
REMARK   10  A    between atoms: C_18  and  N_19
REMARK   11  A    between atoms: N_19  and  C_20
REMARK   12  A    between atoms: C_20  and  C_21
REMARK   13  A    between atoms: C_21  and  O_22
REMARK   14  A    between atoms: C_23  and  C_25
REMARK                            x       y       z     vdW  Elec       q    Type
REMARK                         _______ _______ _______ _____ _____    ______ ____
ROOT
ATOM      1  C   UNL     1      45.559   6.991  11.631  0.00  0.00    +0.000 A 
ATOM      2  C   UNL     1      46.852   6.473  11.759  0.00  0.00    +0.000 A 
ATOM      3  C   UNL     1      47.929   7.284  12.104  0.00  0.00    +0.000 A 
ATOM      4  C   UNL     1      47.753   8.636  12.393  0.00  0.00    +0.000 A 
ATOM      5  C   UNL     1      46.461   9.175  12.265  0.00  0.00    +0.000 A 
ATOM      6  C   UNL     1      45.371   8.361  11.888  0.00  0.00    +0.000 A 
ENDROOT
BRANCH   1   7
ATOM      7  C   UNL     1      44.471   6.027  11.155  0.00  0.00    +0.000 C 
BRANCH   7   9
ATOM      8  C   UNL     1      42.166   5.789  11.902  0.00  0.00    +0.000 C 
ATOM      9  N   UNL     1      43.113   6.614  11.153  0.00  0.00    +0.000 NA
ATOM     10  H   UNL     1      43.190   7.529  11.603  0.00  0.00    +0.000 HD
ENDBRANCH   7   9
BRANCH   7  11
ATOM     11  C   UNL     1      44.538   4.637  11.904  0.00  0.00    +0.000 C 
BRANCH  11  12
ATOM     12  N   UNL     1      44.566   3.407  11.048  0.00  0.00    +0.000 NA
ATOM     13  C   UNL     1      43.527   2.434  11.423  0.00  0.00    +0.000 C 
BRANCH  12  14
ATOM     14  C   UNL     1      44.317   3.755   9.616  0.00  0.00    +0.000 C 
BRANCH  14  15
ATOM     15  C   UNL     1      45.294   3.192   8.611  0.00  0.00    +0.000 A 
ATOM     16  C   UNL     1      45.704   1.865   8.678  0.00  0.00    +0.000 A 
ATOM     17  N   UNL     1      46.599   1.330   7.813  0.00  0.00    +0.000 NA
ATOM     18  C   UNL     1      47.075   2.180   6.876  0.00  0.00    +0.000 A 
ATOM     19  C   UNL     1      46.658   3.496   6.787  0.00  0.00    +0.000 A 
ATOM     20  N   UNL     1      45.758   4.029   7.643  0.00  0.00    +0.000 NA
ENDBRANCH  14  15
ENDBRANCH  12  14
ENDBRANCH  11  12
ENDBRANCH   7  11
ENDBRANCH   1   7
BRANCH   4  21
ATOM     21  C   UNL     1      48.935   9.409  12.937  0.00  0.00    +0.000 C 
BRANCH  21  22
ATOM     22  N   UNL     1      49.681   8.778  14.032  0.00  0.00    +0.000 N 
ATOM     23  C   UNL     1      49.071   8.749  15.303  0.00  0.00    +0.000 C 
ATOM     24  O   UNL     1      47.929   9.151  15.469  0.00  0.00    +0.000 OA
BRANCH  23  25
ATOM     25  C   UNL     1      49.828   8.277  16.488  0.00  0.00    +0.000 A 
ATOM     26  C   UNL     1      50.563   9.101  17.321  0.00  0.00    +0.000 A 
ATOM     27  S   UNL     1      51.259   8.283  18.650  0.00  0.00    +0.000 S 
ATOM     28  C   UNL     1      50.456   6.838  18.248  0.00  0.00    +0.000 A 
ATOM     29  N   UNL     1      50.526   5.752  19.064  0.00  0.00    +0.000 NA
ATOM     30  C   UNL     1      49.808   4.750  18.670  0.00  0.00    +0.000 A 
ATOM     31  N   UNL     1      49.066   4.731  17.517  0.00  0.00    +0.000 N 
ATOM     32  C   UNL     1      49.064   5.762  16.602  0.00  0.00    +0.000 A 
ATOM     33  O   UNL     1      48.560   5.625  15.494  0.00  0.00    +0.000 OA
ATOM     34  C   UNL     1      49.759   6.952  17.059  0.00  0.00    +0.000 A 
ATOM     35  H   UNL     1      48.573   3.894  17.239  0.00  0.00    +0.000 HD
ENDBRANCH  23  25
BRANCH  22  36
ATOM     36  C   UNL     1      51.051   8.349  13.710  0.00  0.00    +0.000 C 
BRANCH  36  37
ATOM     37  C   UNL     1      51.480   8.610  12.268  0.00  0.00    +0.000 C 
BRANCH  37  38
ATOM     38  O   UNL     1      51.391   7.405  11.517  0.00  0.00    +0.000 OA
ATOM     39  H   UNL     1      51.290   6.674  12.150  0.00  0.00    +0.000 HD
ENDBRANCH  37  38
ENDBRANCH  36  37
ENDBRANCH  22  36
ENDBRANCH  21  22
ENDBRANCH   4  21
TORSDOF 12
ENDMDL
MODEL 5
REMARK VINA RESULT:    -6.614      3.563      8.840
REMARK INTER + INTRA:         -12.276
REMARK INTER:                 -10.449
REMARK INTRA:                  -1.827
REMARK UNBOUND:                -1.215
REMARK  Name = 
REMARK  14 active torsions:
REMARK  status: ('A' for Active; 'I' for Inactive)
REMARK    1  A    between atoms: C_1  and  N_2
REMARK    2  A    between atoms: N_2  and  C_3
REMARK    3  A    between atoms: C_3  and  C_4
REMARK    4  A    between atoms: C_3  and  C_14
REMARK    5  A    between atoms: C_4  and  N_5
REMARK    6  A    between atoms: N_5  and  C_6
REMARK    7  A    between atoms: N_5  and  C_7
REMARK    8  A    between atoms: C_7  and  C_8
REMARK    9  A    between atoms: C_17  and  C_18
REMARK   10  A    between atoms: C_18  and  N_19
REMARK   11  A    between atoms: N_19  and  C_20
REMARK   12  A    between atoms: C_20  and  C_21
REMARK   13  A    between atoms: C_21  and  O_22
REMARK   14  A    between atoms: C_23  and  C_25
REMARK                            x       y       z     vdW  Elec       q    Type
REMARK                         _______ _______ _______ _____ _____    ______ ____
ROOT
ATOM      1  C   UNL     1      51.167   7.763  15.155  0.00  0.00    +0.000 A 
ATOM      2  C   UNL     1      50.021   7.551  15.929  0.00  0.00    +0.000 A 
ATOM      3  C   UNL     1      48.746   7.675  15.387  0.00  0.00    +0.000 A 
ATOM      4  C   UNL     1      48.558   7.958  14.036  0.00  0.00    +0.000 A 
ATOM      5  C   UNL     1      49.698   8.178  13.244  0.00  0.00    +0.000 A 
ATOM      6  C   UNL     1      50.994   8.082  13.797  0.00  0.00    +0.000 A 
ENDROOT
BRANCH   1   7
ATOM      7  C   UNL     1      52.514   7.694  15.878  0.00  0.00    +0.000 C 
BRANCH   7   9
ATOM      8  C   UNL     1      54.870   7.530  15.288  0.00  0.00    +0.000 C 
ATOM      9  N   UNL     1      53.545   6.928  15.145  0.00  0.00    +0.000 NA
ATOM     10  H   UNL     1      53.557   5.990  15.551  0.00  0.00    +0.000 HD
ENDBRANCH   7   9
BRANCH   7  11
ATOM     11  C   UNL     1      52.359   7.232  17.381  0.00  0.00    +0.000 C 
BRANCH  11  12
ATOM     12  N   UNL     1      52.548   5.772  17.665  0.00  0.00    +0.000 NA
ATOM     13  C   UNL     1      53.727   5.508  18.505  0.00  0.00    +0.000 C 
BRANCH  12  14
ATOM     14  C   UNL     1      51.372   5.224  18.409  0.00  0.00    +0.000 C 
BRANCH  14  15
ATOM     15  C   UNL     1      50.635   4.085  17.747  0.00  0.00    +0.000 A 
ATOM     16  C   UNL     1      49.318   4.231  17.327  0.00  0.00    +0.000 A 
ATOM     17  N   UNL     1      48.614   3.224  16.755  0.00  0.00    +0.000 NA
ATOM     18  C   UNL     1      49.282   2.057  16.624  0.00  0.00    +0.000 A 
ATOM     19  C   UNL     1      50.599   1.906  17.018  0.00  0.00    +0.000 A 
ATOM     20  N   UNL     1      51.306   2.912  17.580  0.00  0.00    +0.000 NA
ENDBRANCH  14  15
ENDBRANCH  12  14
ENDBRANCH  11  12
ENDBRANCH   7  11
ENDBRANCH   1   7
BRANCH   4  21
ATOM     21  C   UNL     1      47.151   7.895  13.482  0.00  0.00    +0.000 C 
BRANCH  21  22
ATOM     22  N   UNL     1      46.844   6.762  12.602  0.00  0.00    +0.000 N 
ATOM     23  C   UNL     1      45.820   6.938  11.648  0.00  0.00    +0.000 C 
ATOM     24  O   UNL     1      45.271   8.019  11.498  0.00  0.00    +0.000 OA
BRANCH  23  25
ATOM     25  C   UNL     1      45.345   5.790  10.837  0.00  0.00    +0.000 A 
ATOM     26  C   UNL     1      45.773   5.517   9.550  0.00  0.00    +0.000 A 
ATOM     27  S   UNL     1      45.111   4.081   8.902  0.00  0.00    +0.000 S 
ATOM     28  C   UNL     1      44.371   3.691  10.383  0.00  0.00    +0.000 A 
ATOM     29  N   UNL     1      43.730   2.503  10.550  0.00  0.00    +0.000 NA
ATOM     30  C   UNL     1      43.280   2.311  11.748  0.00  0.00    +0.000 A 
ATOM     31  N   UNL     1      43.380   3.219  12.771  0.00  0.00    +0.000 N 
ATOM     32  C   UNL     1      43.912   4.481  12.613  0.00  0.00    +0.000 A 
ATOM     33  O   UNL     1      43.796   5.333  13.486  0.00  0.00    +0.000 OA
ATOM     34  C   UNL     1      44.537   4.695  11.319  0.00  0.00    +0.000 A 
ATOM     35  H   UNL     1      42.955   3.029  13.668  0.00  0.00    +0.000 HD
ENDBRANCH  23  25
BRANCH  22  36
ATOM     36  C   UNL     1      47.561   5.511  12.895  0.00  0.00    +0.000 C 
BRANCH  36  37
ATOM     37  C   UNL     1      47.057   4.757  14.123  0.00  0.00    +0.000 C 
BRANCH  37  38
ATOM     38  O   UNL     1      47.187   3.357  13.912  0.00  0.00    +0.000 OA
ATOM     39  H   UNL     1      47.842   3.025  14.550  0.00  0.00    +0.000 HD
ENDBRANCH  37  38
ENDBRANCH  36  37
ENDBRANCH  22  36
ENDBRANCH  21  22
ENDBRANCH   4  21
TORSDOF 12
ENDMDL
MODEL 6
REMARK VINA RESULT:    -6.456      3.731      8.932
REMARK INTER + INTRA:         -12.012
REMARK INTER:                 -10.283
REMARK INTRA:                  -1.729
REMARK UNBOUND:                -1.215
REMARK  Name = 
REMARK  14 active torsions:
REMARK  status: ('A' for Active; 'I' for Inactive)
REMARK    1  A    between atoms: C_1  and  N_2
REMARK    2  A    between atoms: N_2  and  C_3
REMARK    3  A    between atoms: C_3  and  C_4
REMARK    4  A    between atoms: C_3  and  C_14
REMARK    5  A    between atoms: C_4  and  N_5
REMARK    6  A    between atoms: N_5  and  C_6
REMARK    7  A    between atoms: N_5  and  C_7
REMARK    8  A    between atoms: C_7  and  C_8
REMARK    9  A    between atoms: C_17  and  C_18
REMARK   10  A    between atoms: C_18  and  N_19
REMARK   11  A    between atoms: N_19  and  C_20
REMARK   12  A    between atoms: C_20  and  C_21
REMARK   13  A    between atoms: C_21  and  O_22
REMARK   14  A    between atoms: C_23  and  C_25
REMARK                            x       y       z     vdW  Elec       q    Type
REMARK                         _______ _______ _______ _____ _____    ______ ____
ROOT
ATOM      1  C   UNL     1      50.092   9.137  15.086  0.00  0.00    +0.000 A 
ATOM      2  C   UNL     1      48.752   9.286  15.461  0.00  0.00    +0.000 A 
ATOM      3  C   UNL     1      47.721   9.158  14.536  0.00  0.00    +0.000 A 
ATOM      4  C   UNL     1      47.976   8.816  13.209  0.00  0.00    +0.000 A 
ATOM      5  C   UNL     1      49.317   8.666  12.813  0.00  0.00    +0.000 A 
ATOM      6  C   UNL     1      50.368   8.824  13.743  0.00  0.00    +0.000 A 
ENDROOT
BRANCH   1   7
ATOM      7  C   UNL     1      51.146   9.394  16.165  0.00  0.00    +0.000 C 
BRANCH   7   9
ATOM      8  C   UNL     1      53.484   9.815  16.698  0.00  0.00    +0.000 C 
ATOM      9  N   UNL     1      52.510   9.594  15.629  0.00  0.00    +0.000 NA
ATOM     10  H   UNL     1      52.755   8.739  15.124  0.00  0.00    +0.000 HD
ENDBRANCH   7   9
BRANCH   7  11
ATOM     11  C   UNL     1      51.091   8.317  17.319  0.00  0.00    +0.000 C 
BRANCH  11  12
ATOM     12  N   UNL     1      50.862   6.893  16.908  0.00  0.00    +0.000 NA
ATOM     13  C   UNL     1      52.094   6.234  16.446  0.00  0.00    +0.000 C 
BRANCH  12  14
ATOM     14  C   UNL     1      50.362   6.086  18.063  0.00  0.00    +0.000 C 
BRANCH  14  15
ATOM     15  C   UNL     1      49.240   5.119  17.766  0.00  0.00    +0.000 A 
ATOM     16  C   UNL     1      47.936   5.393  18.158  0.00  0.00    +0.000 A 
ATOM     17  N   UNL     1      46.907   4.539  17.936  0.00  0.00    +0.000 NA
ATOM     18  C   UNL     1      47.239   3.390  17.306  0.00  0.00    +0.000 A 
ATOM     19  C   UNL     1      48.530   3.117  16.891  0.00  0.00    +0.000 A 
ATOM     20  N   UNL     1      49.555   3.971  17.104  0.00  0.00    +0.000 NA
ENDBRANCH  14  15
ENDBRANCH  12  14
ENDBRANCH  11  12
ENDBRANCH   7  11
ENDBRANCH   1   7
BRANCH   4  21
ATOM     21  C   UNL     1      46.797   8.515  12.310  0.00  0.00    +0.000 C 
BRANCH  21  22
ATOM     22  N   UNL     1      46.471   7.098  12.112  0.00  0.00    +0.000 N 
ATOM     23  C   UNL     1      45.164   6.786  11.680  0.00  0.00    +0.000 C 
ATOM     24  O   UNL     1      44.362   7.663  11.396  0.00  0.00    +0.000 OA
BRANCH  23  25
ATOM     25  C   UNL     1      44.714   5.374  11.616  0.00  0.00    +0.000 A 
ATOM     26  C   UNL     1      43.950   4.755  12.590  0.00  0.00    +0.000 A 
ATOM     27  S   UNL     1      43.516   3.150  12.199  0.00  0.00    +0.000 S 
ATOM     28  C   UNL     1      44.188   3.291  10.642  0.00  0.00    +0.000 A 
ATOM     29  N   UNL     1      44.048   2.292   9.730  0.00  0.00    +0.000 NA
ATOM     30  C   UNL     1      44.545   2.568   8.567  0.00  0.00    +0.000 A 
ATOM     31  N   UNL     1      45.199   3.733   8.256  0.00  0.00    +0.000 N 
ATOM     32  C   UNL     1      45.468   4.718   9.182  0.00  0.00    +0.000 A 
ATOM     33  O   UNL     1      46.230   5.642   8.922  0.00  0.00    +0.000 OA
ATOM     34  C   UNL     1      44.827   4.506  10.468  0.00  0.00    +0.000 A 
ATOM     35  H   UNL     1      45.613   3.860   7.344  0.00  0.00    +0.000 HD
ENDBRANCH  23  25
BRANCH  22  36
ATOM     36  C   UNL     1      47.514   6.139  12.506  0.00  0.00    +0.000 C 
BRANCH  36  37
ATOM     37  C   UNL     1      47.324   5.520  13.889  0.00  0.00    +0.000 C 
BRANCH  37  38
ATOM     38  O   UNL     1      48.447   5.824  14.708  0.00  0.00    +0.000 OA
ATOM     39  H   UNL     1      48.205   5.609  15.625  0.00  0.00    +0.000 HD
ENDBRANCH  37  38
ENDBRANCH  36  37
ENDBRANCH  22  36
ENDBRANCH  21  22
ENDBRANCH   4  21
TORSDOF 12
ENDMDL
MODEL 7
REMARK VINA RESULT:    -6.450      3.267      4.316
REMARK INTER + INTRA:         -12.002
REMARK INTER:                 -10.291
REMARK INTRA:                  -1.711
REMARK UNBOUND:                -1.215
REMARK  Name = 
REMARK  14 active torsions:
REMARK  status: ('A' for Active; 'I' for Inactive)
REMARK    1  A    between atoms: C_1  and  N_2
REMARK    2  A    between atoms: N_2  and  C_3
REMARK    3  A    between atoms: C_3  and  C_4
REMARK    4  A    between atoms: C_3  and  C_14
REMARK    5  A    between atoms: C_4  and  N_5
REMARK    6  A    between atoms: N_5  and  C_6
REMARK    7  A    between atoms: N_5  and  C_7
REMARK    8  A    between atoms: C_7  and  C_8
REMARK    9  A    between atoms: C_17  and  C_18
REMARK   10  A    between atoms: C_18  and  N_19
REMARK   11  A    between atoms: N_19  and  C_20
REMARK   12  A    between atoms: C_20  and  C_21
REMARK   13  A    between atoms: C_21  and  O_22
REMARK   14  A    between atoms: C_23  and  C_25
REMARK                            x       y       z     vdW  Elec       q    Type
REMARK                         _______ _______ _______ _____ _____    ______ ____
ROOT
ATOM      1  C   UNL     1      46.689   6.475  12.110  0.00  0.00    +0.000 A 
ATOM      2  C   UNL     1      46.769   5.891  13.379  0.00  0.00    +0.000 A 
ATOM      3  C   UNL     1      47.872   6.094  14.203  0.00  0.00    +0.000 A 
ATOM      4  C   UNL     1      48.916   6.935  13.822  0.00  0.00    +0.000 A 
ATOM      5  C   UNL     1      48.854   7.526  12.548  0.00  0.00    +0.000 A 
ATOM      6  C   UNL     1      47.750   7.300  11.698  0.00  0.00    +0.000 A 
ENDROOT
BRANCH   1   7
ATOM      7  C   UNL     1      45.475   6.107  11.254  0.00  0.00    +0.000 C 
BRANCH   7   9
ATOM      8  C   UNL     1      44.463   8.268  11.735  0.00  0.00    +0.000 C 
ATOM      9  N   UNL     1      44.759   7.277  10.701  0.00  0.00    +0.000 NA
ATOM     10  H   UNL     1      45.378   7.696  10.003  0.00  0.00    +0.000 HD
ENDBRANCH   7   9
BRANCH   7  11
ATOM     11  C   UNL     1      44.514   5.090  11.989  0.00  0.00    +0.000 C 
BRANCH  11  12
ATOM     12  N   UNL     1      44.489   3.685  11.469  0.00  0.00    +0.000 NA
ATOM     13  C   UNL     1      43.555   2.825  12.214  0.00  0.00    +0.000 C 
BRANCH  12  14
ATOM     14  C   UNL     1      44.038   3.658  10.044  0.00  0.00    +0.000 C 
BRANCH  14  15
ATOM     15  C   UNL     1      45.080   3.274   9.021  0.00  0.00    +0.000 A 
ATOM     16  C   UNL     1      45.639   4.226   8.177  0.00  0.00    +0.000 A 
ATOM     17  N   UNL     1      46.556   3.917   7.227  0.00  0.00    +0.000 NA
ATOM     18  C   UNL     1      46.888   2.609   7.152  0.00  0.00    +0.000 A 
ATOM     19  C   UNL     1      46.354   1.657   8.001  0.00  0.00    +0.000 A 
ATOM     20  N   UNL     1      45.447   1.965   8.954  0.00  0.00    +0.000 NA
ENDBRANCH  14  15
ENDBRANCH  12  14
ENDBRANCH  11  12
ENDBRANCH   7  11
ENDBRANCH   1   7
BRANCH   4  21
ATOM     21  C   UNL     1      49.987   7.249  14.842  0.00  0.00    +0.000 C 
BRANCH  21  22
ATOM     22  N   UNL     1      49.534   7.471  16.220  0.00  0.00    +0.000 N 
ATOM     23  C   UNL     1      49.660   6.398  17.127  0.00  0.00    +0.000 C 
ATOM     24  O   UNL     1      50.208   5.355  16.805  0.00  0.00    +0.000 OA
BRANCH  23  25
ATOM     25  C   UNL     1      49.076   6.494  18.487  0.00  0.00    +0.000 A 
ATOM     26  C   UNL     1      47.826   6.010  18.834  0.00  0.00    +0.000 A 
ATOM     27  S   UNL     1      47.460   6.191  20.492  0.00  0.00    +0.000 S 
ATOM     28  C   UNL     1      49.027   6.762  20.830  0.00  0.00    +0.000 A 
ATOM     29  N   UNL     1      49.422   6.995  22.111  0.00  0.00    +0.000 NA
ATOM     30  C   UNL     1      50.660   7.355  22.222  0.00  0.00    +0.000 A 
ATOM     31  N   UNL     1      51.515   7.538  21.165  0.00  0.00    +0.000 N 
ATOM     32  C   UNL     1      51.123   7.431  19.848  0.00  0.00    +0.000 A 
ATOM     33  O   UNL     1      51.852   7.803  18.937  0.00  0.00    +0.000 OA
ATOM     34  C   UNL     1      49.776   6.914  19.678  0.00  0.00    +0.000 A 
ATOM     35  H   UNL     1      52.455   7.876  21.320  0.00  0.00    +0.000 HD
ENDBRANCH  23  25
BRANCH  22  36
ATOM     36  C   UNL     1      48.875   8.761  16.478  0.00  0.00    +0.000 C 
BRANCH  36  37
ATOM     37  C   UNL     1      49.786   9.980  16.355  0.00  0.00    +0.000 C 
BRANCH  37  38
ATOM     38  O   UNL     1      50.939   9.801  17.169  0.00  0.00    +0.000 OA
ATOM     39  H   UNL     1      51.149   8.851  17.171  0.00  0.00    +0.000 HD
ENDBRANCH  37  38
ENDBRANCH  36  37
ENDBRANCH  22  36
ENDBRANCH  21  22
ENDBRANCH   4  21
TORSDOF 12
ENDMDL
MODEL 8
REMARK VINA RESULT:    -6.414      5.298      6.675
REMARK INTER + INTRA:         -11.942
REMARK INTER:                 -10.375
REMARK INTRA:                  -1.567
REMARK UNBOUND:                -1.215
REMARK  Name = 
REMARK  14 active torsions:
REMARK  status: ('A' for Active; 'I' for Inactive)
REMARK    1  A    between atoms: C_1  and  N_2
REMARK    2  A    between atoms: N_2  and  C_3
REMARK    3  A    between atoms: C_3  and  C_4
REMARK    4  A    between atoms: C_3  and  C_14
REMARK    5  A    between atoms: C_4  and  N_5
REMARK    6  A    between atoms: N_5  and  C_6
REMARK    7  A    between atoms: N_5  and  C_7
REMARK    8  A    between atoms: C_7  and  C_8
REMARK    9  A    between atoms: C_17  and  C_18
REMARK   10  A    between atoms: C_18  and  N_19
REMARK   11  A    between atoms: N_19  and  C_20
REMARK   12  A    between atoms: C_20  and  C_21
REMARK   13  A    between atoms: C_21  and  O_22
REMARK   14  A    between atoms: C_23  and  C_25
REMARK                            x       y       z     vdW  Elec       q    Type
REMARK                         _______ _______ _______ _____ _____    ______ ____
ROOT
ATOM      1  C   UNL     1      46.238   6.666  13.029  0.00  0.00    +0.000 A 
ATOM      2  C   UNL     1      45.692   7.882  12.603  0.00  0.00    +0.000 A 
ATOM      3  C   UNL     1      46.366   9.085  12.787  0.00  0.00    +0.000 A 
ATOM      4  C   UNL     1      47.640   9.122  13.352  0.00  0.00    +0.000 A 
ATOM      5  C   UNL     1      48.202   7.911  13.790  0.00  0.00    +0.000 A 
ATOM      6  C   UNL     1      47.509   6.691  13.630  0.00  0.00    +0.000 A 
ENDROOT
BRANCH   1   7
ATOM      7  C   UNL     1      45.368   5.419  12.861  0.00  0.00    +0.000 C 
BRANCH   7   9
ATOM      8  C   UNL     1      46.660   3.434  13.424  0.00  0.00    +0.000 C 
ATOM      9  N   UNL     1      45.629   4.370  13.871  0.00  0.00    +0.000 NA
ATOM     10  H   UNL     1      45.953   4.849  14.714  0.00  0.00    +0.000 HD
ENDBRANCH   7   9
BRANCH   7  11
ATOM     11  C   UNL     1      45.398   4.867  11.381  0.00  0.00    +0.000 C 
BRANCH  11  12
ATOM     12  N   UNL     1      44.166   4.168  10.893  0.00  0.00    +0.000 NA
ATOM     13  C   UNL     1      42.929   4.794  11.387  0.00  0.00    +0.000 C 
BRANCH  12  14
ATOM     14  C   UNL     1      44.091   4.212   9.400  0.00  0.00    +0.000 C 
BRANCH  14  15
ATOM     15  C   UNL     1      45.133   3.412   8.655  0.00  0.00    +0.000 A 
ATOM     16  C   UNL     1      45.306   2.056   8.902  0.00  0.00    +0.000 A 
ATOM     17  N   UNL     1      46.248   1.310   8.275  0.00  0.00    +0.000 NA
ATOM     18  C   UNL     1      47.018   1.980   7.390  0.00  0.00    +0.000 A 
ATOM     19  C   UNL     1      46.840   3.325   7.120  0.00  0.00    +0.000 A 
ATOM     20  N   UNL     1      45.895   4.068   7.737  0.00  0.00    +0.000 NA
ENDBRANCH  14  15
ENDBRANCH  12  14
ENDBRANCH  11  12
ENDBRANCH   7  11
ENDBRANCH   1   7
BRANCH   4  21
ATOM     21  C   UNL     1      48.382  10.441  13.351  0.00  0.00    +0.000 C 
BRANCH  21  22
ATOM     22  N   UNL     1      49.727  10.434  12.764  0.00  0.00    +0.000 N 
ATOM     23  C   UNL     1      49.824  10.522  11.360  0.00  0.00    +0.000 C 
ATOM     24  O   UNL     1      48.834  10.688  10.663  0.00  0.00    +0.000 OA
BRANCH  23  25
ATOM     25  C   UNL     1      51.136  10.357  10.688  0.00  0.00    +0.000 A 
ATOM     26  C   UNL     1      51.954  11.407  10.309  0.00  0.00    +0.000 A 
ATOM     27  S   UNL     1      53.440  10.904   9.631  0.00  0.00    +0.000 S 
ATOM     28  C   UNL     1      53.109   9.273   9.982  0.00  0.00    +0.000 A 
ATOM     29  N   UNL     1      54.044   8.310   9.762  0.00  0.00    +0.000 NA
ATOM     30  C   UNL     1      53.681   7.128  10.144  0.00  0.00    +0.000 A 
ATOM     31  N   UNL     1      52.456   6.825  10.683  0.00  0.00    +0.000 N 
ATOM     32  C   UNL     1      51.438   7.747  10.809  0.00  0.00    +0.000 A 
ATOM     33  O   UNL     1      50.300   7.398  11.098  0.00  0.00    +0.000 OA
ATOM     34  C   UNL     1      51.839   9.109  10.506  0.00  0.00    +0.000 A 
ATOM     35  H   UNL     1      52.217   5.870  10.906  0.00  0.00    +0.000 HD
ENDBRANCH  23  25
BRANCH  22  36
ATOM     36  C   UNL     1      50.835  10.210  13.705  0.00  0.00    +0.000 C 
BRANCH  36  37
ATOM     37  C   UNL     1      51.497  11.482  14.229  0.00  0.00    +0.000 C 
BRANCH  37  38
ATOM     38  O   UNL     1      52.841  11.548  13.765  0.00  0.00    +0.000 OA
ATOM     39  H   UNL     1      53.408  11.707  14.539  0.00  0.00    +0.000 HD
ENDBRANCH  37  38
ENDBRANCH  36  37
ENDBRANCH  22  36
ENDBRANCH  21  22
ENDBRANCH   4  21
TORSDOF 12
ENDMDL
MODEL 9
REMARK VINA RESULT:    -6.262      3.366      4.486
REMARK INTER + INTRA:         -11.688
REMARK INTER:                 -10.160
REMARK INTRA:                  -1.528
REMARK UNBOUND:                -1.215
REMARK  Name = 
REMARK  14 active torsions:
REMARK  status: ('A' for Active; 'I' for Inactive)
REMARK    1  A    between atoms: C_1  and  N_2
REMARK    2  A    between atoms: N_2  and  C_3
REMARK    3  A    between atoms: C_3  and  C_4
REMARK    4  A    between atoms: C_3  and  C_14
REMARK    5  A    between atoms: C_4  and  N_5
REMARK    6  A    between atoms: N_5  and  C_6
REMARK    7  A    between atoms: N_5  and  C_7
REMARK    8  A    between atoms: C_7  and  C_8
REMARK    9  A    between atoms: C_17  and  C_18
REMARK   10  A    between atoms: C_18  and  N_19
REMARK   11  A    between atoms: N_19  and  C_20
REMARK   12  A    between atoms: C_20  and  C_21
REMARK   13  A    between atoms: C_21  and  O_22
REMARK   14  A    between atoms: C_23  and  C_25
REMARK                            x       y       z     vdW  Elec       q    Type
REMARK                         _______ _______ _______ _____ _____    ______ ____
ROOT
ATOM      1  C   UNL     1      45.906   6.603  12.368  0.00  0.00    +0.000 A 
ATOM      2  C   UNL     1      47.037   5.819  12.621  0.00  0.00    +0.000 A 
ATOM      3  C   UNL     1      48.116   6.313  13.347  0.00  0.00    +0.000 A 
ATOM      4  C   UNL     1      48.089   7.590  13.904  0.00  0.00    +0.000 A 
ATOM      5  C   UNL     1      46.963   8.394  13.657  0.00  0.00    +0.000 A 
ATOM      6  C   UNL     1      45.878   7.906  12.896  0.00  0.00    +0.000 A 
ENDROOT
BRANCH   1   7
ATOM      7  C   UNL     1      44.823   5.990  11.478  0.00  0.00    +0.000 C 
BRANCH   7   9
ATOM      8  C   UNL     1      42.450   6.535  11.454  0.00  0.00    +0.000 C 
ATOM      9  N   UNL     1      43.790   6.957  11.045  0.00  0.00    +0.000 NA
ATOM     10  H   UNL     1      44.013   7.846  11.497  0.00  0.00    +0.000 HD
ENDBRANCH   7   9
BRANCH   7  11
ATOM     11  C   UNL     1      44.210   4.676  12.106  0.00  0.00    +0.000 C 
BRANCH  11  12
ATOM     12  N   UNL     1      44.365   3.411  11.316  0.00  0.00    +0.000 NA
ATOM     13  C   UNL     1      43.444   2.353  11.760  0.00  0.00    +0.000 C 
BRANCH  12  14
ATOM     14  C   UNL     1      44.062   3.652   9.872  0.00  0.00    +0.000 C 
BRANCH  14  15
ATOM     15  C   UNL     1      45.149   3.282   8.891  0.00  0.00    +0.000 A 
ATOM     16  C   UNL     1      45.734   4.243   8.074  0.00  0.00    +0.000 A 
ATOM     17  N   UNL     1      46.691   3.946   7.162  0.00  0.00    +0.000 NA
ATOM     18  C   UNL     1      47.039   2.641   7.096  0.00  0.00    +0.000 A 
ATOM     19  C   UNL     1      46.479   1.681   7.918  0.00  0.00    +0.000 A 
ATOM     20  N   UNL     1      45.531   1.976   8.835  0.00  0.00    +0.000 NA
ENDBRANCH  14  15
ENDBRANCH  12  14
ENDBRANCH  11  12
ENDBRANCH   7  11
ENDBRANCH   1   7
BRANCH   4  21
ATOM     21  C   UNL     1      49.216   7.987  14.832  0.00  0.00    +0.000 C 
BRANCH  21  22
ATOM     22  N   UNL     1      49.072   7.599  16.240  0.00  0.00    +0.000 N 
ATOM     23  C   UNL     1      48.541   8.558  17.128  0.00  0.00    +0.000 C 
ATOM     24  O   UNL     1      48.132   9.638  16.727  0.00  0.00    +0.000 OA
BRANCH  23  25
ATOM     25  C   UNL     1      48.518   8.297  18.587  0.00  0.00    +0.000 A 
ATOM     26  C   UNL     1      47.420   7.806  19.274  0.00  0.00    +0.000 A 
ATOM     27  S   UNL     1      47.720   7.530  20.932  0.00  0.00    +0.000 S 
ATOM     28  C   UNL     1      49.372   7.891  20.748  0.00  0.00    +0.000 A 
ATOM     29  N   UNL     1      50.240   7.728  21.783  0.00  0.00    +0.000 NA
ATOM     30  C   UNL     1      51.474   7.970  21.477  0.00  0.00    +0.000 A 
ATOM     31  N   UNL     1      51.902   8.397  20.246  0.00  0.00    +0.000 N 
ATOM     32  C   UNL     1      51.044   8.691  19.208  0.00  0.00    +0.000 A 
ATOM     33  O   UNL     1      51.440   9.265  18.200  0.00  0.00    +0.000 OA
ATOM     34  C   UNL     1      49.663   8.321  19.466  0.00  0.00    +0.000 A 
ATOM     35  H   UNL     1      52.874   8.623  20.092  0.00  0.00    +0.000 HD
ENDBRANCH  23  25
BRANCH  22  36
ATOM     36  C   UNL     1      49.617   6.281  16.600  0.00  0.00    +0.000 C 
BRANCH  36  37
ATOM     37  C   UNL     1      48.572   5.183  16.778  0.00  0.00    +0.000 C 
BRANCH  37  38
ATOM     38  O   UNL     1      49.191   3.908  16.657  0.00  0.00    +0.000 OA
ATOM     39  H   UNL     1      48.748   3.309  17.281  0.00  0.00    +0.000 HD
ENDBRANCH  37  38
ENDBRANCH  36  37
ENDBRANCH  22  36
ENDBRANCH  21  22
ENDBRANCH   4  21
TORSDOF 12
ENDMDL
