MODEL 1
REMARK VINA RESULT:    -8.441      0.000      0.000
REMARK INTER + INTRA:         -12.079
REMARK INTER:                 -12.142
REMARK INTRA:                   0.063
REMARK UNBOUND:                 0.063
REMARK  Name = 
REMARK  10 active torsions:
REMARK  status: ('A' for Active; 'I' for Inactive)
REMARK    1  A    between atoms: C_1  and  C_2
REMARK    2  A    between atoms: C_5  and  O_6
REMARK    3  A    between atoms: O_6  and  C_7
REMARK    4  A    between atoms: C_7  and  C_8
REMARK    5  A    between atoms: C_8  and  C_9
REMARK    6  A    between atoms: C_8  and  C_10
REMARK    7  A    between atoms: C_14  and  O_15
REMARK    8  A    between atoms: O_15  and  C_16
REMARK    9  A    between atoms: CA_22  and  C_23
REMARK   10  A    between atoms: C_23  and  OXT_25
REMARK                            x       y       z     vdW  Elec       q    Type
REMARK                         _______ _______ _______ _____ _____    ______ ____
ROOT
ATOM      1  C   UNL     1      44.306   4.530  11.960  0.00  0.00    +0.000 C 
ATOM      2  C   UNL     1      43.189   4.989  12.909  0.00  0.00    +0.000 C 
ENDROOT
BRANCH   1   3
ATOM      3  C   UNL     1      45.626   5.179  12.346  0.00  0.00    +0.000 A 
ATOM      4  C   UNL     1      46.171   6.195  11.548  0.00  0.00    +0.000 A 
ATOM      5  C   UNL     1      47.332   6.867  11.944  0.00  0.00    +0.000 A 
ATOM      6  C   UNL     1      47.972   6.532  13.140  0.00  0.00    +0.000 A 
ATOM      7  C   UNL     1      47.459   5.506  13.928  0.00  0.00    +0.000 A 
ATOM      8  C   UNL     1      46.296   4.836  13.531  0.00  0.00    +0.000 A 
BRANCH   7   9
ATOM      9  O   UNL     1      47.970   5.107  15.136  0.00  0.00    +0.000 OA
BRANCH   9  10
ATOM     10  C   UNL     1      47.198   4.223  15.977  0.00  0.00    +0.000 C 
ATOM     11  C   UNL     1      47.147   4.522  17.491  0.00  0.00    +0.000 C 
ATOM     12  N   UNL     1      47.443   3.105  17.781  0.00  0.00    +0.000 NA
ATOM     13  C   UNL     1      47.941   2.937  16.403  0.00  0.00    +0.000 C 
ATOM     14  H   UNL     1      46.617   2.543  17.988  0.00  0.00    +0.000 HD
ENDBRANCH   9  10
ENDBRANCH   7   9
ENDBRANCH   1   3
BRANCH   1  15
ATOM     15  C   UNL     1      44.381   2.993  11.891  0.00  0.00    +0.000 C 
BRANCH  15  16
ATOM     16  O   UNL     1      43.752   2.564  10.676  0.00  0.00    +0.000 OA
BRANCH  16  21
ATOM     17  C   UNL     1      46.827   3.330   6.074  0.00  0.00    +0.000 C 
ATOM     18  C   UNL     1      46.027   3.106   7.313  0.00  0.00    +0.000 A 
ATOM     19  C   UNL     1      45.197   4.088   7.808  0.00  0.00    +0.000 A 
ATOM     20  N   UNL     1      44.437   3.954   8.912  0.00  0.00    +0.000 NA
ATOM     21  C   UNL     1      44.515   2.782   9.552  0.00  0.00    +0.000 A 
ATOM     22  N   UNL     1      45.283   1.750   9.187  0.00  0.00    +0.000 NA
ATOM     23  CA  UNL     1      46.027   1.942   8.062  0.00  0.00    +0.000 A 
BRANCH  23  24
ATOM     24  C   UNL     1      46.870   0.752   7.696  0.00  0.00    +0.000 C 
ATOM     25  O   UNL     1      46.576  -0.415   7.872  0.00  0.00    +0.000 OA
BRANCH  24  26
ATOM     26  OXT UNL     1      48.034   1.154   7.127  0.00  0.00    +0.000 OA
ATOM     27  HXT UNL     1      48.617   1.543   7.822  0.00  0.00    +0.000 HD
ENDBRANCH  24  26
ENDBRANCH  23  24
ENDBRANCH  16  21
ENDBRANCH  15  16
ENDBRANCH   1  15
TORSDOF 8
ENDMDL
MODEL 2
REMARK VINA RESULT:    -8.288      2.378      8.070
REMARK INTER + INTRA:         -11.858
REMARK INTER:                 -11.304
REMARK INTRA:                  -0.554
REMARK UNBOUND:                 0.063
REMARK  Name = 
REMARK  10 active torsions:
REMARK  status: ('A' for Active; 'I' for Inactive)
REMARK    1  A    between atoms: C_1  and  C_2
REMARK    2  A    between atoms: C_5  and  O_6
REMARK    3  A    between atoms: O_6  and  C_7
REMARK    4  A    between atoms: C_7  and  C_8
REMARK    5  A    between atoms: C_8  and  C_9
REMARK    6  A    between atoms: C_8  and  C_10
REMARK    7  A    between atoms: C_14  and  O_15
REMARK    8  A    between atoms: O_15  and  C_16
REMARK    9  A    between atoms: CA_22  and  C_23
REMARK   10  A    between atoms: C_23  and  OXT_25
REMARK                            x       y       z     vdW  Elec       q    Type
REMARK                         _______ _______ _______ _____ _____    ______ ____
ROOT
ATOM      1  C   UNL     1      45.374   5.901  11.546  0.00  0.00    +0.000 C 
ATOM      2  C   UNL     1      46.583   6.737  11.101  0.00  0.00    +0.000 C 
ENDROOT
BRANCH   1   3
ATOM      3  C   UNL     1      45.165   4.730  10.600  0.00  0.00    +0.000 A 
ATOM      4  C   UNL     1      44.361   3.648  10.987  0.00  0.00    +0.000 A 
ATOM      5  C   UNL     1      44.080   2.613  10.089  0.00  0.00    +0.000 A 
ATOM      6  C   UNL     1      44.602   2.637   8.793  0.00  0.00    +0.000 A 
ATOM      7  C   UNL     1      45.424   3.690   8.405  0.00  0.00    +0.000 A 
ATOM      8  C   UNL     1      45.703   4.726   9.304  0.00  0.00    +0.000 A 
BRANCH   7   9
ATOM      9  O   UNL     1      45.968   3.849   7.156  0.00  0.00    +0.000 OA
BRANCH   9  10
ATOM     10  C   UNL     1      46.471   2.695   6.448  0.00  0.00    +0.000 C 
ATOM     11  C   UNL     1      47.646   1.914   7.075  0.00  0.00    +0.000 C 
ATOM     12  N   UNL     1      48.343   1.917   5.773  0.00  0.00    +0.000 NA
ATOM     13  C   UNL     1      47.479   3.025   5.324  0.00  0.00    +0.000 C 
ATOM     14  H   UNL     1      48.219   1.059   5.235  0.00  0.00    +0.000 HD
ENDBRANCH   9  10
ENDBRANCH   7   9
ENDBRANCH   1   3
BRANCH   1  15
ATOM     15  C   UNL     1      45.505   5.477  13.022  0.00  0.00    +0.000 C 
BRANCH  15  16
ATOM     16  O   UNL     1      46.739   4.763  13.179  0.00  0.00    +0.000 OA
BRANCH  16  21
ATOM     17  C   UNL     1      49.387   5.707  18.007  0.00  0.00    +0.000 C 
ATOM     18  C   UNL     1      48.660   5.438  16.733  0.00  0.00    +0.000 A 
ATOM     19  C   UNL     1      48.690   6.343  15.694  0.00  0.00    +0.000 A 
ATOM     20  N   UNL     1      48.069   6.163  14.513  0.00  0.00    +0.000 NA
ATOM     21  C   UNL     1      47.382   5.025  14.366  0.00  0.00    +0.000 A 
ATOM     22  N   UNL     1      47.263   4.067  15.292  0.00  0.00    +0.000 NA
ATOM     23  CA  UNL     1      47.914   4.303  16.465  0.00  0.00    +0.000 A 
BRANCH  23  24
ATOM     24  C   UNL     1      47.750   3.196  17.469  0.00  0.00    +0.000 C 
ATOM     25  O   UNL     1      48.649   2.592  18.024  0.00  0.00    +0.000 OA
BRANCH  24  26
ATOM     26  OXT UNL     1      46.434   2.947  17.687  0.00  0.00    +0.000 OA
ATOM     27  HXT UNL     1      46.056   3.669  18.244  0.00  0.00    +0.000 HD
ENDBRANCH  24  26
ENDBRANCH  23  24
ENDBRANCH  16  21
ENDBRANCH  15  16
ENDBRANCH   1  15
TORSDOF 8
ENDMDL
MODEL 3
REMARK VINA RESULT:    -7.546      2.201      7.532
REMARK INTER + INTRA:         -10.792
REMARK INTER:                  -9.908
REMARK INTRA:                  -0.884
REMARK UNBOUND:                 0.063
REMARK  Name = 
REMARK  10 active torsions:
REMARK  status: ('A' for Active; 'I' for Inactive)
REMARK    1  A    between atoms: C_1  and  C_2
REMARK    2  A    between atoms: C_5  and  O_6
REMARK    3  A    between atoms: O_6  and  C_7
REMARK    4  A    between atoms: C_7  and  C_8
REMARK    5  A    between atoms: C_8  and  C_9
REMARK    6  A    between atoms: C_8  and  C_10
REMARK    7  A    between atoms: C_14  and  O_15
REMARK    8  A    between atoms: O_15  and  C_16
REMARK    9  A    between atoms: CA_22  and  C_23
REMARK   10  A    between atoms: C_23  and  OXT_25
REMARK                            x       y       z     vdW  Elec       q    Type
REMARK                         _______ _______ _______ _____ _____    ______ ____
ROOT
ATOM      1  C   UNL     1      45.585   7.439  12.527  0.00  0.00    +0.000 C 
ATOM      2  C   UNL     1      45.034   8.668  11.790  0.00  0.00    +0.000 C 
ENDROOT
BRANCH   1   3
ATOM      3  C   UNL     1      44.839   6.186  12.095  0.00  0.00    +0.000 A 
ATOM      4  C   UNL     1      43.942   5.563  12.975  0.00  0.00    +0.000 A 
ATOM      5  C   UNL     1      43.177   4.471  12.555  0.00  0.00    +0.000 A 
ATOM      6  C   UNL     1      43.298   3.977  11.253  0.00  0.00    +0.000 A 
ATOM      7  C   UNL     1      44.205   4.567  10.379  0.00  0.00    +0.000 A 
ATOM      8  C   UNL     1      44.969   5.662  10.800  0.00  0.00    +0.000 A 
BRANCH   7   9
ATOM      9  O   UNL     1      44.393   4.202   9.071  0.00  0.00    +0.000 OA
BRANCH   9  10
ATOM     10  C   UNL     1      45.653   3.623   8.668  0.00  0.00    +0.000 C 
ATOM     11  C   UNL     1      45.931   3.468   7.157  0.00  0.00    +0.000 C 
ATOM     12  N   UNL     1      46.369   2.075   7.381  0.00  0.00    +0.000 NA
ATOM     13  C   UNL     1      45.680   2.078   8.685  0.00  0.00    +0.000 C 
ATOM     14  H   UNL     1      47.381   1.967   7.454  0.00  0.00    +0.000 HD
ENDBRANCH   9  10
ENDBRANCH   7   9
ENDBRANCH   1   3
BRANCH   1  15
ATOM     15  C   UNL     1      47.113   7.327  12.356  0.00  0.00    +0.000 C 
BRANCH  15  16
ATOM     16  O   UNL     1      47.519   6.018  12.778  0.00  0.00    +0.000 OA
BRANCH  16  21
ATOM     17  C   UNL     1      49.013   5.629  18.148  0.00  0.00    +0.000 C 
ATOM     18  C   UNL     1      48.591   5.713  16.720  0.00  0.00    +0.000 A 
ATOM     19  C   UNL     1      48.824   6.851  15.978  0.00  0.00    +0.000 A 
ATOM     20  N   UNL     1      48.483   6.995  14.683  0.00  0.00    +0.000 NA
ATOM     21  C   UNL     1      47.878   5.951  14.104  0.00  0.00    +0.000 A 
ATOM     22  N   UNL     1      47.585   4.794  14.708  0.00  0.00    +0.000 NA
ATOM     23  CA  UNL     1      47.956   4.705  16.015  0.00  0.00    +0.000 A 
BRANCH  23  24
ATOM     24  C   UNL     1      47.606   3.385  16.644  0.00  0.00    +0.000 C 
ATOM     25  O   UNL     1      46.595   3.137  17.275  0.00  0.00    +0.000 OA
BRANCH  24  26
ATOM     26  OXT UNL     1      48.585   2.476  16.412  0.00  0.00    +0.000 OA
ATOM     27  HXT UNL     1      48.727   2.393  15.439  0.00  0.00    +0.000 HD
ENDBRANCH  24  26
ENDBRANCH  23  24
ENDBRANCH  16  21
ENDBRANCH  15  16
ENDBRANCH   1  15
TORSDOF 8
ENDMDL
MODEL 4
REMARK VINA RESULT:    -7.532      2.280      8.281
REMARK INTER + INTRA:         -10.771
REMARK INTER:                 -10.224
REMARK INTRA:                  -0.547
REMARK UNBOUND:                 0.063
REMARK  Name = 
REMARK  10 active torsions:
REMARK  status: ('A' for Active; 'I' for Inactive)
REMARK    1  A    between atoms: C_1  and  C_2
REMARK    2  A    between atoms: C_5  and  O_6
REMARK    3  A    between atoms: O_6  and  C_7
REMARK    4  A    between atoms: C_7  and  C_8
REMARK    5  A    between atoms: C_8  and  C_9
REMARK    6  A    between atoms: C_8  and  C_10
REMARK    7  A    between atoms: C_14  and  O_15
REMARK    8  A    between atoms: O_15  and  C_16
REMARK    9  A    between atoms: CA_22  and  C_23
REMARK   10  A    between atoms: C_23  and  OXT_25
REMARK                            x       y       z     vdW  Elec       q    Type
REMARK                         _______ _______ _______ _____ _____    ______ ____
ROOT
ATOM      1  C   UNL     1      45.391   5.765  11.785  0.00  0.00    +0.000 C 
ATOM      2  C   UNL     1      46.552   6.629  11.271  0.00  0.00    +0.000 C 
ENDROOT
BRANCH   1   3
ATOM      3  C   UNL     1      45.129   4.611  10.830  0.00  0.00    +0.000 A 
ATOM      4  C   UNL     1      44.383   3.502  11.255  0.00  0.00    +0.000 A 
ATOM      5  C   UNL     1      44.051   2.482  10.357  0.00  0.00    +0.000 A 
ATOM      6  C   UNL     1      44.464   2.548   9.024  0.00  0.00    +0.000 A 
ATOM      7  C   UNL     1      45.229   3.628   8.596  0.00  0.00    +0.000 A 
ATOM      8  C   UNL     1      45.558   4.649   9.495  0.00  0.00    +0.000 A 
BRANCH   7   9
ATOM      9  O   UNL     1      45.664   3.828   7.311  0.00  0.00    +0.000 OA
BRANCH   9  10
ATOM     10  C   UNL     1      46.992   3.404   6.937  0.00  0.00    +0.000 C 
ATOM     11  C   UNL     1      47.209   2.878   5.501  0.00  0.00    +0.000 C 
ATOM     12  N   UNL     1      47.943   1.715   6.037  0.00  0.00    +0.000 NA
ATOM     13  C   UNL     1      47.345   1.961   7.363  0.00  0.00    +0.000 C 
ATOM     14  H   UNL     1      48.957   1.822   6.021  0.00  0.00    +0.000 HD
ENDBRANCH   9  10
ENDBRANCH   7   9
ENDBRANCH   1   3
BRANCH   1  15
ATOM     15  C   UNL     1      45.637   5.310  13.237  0.00  0.00    +0.000 C 
BRANCH  15  16
ATOM     16  O   UNL     1      47.022   5.516  13.546  0.00  0.00    +0.000 OA
BRANCH  16  21
ATOM     17  C   UNL     1      48.571   3.520  18.529  0.00  0.00    +0.000 C 
ATOM     18  C   UNL     1      48.186   4.064  17.195  0.00  0.00    +0.000 A 
ATOM     19  C   UNL     1      47.180   3.480  16.455  0.00  0.00    +0.000 A 
ATOM     20  N   UNL     1      46.770   3.922  15.251  0.00  0.00    +0.000 NA
ATOM     21  C   UNL     1      47.400   4.996  14.762  0.00  0.00    +0.000 A 
ATOM     22  N   UNL     1      48.395   5.653  15.369  0.00  0.00    +0.000 NA
ATOM     23  CA  UNL     1      48.765   5.163  16.585  0.00  0.00    +0.000 A 
BRANCH  23  24
ATOM     24  C   UNL     1      49.884   5.938  17.223  0.00  0.00    +0.000 C 
ATOM     25  O   UNL     1      49.765   6.797  18.077  0.00  0.00    +0.000 OA
BRANCH  24  26
ATOM     26  OXT UNL     1      51.079   5.548  16.714  0.00  0.00    +0.000 OA
ATOM     27  HXT UNL     1      51.106   4.563  16.666  0.00  0.00    +0.000 HD
ENDBRANCH  24  26
ENDBRANCH  23  24
ENDBRANCH  16  21
ENDBRANCH  15  16
ENDBRANCH   1  15
TORSDOF 8
ENDMDL
MODEL 5
REMARK VINA RESULT:    -7.366      1.739      2.373
REMARK INTER + INTRA:         -10.532
REMARK INTER:                  -9.955
REMARK INTRA:                  -0.577
REMARK UNBOUND:                 0.063
REMARK  Name = 
REMARK  10 active torsions:
REMARK  status: ('A' for Active; 'I' for Inactive)
REMARK    1  A    between atoms: C_1  and  C_2
REMARK    2  A    between atoms: C_5  and  O_6
REMARK    3  A    between atoms: O_6  and  C_7
REMARK    4  A    between atoms: C_7  and  C_8
REMARK    5  A    between atoms: C_8  and  C_9
REMARK    6  A    between atoms: C_8  and  C_10
REMARK    7  A    between atoms: C_14  and  O_15
REMARK    8  A    between atoms: O_15  and  C_16
REMARK    9  A    between atoms: CA_22  and  C_23
REMARK   10  A    between atoms: C_23  and  OXT_25
REMARK                            x       y       z     vdW  Elec       q    Type
REMARK                         _______ _______ _______ _____ _____    ______ ____
ROOT
ATOM      1  C   UNL     1      43.505   6.065  10.990  0.00  0.00    +0.000 C 
ATOM      2  C   UNL     1      42.260   6.038  11.888  0.00  0.00    +0.000 C 
ENDROOT
BRANCH   1   3
ATOM      3  C   UNL     1      44.622   6.850  11.659  0.00  0.00    +0.000 A 
ATOM      4  C   UNL     1      44.693   8.242  11.509  0.00  0.00    +0.000 A 
ATOM      5  C   UNL     1      45.655   8.985  12.200  0.00  0.00    +0.000 A 
ATOM      6  C   UNL     1      46.568   8.350  13.046  0.00  0.00    +0.000 A 
ATOM      7  C   UNL     1      46.529   6.967  13.183  0.00  0.00    +0.000 A 
ATOM      8  C   UNL     1      45.563   6.225  12.493  0.00  0.00    +0.000 A 
BRANCH   7   9
ATOM      9  O   UNL     1      47.341   6.231  14.006  0.00  0.00    +0.000 OA
BRANCH   9  10
ATOM     10  C   UNL     1      46.847   5.000  14.577  0.00  0.00    +0.000 C 
ATOM     11  C   UNL     1      47.616   4.392  15.770  0.00  0.00    +0.000 C 
ATOM     12  N   UNL     1      47.588   3.069  15.114  0.00  0.00    +0.000 NA
ATOM     13  C   UNL     1      47.292   3.724  13.826  0.00  0.00    +0.000 C 
ATOM     14  H   UNL     1      46.839   2.460  15.444  0.00  0.00    +0.000 HD
ENDBRANCH   9  10
ENDBRANCH   7   9
ENDBRANCH   1   3
BRANCH   1  15
ATOM     15  C   UNL     1      43.924   4.641  10.576  0.00  0.00    +0.000 C 
BRANCH  15  16
ATOM     16  O   UNL     1      44.130   4.625   9.157  0.00  0.00    +0.000 OA
BRANCH  16  21
ATOM     17  C   UNL     1      47.011   0.203   7.325  0.00  0.00    +0.000 C 
ATOM     18  C   UNL     1      46.243   1.395   7.786  0.00  0.00    +0.000 A 
ATOM     19  C   UNL     1      45.345   1.302   8.828  0.00  0.00    +0.000 A 
ATOM     20  N   UNL     1      44.627   2.336   9.306  0.00  0.00    +0.000 NA
ATOM     21  C   UNL     1      44.814   3.519   8.709  0.00  0.00    +0.000 A 
ATOM     22  N   UNL     1      45.644   3.749   7.686  0.00  0.00    +0.000 NA
ATOM     23  CA  UNL     1      46.346   2.667   7.247  0.00  0.00    +0.000 A 
BRANCH  23  24
ATOM     24  C   UNL     1      47.265   2.979   6.099  0.00  0.00    +0.000 C 
ATOM     25  O   UNL     1      46.937   3.111   4.935  0.00  0.00    +0.000 OA
BRANCH  24  26
ATOM     26  OXT UNL     1      48.543   3.101   6.536  0.00  0.00    +0.000 OA
ATOM     27  HXT UNL     1      48.947   3.907   6.133  0.00  0.00    +0.000 HD
ENDBRANCH  24  26
ENDBRANCH  23  24
ENDBRANCH  16  21
ENDBRANCH  15  16
ENDBRANCH   1  15
TORSDOF 8
ENDMDL
MODEL 6
REMARK VINA RESULT:    -7.233      3.057      7.790
REMARK INTER + INTRA:         -10.341
REMARK INTER:                  -9.455
REMARK INTRA:                  -0.885
REMARK UNBOUND:                 0.063
REMARK  Name = 
REMARK  10 active torsions:
REMARK  status: ('A' for Active; 'I' for Inactive)
REMARK    1  A    between atoms: C_1  and  C_2
REMARK    2  A    between atoms: C_5  and  O_6
REMARK    3  A    between atoms: O_6  and  C_7
REMARK    4  A    between atoms: C_7  and  C_8
REMARK    5  A    between atoms: C_8  and  C_9
REMARK    6  A    between atoms: C_8  and  C_10
REMARK    7  A    between atoms: C_14  and  O_15
REMARK    8  A    between atoms: O_15  and  C_16
REMARK    9  A    between atoms: CA_22  and  C_23
REMARK   10  A    between atoms: C_23  and  OXT_25
REMARK                            x       y       z     vdW  Elec       q    Type
REMARK                         _______ _______ _______ _____ _____    ______ ____
ROOT
ATOM      1  C   UNL     1      48.612   7.988  12.851  0.00  0.00    +0.000 C 
ATOM      2  C   UNL     1      49.530   8.165  11.633  0.00  0.00    +0.000 C 
ENDROOT
BRANCH   1   3
ATOM      3  C   UNL     1      47.209   7.609  12.404  0.00  0.00    +0.000 A 
ATOM      4  C   UNL     1      46.252   8.606  12.167  0.00  0.00    +0.000 A 
ATOM      5  C   UNL     1      44.991   8.276  11.661  0.00  0.00    +0.000 A 
ATOM      6  C   UNL     1      44.661   6.946  11.390  0.00  0.00    +0.000 A 
ATOM      7  C   UNL     1      45.590   5.943  11.647  0.00  0.00    +0.000 A 
ATOM      8  C   UNL     1      46.853   6.275  12.152  0.00  0.00    +0.000 A 
BRANCH   7   9
ATOM      9  O   UNL     1      45.404   4.609  11.392  0.00  0.00    +0.000 OA
BRANCH   9  10
ATOM     10  C   UNL     1      44.062   4.078  11.328  0.00  0.00    +0.000 C 
ATOM     11  C   UNL     1      43.541   3.275  12.540  0.00  0.00    +0.000 C 
ATOM     12  N   UNL     1      43.057   2.217  11.630  0.00  0.00    +0.000 NA
ATOM     13  C   UNL     1      43.942   2.737  10.570  0.00  0.00    +0.000 C 
ATOM     14  H   UNL     1      42.065   2.287  11.405  0.00  0.00    +0.000 HD
ENDBRANCH   9  10
ENDBRANCH   7   9
ENDBRANCH   1   3
BRANCH   1  15
ATOM     15  C   UNL     1      49.217   6.998  13.865  0.00  0.00    +0.000 C 
BRANCH  15  16
ATOM     16  O   UNL     1      49.293   7.648  15.141  0.00  0.00    +0.000 OA
BRANCH  16  21
ATOM     17  C   UNL     1      48.727   4.072  19.396  0.00  0.00    +0.000 C 
ATOM     18  C   UNL     1      48.852   5.016  18.248  0.00  0.00    +0.000 A 
ATOM     19  C   UNL     1      49.501   6.223  18.390  0.00  0.00    +0.000 A 
ATOM     20  N   UNL     1      49.664   7.118  17.398  0.00  0.00    +0.000 NA
ATOM     21  C   UNL     1      49.148   6.791  16.207  0.00  0.00    +0.000 A 
ATOM     22  N   UNL     1      48.489   5.660  15.933  0.00  0.00    +0.000 NA
ATOM     23  CA  UNL     1      48.358   4.791  16.974  0.00  0.00    +0.000 A 
BRANCH  23  24
ATOM     24  C   UNL     1      47.612   3.538  16.613  0.00  0.00    +0.000 C 
ATOM     25  O   UNL     1      46.496   3.233  16.992  0.00  0.00    +0.000 OA
BRANCH  24  26
ATOM     26  OXT UNL     1      48.358   2.765  15.785  0.00  0.00    +0.000 OA
ATOM     27  HXT UNL     1      47.975   2.799  14.876  0.00  0.00    +0.000 HD
ENDBRANCH  24  26
ENDBRANCH  23  24
ENDBRANCH  16  21
ENDBRANCH  15  16
ENDBRANCH   1  15
TORSDOF 8
ENDMDL
MODEL 7
REMARK VINA RESULT:    -7.168      3.180      5.864
REMARK INTER + INTRA:         -10.247
REMARK INTER:                  -9.159
REMARK INTRA:                  -1.088
REMARK UNBOUND:                 0.063
REMARK  Name = 
REMARK  10 active torsions:
REMARK  status: ('A' for Active; 'I' for Inactive)
REMARK    1  A    between atoms: C_1  and  C_2
REMARK    2  A    between atoms: C_5  and  O_6
REMARK    3  A    between atoms: O_6  and  C_7
REMARK    4  A    between atoms: C_7  and  C_8
REMARK    5  A    between atoms: C_8  and  C_9
REMARK    6  A    between atoms: C_8  and  C_10
REMARK    7  A    between atoms: C_14  and  O_15
REMARK    8  A    between atoms: O_15  and  C_16
REMARK    9  A    between atoms: CA_22  and  C_23
REMARK   10  A    between atoms: C_23  and  OXT_25
REMARK                            x       y       z     vdW  Elec       q    Type
REMARK                         _______ _______ _______ _____ _____    ______ ____
ROOT
ATOM      1  C   UNL     1      48.677   3.053  17.200  0.00  0.00    +0.000 C 
ATOM      2  C   UNL     1      49.283   1.754  16.648  0.00  0.00    +0.000 C 
ENDROOT
BRANCH   1   3
ATOM      3  C   UNL     1      49.755   4.112  17.361  0.00  0.00    +0.000 A 
ATOM      4  C   UNL     1      51.053   3.743  17.742  0.00  0.00    +0.000 A 
ATOM      5  C   UNL     1      52.076   4.695  17.796  0.00  0.00    +0.000 A 
ATOM      6  C   UNL     1      51.820   6.031  17.479  0.00  0.00    +0.000 A 
ATOM      7  C   UNL     1      50.531   6.417  17.128  0.00  0.00    +0.000 A 
ATOM      8  C   UNL     1      49.508   5.463  17.072  0.00  0.00    +0.000 A 
BRANCH   7   9
ATOM      9  O   UNL     1      50.158   7.685  16.762  0.00  0.00    +0.000 OA
BRANCH   9  10
ATOM     10  C   UNL     1      48.807   7.925  16.310  0.00  0.00    +0.000 C 
ATOM     11  C   UNL     1      48.607   8.497  14.890  0.00  0.00    +0.000 C 
ATOM     12  N   UNL     1      47.668   9.502  15.426  0.00  0.00    +0.000 NA
ATOM     13  C   UNL     1      48.208   9.270  16.780  0.00  0.00    +0.000 C 
ATOM     14  H   UNL     1      46.686   9.244  15.329  0.00  0.00    +0.000 HD
ENDBRANCH   9  10
ENDBRANCH   7   9
ENDBRANCH   1   3
BRANCH   1  15
ATOM     15  C   UNL     1      47.487   3.521  16.340  0.00  0.00    +0.000 C 
BRANCH  15  16
ATOM     16  O   UNL     1      47.690   3.058  14.998  0.00  0.00    +0.000 OA
BRANCH  16  21
ATOM     17  C   UNL     1      45.000   6.106  11.166  0.00  0.00    +0.000 C 
ATOM     18  C   UNL     1      45.713   5.268  12.172  0.00  0.00    +0.000 A 
ATOM     19  C   UNL     1      46.701   5.804  12.969  0.00  0.00    +0.000 A 
ATOM     20  N   UNL     1      47.379   5.112  13.905  0.00  0.00    +0.000 NA
ATOM     21  C   UNL     1      47.054   3.822  14.047  0.00  0.00    +0.000 A 
ATOM     22  N   UNL     1      46.124   3.175  13.337  0.00  0.00    +0.000 NA
ATOM     23  CA  UNL     1      45.470   3.925  12.407  0.00  0.00    +0.000 A 
BRANCH  23  24
ATOM     24  C   UNL     1      44.436   3.151  11.639  0.00  0.00    +0.000 C 
ATOM     25  O   UNL     1      43.256   3.052  11.924  0.00  0.00    +0.000 OA
BRANCH  24  26
ATOM     26  OXT UNL     1      44.996   2.559  10.555  0.00  0.00    +0.000 OA
ATOM     27  HXT UNL     1      44.292   2.365   9.891  0.00  0.00    +0.000 HD
ENDBRANCH  24  26
ENDBRANCH  23  24
ENDBRANCH  16  21
ENDBRANCH  15  16
ENDBRANCH   1  15
TORSDOF 8
ENDMDL
MODEL 8
REMARK VINA RESULT:    -7.144      2.821      8.033
REMARK INTER + INTRA:         -10.213
REMARK INTER:                  -9.536
REMARK INTRA:                  -0.678
REMARK UNBOUND:                 0.063
REMARK  Name = 
REMARK  10 active torsions:
REMARK  status: ('A' for Active; 'I' for Inactive)
REMARK    1  A    between atoms: C_1  and  C_2
REMARK    2  A    between atoms: C_5  and  O_6
REMARK    3  A    between atoms: O_6  and  C_7
REMARK    4  A    between atoms: C_7  and  C_8
REMARK    5  A    between atoms: C_8  and  C_9
REMARK    6  A    between atoms: C_8  and  C_10
REMARK    7  A    between atoms: C_14  and  O_15
REMARK    8  A    between atoms: O_15  and  C_16
REMARK    9  A    between atoms: CA_22  and  C_23
REMARK   10  A    between atoms: C_23  and  OXT_25
REMARK                            x       y       z     vdW  Elec       q    Type
REMARK                         _______ _______ _______ _____ _____    ______ ____
ROOT
ATOM      1  C   UNL     1      45.456   5.963  11.576  0.00  0.00    +0.000 C 
ATOM      2  C   UNL     1      44.356   7.014  11.371  0.00  0.00    +0.000 C 
ENDROOT
BRANCH   1   3
ATOM      3  C   UNL     1      45.185   4.740  10.713  0.00  0.00    +0.000 A 
ATOM      4  C   UNL     1      44.461   3.659  11.234  0.00  0.00    +0.000 A 
ATOM      5  C   UNL     1      44.120   2.573  10.420  0.00  0.00    +0.000 A 
ATOM      6  C   UNL     1      44.503   2.545   9.077  0.00  0.00    +0.000 A 
ATOM      7  C   UNL     1      45.247   3.598   8.555  0.00  0.00    +0.000 A 
ATOM      8  C   UNL     1      45.585   4.685   9.369  0.00  0.00    +0.000 A 
BRANCH   7   9
ATOM      9  O   UNL     1      45.652   3.708   7.249  0.00  0.00    +0.000 OA
BRANCH   9  10
ATOM     10  C   UNL     1      47.019   3.396   6.901  0.00  0.00    +0.000 C 
ATOM     11  C   UNL     1      47.312   2.940   5.455  0.00  0.00    +0.000 C 
ATOM     12  N   UNL     1      48.116   1.814   5.973  0.00  0.00    +0.000 NA
ATOM     13  C   UNL     1      47.465   1.968   7.288  0.00  0.00    +0.000 C 
ATOM     14  H   UNL     1      49.120   1.996   5.990  0.00  0.00    +0.000 HD
ENDBRANCH   9  10
ENDBRANCH   7   9
ENDBRANCH   1   3
BRANCH   1  15
ATOM     15  C   UNL     1      46.854   6.570  11.350  0.00  0.00    +0.000 C 
BRANCH  15  16
ATOM     16  O   UNL     1      47.003   7.699  12.222  0.00  0.00    +0.000 OA
BRANCH  16  21
ATOM     17  C   UNL     1      51.318   7.168  15.731  0.00  0.00    +0.000 C 
ATOM     18  C   UNL     1      50.147   7.306  14.818  0.00  0.00    +0.000 A 
ATOM     19  C   UNL     1      50.239   8.036  13.652  0.00  0.00    +0.000 A 
ATOM     20  N   UNL     1      49.229   8.194  12.775  0.00  0.00    +0.000 NA
ATOM     21  C   UNL     1      48.072   7.597  13.081  0.00  0.00    +0.000 A 
ATOM     22  N   UNL     1      47.843   6.869  14.179  0.00  0.00    +0.000 NA
ATOM     23  CA  UNL     1      48.900   6.741  15.028  0.00  0.00    +0.000 A 
BRANCH  23  24
ATOM     24  C   UNL     1      48.590   5.913  16.244  0.00  0.00    +0.000 C 
ATOM     25  O   UNL     1      48.720   4.707  16.341  0.00  0.00    +0.000 OA
BRANCH  24  26
ATOM     26  OXT UNL     1      48.135   6.701  17.250  0.00  0.00    +0.000 OA
ATOM     27  HXT UNL     1      48.837   7.349  17.497  0.00  0.00    +0.000 HD
ENDBRANCH  24  26
ENDBRANCH  23  24
ENDBRANCH  16  21
ENDBRANCH  15  16
ENDBRANCH   1  15
TORSDOF 8
ENDMDL
MODEL 9
REMARK VINA RESULT:    -6.969      2.965      4.471
REMARK INTER + INTRA:          -9.961
REMARK INTER:                  -9.678
REMARK INTRA:                  -0.283
REMARK UNBOUND:                 0.063
REMARK  Name = 
REMARK  10 active torsions:
REMARK  status: ('A' for Active; 'I' for Inactive)
REMARK    1  A    between atoms: C_1  and  C_2
REMARK    2  A    between atoms: C_5  and  O_6
REMARK    3  A    between atoms: O_6  and  C_7
REMARK    4  A    between atoms: C_7  and  C_8
REMARK    5  A    between atoms: C_8  and  C_9
REMARK    6  A    between atoms: C_8  and  C_10
REMARK    7  A    between atoms: C_14  and  O_15
REMARK    8  A    between atoms: O_15  and  C_16
REMARK    9  A    between atoms: CA_22  and  C_23
REMARK   10  A    between atoms: C_23  and  OXT_25
REMARK                            x       y       z     vdW  Elec       q    Type
REMARK                         _______ _______ _______ _____ _____    ______ ____
ROOT
ATOM      1  C   UNL     1      43.281   4.553  12.252  0.00  0.00    +0.000 C 
ATOM      2  C   UNL     1      43.523   3.542  13.382  0.00  0.00    +0.000 C 
ENDROOT
BRANCH   1   3
ATOM      3  C   UNL     1      44.293   5.685  12.330  0.00  0.00    +0.000 A 
ATOM      4  C   UNL     1      45.513   5.493  12.993  0.00  0.00    +0.000 A 
ATOM      5  C   UNL     1      46.492   6.492  12.985  0.00  0.00    +0.000 A 
ATOM      6  C   UNL     1      46.266   7.701  12.322  0.00  0.00    +0.000 A 
ATOM      7  C   UNL     1      45.049   7.917  11.685  0.00  0.00    +0.000 A 
ATOM      8  C   UNL     1      44.071   6.915  11.691  0.00  0.00    +0.000 A 
BRANCH   7   9
ATOM      9  O   UNL     1      44.718   9.040  10.972  0.00  0.00    +0.000 OA
BRANCH   9  10
ATOM     10  C   UNL     1      44.570  10.301  11.661  0.00  0.00    +0.000 C 
ATOM     11  C   UNL     1      43.352  11.182  11.308  0.00  0.00    +0.000 C 
ATOM     12  N   UNL     1      44.238  12.358  11.188  0.00  0.00    +0.000 NA
ATOM     13  C   UNL     1      45.400  11.458  11.059  0.00  0.00    +0.000 C 
ATOM     14  H   UNL     1      44.265  12.943  12.024  0.00  0.00    +0.000 HD
ENDBRANCH   9  10
ENDBRANCH   7   9
ENDBRANCH   1   3
BRANCH   1  15
ATOM     15  C   UNL     1      43.252   3.855  10.878  0.00  0.00    +0.000 C 
BRANCH  15  16
ATOM     16  O   UNL     1      44.414   3.020  10.772  0.00  0.00    +0.000 OA
BRANCH  16  21
ATOM     17  C   UNL     1      46.894   3.181   5.768  0.00  0.00    +0.000 C 
ATOM     18  C   UNL     1      46.253   3.118   7.113  0.00  0.00    +0.000 A 
ATOM     19  C   UNL     1      45.570   4.200   7.625  0.00  0.00    +0.000 A 
ATOM     20  N   UNL     1      44.957   4.212   8.824  0.00  0.00    +0.000 NA
ATOM     21  C   UNL     1      45.033   3.089   9.546  0.00  0.00    +0.000 A 
ATOM     22  N   UNL     1      45.668   1.971   9.175  0.00  0.00    +0.000 NA
ATOM     23  CA  UNL     1      46.267   2.017   7.952  0.00  0.00    +0.000 A 
BRANCH  23  24
ATOM     24  C   UNL     1      46.964   0.736   7.583  0.00  0.00    +0.000 C 
ATOM     25  O   UNL     1      46.565  -0.389   7.818  0.00  0.00    +0.000 OA
BRANCH  24  26
ATOM     26  OXT UNL     1      48.126   1.000   6.936  0.00  0.00    +0.000 OA
ATOM     27  HXT UNL     1      48.852   0.470   7.345  0.00  0.00    +0.000 HD
ENDBRANCH  24  26
ENDBRANCH  23  24
ENDBRANCH  16  21
ENDBRANCH  15  16
ENDBRANCH   1  15
TORSDOF 8
ENDMDL
