MODEL 1
REMARK VINA RESULT:    -6.940      0.000      0.000
REMARK INTER + INTRA:          -9.992
REMARK INTER:                  -8.969
REMARK INTRA:                  -1.023
REMARK UNBOUND:                -1.023
REMARK  Name = 
REMARK  5 active torsions:
REMARK  status: ('A' for Active; 'I' for Inactive)
REMARK    1  A    between atoms: C_2  and  C_4
REMARK    2  A    between atoms: C_10  and  O_11
REMARK    3  A    between atoms: O_11  and  C_12
REMARK    4  A    between atoms: C_12  and  C_13
REMARK    5  A    between atoms: C_17  and  N_18
REMARK                            x       y       z     vdW  Elec       q    Type
REMARK                         _______ _______ _______ _____ _____    ______ ____
ROOT
ATOM      1  C   UNL     1      46.932   6.599  11.255  0.00  0.00    +0.000 C 
ENDROOT
BRANCH   1   2
ATOM      2  C   UNL     1      47.707   6.859  12.521  0.00  0.00    +0.000 A 
ATOM      3  C   UNL     1      48.671   7.851  12.617  0.00  0.00    +0.000 A 
ATOM      4  N   UNL     1      49.402   8.086  13.724  0.00  0.00    +0.000 NA
ATOM      5  C   UNL     1      49.163   7.275  14.787  0.00  0.00    +0.000 A 
ATOM      6  C   UNL     1      48.247   6.219  14.813  0.00  0.00    +0.000 A 
ATOM      7  C   UNL     1      47.530   6.023  13.631  0.00  0.00    +0.000 A 
BRANCH   6   8
ATOM      8  N   UNL     1      48.049   5.433  15.929  0.00  0.00    +0.000 N 
ATOM      9  C   UNL     1      48.759   5.640  17.195  0.00  0.00    +0.000 C 
ATOM     10  C   UNL     1      49.493   4.357  17.642  0.00  0.00    +0.000 C 
ATOM     11  N   UNL     1      48.634   3.154  17.653  0.00  0.00    +0.000 NA
ATOM     12  C   UNL     1      48.029   2.991  16.313  0.00  0.00    +0.000 C 
ATOM     13  C   UNL     1      47.223   4.222  15.841  0.00  0.00    +0.000 C 
ATOM     14  H   UNL     1      47.878   3.313  18.318  0.00  0.00    +0.000 HD
ENDBRANCH   6   8
ENDBRANCH   1   2
BRANCH   1  15
ATOM     15  O   UNL     1      45.520   6.349  11.499  0.00  0.00    +0.000 OA
BRANCH  15  22
ATOM     16  C   UNL     1      44.161   4.302  11.463  0.00  0.00    +0.000 A 
ATOM     17  C   UNL     1      43.796   3.153  10.743  0.00  0.00    +0.000 A 
ATOM     18  C   UNL     1      44.359   2.899   9.499  0.00  0.00    +0.000 A 
ATOM     19  C   UNL     1      45.250   3.825   8.999  0.00  0.00    +0.000 A 
ATOM     20 BR   UNL     1      46.022   3.551   7.292  0.00  0.00    +0.000 Br
ATOM     21  N   UNL     1      45.612   4.946   9.654  0.00  0.00    +0.000 NA
ATOM     22  C   UNL     1      45.085   5.183  10.874  0.00  0.00    +0.000 A 
BRANCH  16  24
ATOM     23  N   UNL     1      42.817   5.625  13.017  0.00  0.00    +0.000 N 
ATOM     24  C   UNL     1      43.481   4.470  12.780  0.00  0.00    +0.000 C 
ATOM     25  O   UNL     1      43.505   3.581  13.631  0.00  0.00    +0.000 OA
ATOM     26  H   UNL     1      42.319   5.719  13.892  0.00  0.00    +0.000 HD
ATOM     27  H   UNL     1      42.792   6.380  12.345  0.00  0.00    +0.000 HD
ENDBRANCH  16  24
ENDBRANCH  15  22
ENDBRANCH   1  15
TORSDOF 5
ENDMDL
MODEL 2
REMARK VINA RESULT:    -6.871      1.708      2.770
REMARK INTER + INTRA:          -9.902
REMARK INTER:                  -9.149
REMARK INTRA:                  -0.753
REMARK UNBOUND:                -1.023
REMARK  Name = 
REMARK  5 active torsions:
REMARK  status: ('A' for Active; 'I' for Inactive)
REMARK    1  A    between atoms: C_2  and  C_4
REMARK    2  A    between atoms: C_10  and  O_11
REMARK    3  A    between atoms: O_11  and  C_12
REMARK    4  A    between atoms: C_12  and  C_13
REMARK    5  A    between atoms: C_17  and  N_18
REMARK                            x       y       z     vdW  Elec       q    Type
REMARK                         _______ _______ _______ _____ _____    ______ ____
ROOT
ATOM      1  C   UNL     1      46.176   6.177  11.006  0.00  0.00    +0.000 C 
ENDROOT
BRANCH   1   2
ATOM      2  C   UNL     1      46.606   5.768  12.390  0.00  0.00    +0.000 A 
ATOM      3  C   UNL     1      46.082   4.660  13.039  0.00  0.00    +0.000 A 
ATOM      4  N   UNL     1      46.423   4.289  14.289  0.00  0.00    +0.000 NA
ATOM      5  C   UNL     1      47.327   5.075  14.925  0.00  0.00    +0.000 A 
ATOM      6  C   UNL     1      47.907   6.236  14.402  0.00  0.00    +0.000 A 
ATOM      7  C   UNL     1      47.503   6.570  13.107  0.00  0.00    +0.000 A 
BRANCH   6   8
ATOM      8  N   UNL     1      48.824   6.990  15.101  0.00  0.00    +0.000 N 
ATOM      9  C   UNL     1      49.515   8.151  14.528  0.00  0.00    +0.000 C 
ATOM     10  C   UNL     1      51.049   7.996  14.630  0.00  0.00    +0.000 C 
ATOM     11  N   UNL     1      51.523   7.655  15.989  0.00  0.00    +0.000 NA
ATOM     12  C   UNL     1      50.825   6.431  16.441  0.00  0.00    +0.000 C 
ATOM     13  C   UNL     1      49.285   6.552  16.425  0.00  0.00    +0.000 C 
ATOM     14  H   UNL     1      51.257   8.414  16.615  0.00  0.00    +0.000 HD
ENDBRANCH   6   8
ENDBRANCH   1   2
BRANCH   1  15
ATOM     15  O   UNL     1      44.851   5.688  10.658  0.00  0.00    +0.000 OA
BRANCH  15  22
ATOM     16  C   UNL     1      44.201   3.361  10.214  0.00  0.00    +0.000 A 
ATOM     17  C   UNL     1      44.340   2.248   9.368  0.00  0.00    +0.000 A 
ATOM     18  C   UNL     1      45.178   2.310   8.263  0.00  0.00    +0.000 A 
ATOM     19  C   UNL     1      45.830   3.502   8.020  0.00  0.00    +0.000 A 
ATOM     20 BR   UNL     1      46.958   3.659   6.508  0.00  0.00    +0.000 Br
ATOM     21  N   UNL     1      45.708   4.594   8.800  0.00  0.00    +0.000 NA
ATOM     22  C   UNL     1      44.912   4.529   9.889  0.00  0.00    +0.000 A 
BRANCH  16  24
ATOM     23  N   UNL     1      42.755   4.276  11.959  0.00  0.00    +0.000 N 
ATOM     24  C   UNL     1      43.264   3.175  11.360  0.00  0.00    +0.000 C 
ATOM     25  O   UNL     1      42.945   2.051  11.750  0.00  0.00    +0.000 OA
ATOM     26  H   UNL     1      42.086   4.147  12.707  0.00  0.00    +0.000 HD
ATOM     27  H   UNL     1      43.010   5.211  11.673  0.00  0.00    +0.000 HD
ENDBRANCH  16  24
ENDBRANCH  15  22
ENDBRANCH   1  15
TORSDOF 5
ENDMDL
MODEL 3
REMARK VINA RESULT:    -6.865      3.502      6.948
REMARK INTER + INTRA:          -9.894
REMARK INTER:                  -8.899
REMARK INTRA:                  -0.996
REMARK UNBOUND:                -1.023
REMARK  Name = 
REMARK  5 active torsions:
REMARK  status: ('A' for Active; 'I' for Inactive)
REMARK    1  A    between atoms: C_2  and  C_4
REMARK    2  A    between atoms: C_10  and  O_11
REMARK    3  A    between atoms: O_11  and  C_12
REMARK    4  A    between atoms: C_12  and  C_13
REMARK    5  A    between atoms: C_17  and  N_18
REMARK                            x       y       z     vdW  Elec       q    Type
REMARK                         _______ _______ _______ _____ _____    ______ ____
ROOT
ATOM      1  C   UNL     1      49.071   6.855  14.828  0.00  0.00    +0.000 C 
ENDROOT
BRANCH   1   2
ATOM      2  C   UNL     1      48.190   6.679  13.619  0.00  0.00    +0.000 A 
ATOM      3  C   UNL     1      48.382   7.389  12.444  0.00  0.00    +0.000 A 
ATOM      4  N   UNL     1      47.591   7.277  11.358  0.00  0.00    +0.000 NA
ATOM      5  C   UNL     1      46.546   6.417  11.461  0.00  0.00    +0.000 A 
ATOM      6  C   UNL     1      46.219   5.667  12.596  0.00  0.00    +0.000 A 
ATOM      7  C   UNL     1      47.072   5.838  13.688  0.00  0.00    +0.000 A 
BRANCH   6   8
ATOM      8  N   UNL     1      45.142   4.807  12.635  0.00  0.00    +0.000 N 
ATOM      9  C   UNL     1      45.223   3.398  12.232  0.00  0.00    +0.000 C 
ATOM     10  C   UNL     1      44.183   3.068  11.139  0.00  0.00    +0.000 C 
ATOM     11  N   UNL     1      42.808   3.493  11.479  0.00  0.00    +0.000 NA
ATOM     12  C   UNL     1      42.822   4.939  11.791  0.00  0.00    +0.000 C 
ATOM     13  C   UNL     1      43.798   5.319  12.927  0.00  0.00    +0.000 C 
ATOM     14  H   UNL     1      42.524   2.995  12.322  0.00  0.00    +0.000 HD
ENDBRANCH   6   8
ENDBRANCH   1   2
BRANCH   1  15
ATOM     15  O   UNL     1      49.074   5.691  15.700  0.00  0.00    +0.000 OA
BRANCH  15  22
ATOM     16  C   UNL     1      47.791   5.005  17.679  0.00  0.00    +0.000 A 
ATOM     17  C   UNL     1      47.245   5.397  18.914  0.00  0.00    +0.000 A 
ATOM     18  C   UNL     1      47.388   6.705  19.358  0.00  0.00    +0.000 A 
ATOM     19  C   UNL     1      48.104   7.576  18.562  0.00  0.00    +0.000 A 
ATOM     20 BR   UNL     1      48.362   9.363  19.133  0.00  0.00    +0.000 Br
ATOM     21  N   UNL     1      48.653   7.233  17.382  0.00  0.00    +0.000 NA
ATOM     22  C   UNL     1      48.496   5.968  16.936  0.00  0.00    +0.000 A 
BRANCH  16  24
ATOM     23  N   UNL     1      48.663   2.831  16.987  0.00  0.00    +0.000 N 
ATOM     24  C   UNL     1      47.582   3.573  17.318  0.00  0.00    +0.000 C 
ATOM     25  O   UNL     1      46.460   3.068  17.330  0.00  0.00    +0.000 OA
ATOM     26  H   UNL     1      48.525   1.849  16.786  0.00  0.00    +0.000 HD
ATOM     27  H   UNL     1      49.595   3.220  16.952  0.00  0.00    +0.000 HD
ENDBRANCH  16  24
ENDBRANCH  15  22
ENDBRANCH   1  15
TORSDOF 5
ENDMDL
MODEL 4
REMARK VINA RESULT:    -6.752      3.344      6.820
REMARK INTER + INTRA:          -9.748
REMARK INTER:                  -8.937
REMARK INTRA:                  -0.811
REMARK UNBOUND:                -1.023
REMARK  Name = 
REMARK  5 active torsions:
REMARK  status: ('A' for Active; 'I' for Inactive)
REMARK    1  A    between atoms: C_2  and  C_4
REMARK    2  A    between atoms: C_10  and  O_11
REMARK    3  A    between atoms: O_11  and  C_12
REMARK    4  A    between atoms: C_12  and  C_13
REMARK    5  A    between atoms: C_17  and  N_18
REMARK                            x       y       z     vdW  Elec       q    Type
REMARK                         _______ _______ _______ _____ _____    ______ ____
ROOT
ATOM      1  C   UNL     1      49.008   6.834  15.013  0.00  0.00    +0.000 C 
ENDROOT
BRANCH   1   2
ATOM      2  C   UNL     1      48.176   6.650  13.771  0.00  0.00    +0.000 A 
ATOM      3  C   UNL     1      48.434   7.330  12.590  0.00  0.00    +0.000 A 
ATOM      4  N   UNL     1      47.688   7.211  11.474  0.00  0.00    +0.000 NA
ATOM      5  C   UNL     1      46.621   6.375  11.549  0.00  0.00    +0.000 A 
ATOM      6  C   UNL     1      46.229   5.658  12.684  0.00  0.00    +0.000 A 
ATOM      7  C   UNL     1      47.038   5.834  13.808  0.00  0.00    +0.000 A 
BRANCH   6   8
ATOM      8  N   UNL     1      45.133   4.821  12.694  0.00  0.00    +0.000 N 
ATOM      9  C   UNL     1      45.198   3.406  12.314  0.00  0.00    +0.000 C 
ATOM     10  C   UNL     1      44.193   3.082  11.187  0.00  0.00    +0.000 C 
ATOM     11  N   UNL     1      42.816   3.541  11.468  0.00  0.00    +0.000 NA
ATOM     12  C   UNL     1      42.850   4.991  11.761  0.00  0.00    +0.000 C 
ATOM     13  C   UNL     1      43.790   5.367  12.928  0.00  0.00    +0.000 C 
ATOM     14  H   UNL     1      42.489   3.062  12.307  0.00  0.00    +0.000 HD
ENDBRANCH   6   8
ENDBRANCH   1   2
BRANCH   1  15
ATOM     15  O   UNL     1      48.450   6.157  16.173  0.00  0.00    +0.000 OA
BRANCH  15  22
ATOM     16  C   UNL     1      48.929   3.876  16.951  0.00  0.00    +0.000 A 
ATOM     17  C   UNL     1      49.892   2.995  17.469  0.00  0.00    +0.000 A 
ATOM     18  C   UNL     1      51.182   3.442  17.726  0.00  0.00    +0.000 A 
ATOM     19  C   UNL     1      51.476   4.755  17.425  0.00  0.00    +0.000 A 
ATOM     20 BR   UNL     1      53.228   5.411  17.720  0.00  0.00    +0.000 Br
ATOM     21  N   UNL     1      50.583   5.624  16.913  0.00  0.00    +0.000 NA
ATOM     22  C   UNL     1      49.322   5.199  16.684  0.00  0.00    +0.000 A 
BRANCH  16  24
ATOM     23  N   UNL     1      46.884   2.817  17.769  0.00  0.00    +0.000 N 
ATOM     24  C   UNL     1      47.585   3.276  16.706  0.00  0.00    +0.000 C 
ATOM     25  O   UNL     1      47.111   3.208  15.572  0.00  0.00    +0.000 OA
ATOM     26  H   UNL     1      45.955   2.452  17.607  0.00  0.00    +0.000 HD
ATOM     27  H   UNL     1      47.252   2.845  18.710  0.00  0.00    +0.000 HD
ENDBRANCH  16  24
ENDBRANCH  15  22
ENDBRANCH   1  15
TORSDOF 5
ENDMDL
MODEL 5
REMARK VINA RESULT:    -6.589      3.113      7.221
REMARK INTER + INTRA:          -9.538
REMARK INTER:                  -8.504
REMARK INTRA:                  -1.034
REMARK UNBOUND:                -1.023
REMARK  Name = 
REMARK  5 active torsions:
REMARK  status: ('A' for Active; 'I' for Inactive)
REMARK    1  A    between atoms: C_2  and  C_4
REMARK    2  A    between atoms: C_10  and  O_11
REMARK    3  A    between atoms: O_11  and  C_12
REMARK    4  A    between atoms: C_12  and  C_13
REMARK    5  A    between atoms: C_17  and  N_18
REMARK                            x       y       z     vdW  Elec       q    Type
REMARK                         _______ _______ _______ _____ _____    ______ ____
ROOT
ATOM      1  C   UNL     1      46.353   4.604  13.916  0.00  0.00    +0.000 C 
ENDROOT
BRANCH   1   2
ATOM      2  C   UNL     1      45.209   4.482  12.944  0.00  0.00    +0.000 A 
ATOM      3  C   UNL     1      43.901   4.794  13.285  0.00  0.00    +0.000 A 
ATOM      4  N   UNL     1      42.853   4.665  12.448  0.00  0.00    +0.000 NA
ATOM      5  C   UNL     1      43.129   4.188  11.207  0.00  0.00    +0.000 A 
ATOM      6  C   UNL     1      44.393   3.805  10.746  0.00  0.00    +0.000 A 
ATOM      7  C   UNL     1      45.432   3.954  11.666  0.00  0.00    +0.000 A 
BRANCH   6   8
ATOM      8  N   UNL     1      44.607   3.330   9.469  0.00  0.00    +0.000 N 
ATOM      9  C   UNL     1      44.681   1.901   9.145  0.00  0.00    +0.000 C 
ATOM     10  C   UNL     1      46.006   1.559   8.428  0.00  0.00    +0.000 C 
ATOM     11  N   UNL     1      46.297   2.430   7.269  0.00  0.00    +0.000 NA
ATOM     12  C   UNL     1      46.275   3.839   7.717  0.00  0.00    +0.000 C 
ATOM     13  C   UNL     1      44.945   4.258   8.383  0.00  0.00    +0.000 C 
ATOM     14  H   UNL     1      45.548   2.308   6.588  0.00  0.00    +0.000 HD
ENDBRANCH   6   8
ENDBRANCH   1   2
BRANCH   1  15
ATOM     15  O   UNL     1      47.533   5.215  13.326  0.00  0.00    +0.000 OA
BRANCH  15  22
ATOM     16  C   UNL     1      47.483   7.625  13.799  0.00  0.00    +0.000 A 
ATOM     17  C   UNL     1      47.984   8.674  14.589  0.00  0.00    +0.000 A 
ATOM     18  C   UNL     1      48.937   8.419  15.566  0.00  0.00    +0.000 A 
ATOM     19  C   UNL     1      49.337   7.110  15.744  0.00  0.00    +0.000 A 
ATOM     20 BR   UNL     1      50.608   6.696  17.085  0.00  0.00    +0.000 Br
ATOM     21  N   UNL     1      48.867   6.078  15.016  0.00  0.00    +0.000 NA
ATOM     22  C   UNL     1      47.958   6.326  14.049  0.00  0.00    +0.000 A 
BRANCH  16  24
ATOM     23  N   UNL     1      46.466   7.407  11.588  0.00  0.00    +0.000 N 
ATOM     24  C   UNL     1      46.456   8.023  12.792  0.00  0.00    +0.000 C 
ATOM     25  O   UNL     1      45.608   8.879  13.047  0.00  0.00    +0.000 OA
ATOM     26  H   UNL     1      45.741   7.646  10.923  0.00  0.00    +0.000 HD
ATOM     27  H   UNL     1      47.158   6.712  11.344  0.00  0.00    +0.000 HD
ENDBRANCH  16  24
ENDBRANCH  15  22
ENDBRANCH   1  15
TORSDOF 5
ENDMDL
MODEL 6
REMARK VINA RESULT:    -6.419      3.524      5.924
REMARK INTER + INTRA:          -9.318
REMARK INTER:                  -8.740
REMARK INTRA:                  -0.578
REMARK UNBOUND:                -1.023
REMARK  Name = 
REMARK  5 active torsions:
REMARK  status: ('A' for Active; 'I' for Inactive)
REMARK    1  A    between atoms: C_2  and  C_4
REMARK    2  A    between atoms: C_10  and  O_11
REMARK    3  A    between atoms: O_11  and  C_12
REMARK    4  A    between atoms: C_12  and  C_13
REMARK    5  A    between atoms: C_17  and  N_18
REMARK                            x       y       z     vdW  Elec       q    Type
REMARK                         _______ _______ _______ _____ _____    ______ ____
ROOT
ATOM      1  C   UNL     1      45.875   5.770  11.263  0.00  0.00    +0.000 C 
ENDROOT
BRANCH   1   2
ATOM      2  C   UNL     1      45.980   7.188  11.762  0.00  0.00    +0.000 A 
ATOM      3  C   UNL     1      46.936   7.587  12.685  0.00  0.00    +0.000 A 
ATOM      4  N   UNL     1      47.035   8.839  13.173  0.00  0.00    +0.000 NA
ATOM      5  C   UNL     1      46.121   9.735  12.722  0.00  0.00    +0.000 A 
ATOM      6  C   UNL     1      45.087   9.458  11.821  0.00  0.00    +0.000 A 
ATOM      7  C   UNL     1      45.035   8.140  11.362  0.00  0.00    +0.000 A 
BRANCH   6   8
ATOM      8  N   UNL     1      44.191  10.417  11.400  0.00  0.00    +0.000 N 
ATOM      9  C   UNL     1      42.913  10.096  10.754  0.00  0.00    +0.000 C 
ATOM     10  C   UNL     1      42.788  10.795   9.382  0.00  0.00    +0.000 C 
ATOM     11  N   UNL     1      43.062  12.248   9.428  0.00  0.00    +0.000 NA
ATOM     12  C   UNL     1      44.400  12.459  10.022  0.00  0.00    +0.000 C 
ATOM     13  C   UNL     1      44.562  11.837  11.427  0.00  0.00    +0.000 C 
ATOM     14  H   UNL     1      42.376  12.678  10.047  0.00  0.00    +0.000 HD
ENDBRANCH   6   8
ENDBRANCH   1   2
BRANCH   1  15
ATOM     15  O   UNL     1      44.994   5.640  10.113  0.00  0.00    +0.000 OA
BRANCH  15  22
ATOM     16  C   UNL     1      44.470   3.240  10.108  0.00  0.00    +0.000 A 
ATOM     17  C   UNL     1      44.620   2.011   9.443  0.00  0.00    +0.000 A 
ATOM     18  C   UNL     1      45.366   1.935   8.275  0.00  0.00    +0.000 A 
ATOM     19  C   UNL     1      45.915   3.103   7.788  0.00  0.00    +0.000 A 
ATOM     20 BR   UNL     1      46.912   3.068   6.179  0.00  0.00    +0.000 Br
ATOM     21  N   UNL     1      45.779   4.301   8.390  0.00  0.00    +0.000 NA
ATOM     22  C   UNL     1      45.074   4.374   9.539  0.00  0.00    +0.000 A 
BRANCH  16  24
ATOM     23  N   UNL     1      44.030   2.384  12.354  0.00  0.00    +0.000 N 
ATOM     24  C   UNL     1      43.637   3.196  11.345  0.00  0.00    +0.000 C 
ATOM     25  O   UNL     1      42.625   3.887  11.460  0.00  0.00    +0.000 OA
ATOM     26  H   UNL     1      43.489   2.389  13.209  0.00  0.00    +0.000 HD
ATOM     27  H   UNL     1      44.846   1.793  12.283  0.00  0.00    +0.000 HD
ENDBRANCH  16  24
ENDBRANCH  15  22
ENDBRANCH   1  15
TORSDOF 5
ENDMDL
MODEL 7
REMARK VINA RESULT:    -6.401      2.591      6.993
REMARK INTER + INTRA:          -9.295
REMARK INTER:                  -8.564
REMARK INTRA:                  -0.731
REMARK UNBOUND:                -1.023
REMARK  Name = 
REMARK  5 active torsions:
REMARK  status: ('A' for Active; 'I' for Inactive)
REMARK    1  A    between atoms: C_2  and  C_4
REMARK    2  A    between atoms: C_10  and  O_11
REMARK    3  A    between atoms: O_11  and  C_12
REMARK    4  A    between atoms: C_12  and  C_13
REMARK    5  A    between atoms: C_17  and  N_18
REMARK                            x       y       z     vdW  Elec       q    Type
REMARK                         _______ _______ _______ _____ _____    ______ ____
ROOT
ATOM      1  C   UNL     1      45.916   4.314  13.994  0.00  0.00    +0.000 C 
ENDROOT
BRANCH   1   2
ATOM      2  C   UNL     1      44.959   4.482  12.844  0.00  0.00    +0.000 A 
ATOM      3  C   UNL     1      43.755   5.161  12.965  0.00  0.00    +0.000 A 
ATOM      4  N   UNL     1      42.865   5.300  11.963  0.00  0.00    +0.000 NA
ATOM      5  C   UNL     1      43.192   4.718  10.782  0.00  0.00    +0.000 A 
ATOM      6  C   UNL     1      44.353   3.978  10.534  0.00  0.00    +0.000 A 
ATOM      7  C   UNL     1      45.228   3.864  11.616  0.00  0.00    +0.000 A 
BRANCH   6   8
ATOM      8  N   UNL     1      44.629   3.414   9.306  0.00  0.00    +0.000 N 
ATOM      9  C   UNL     1      44.658   1.966   9.075  0.00  0.00    +0.000 C 
ATOM     10  C   UNL     1      46.010   1.523   8.472  0.00  0.00    +0.000 C 
ATOM     11  N   UNL     1      46.417   2.305   7.285  0.00  0.00    +0.000 NA
ATOM     12  C   UNL     1      46.430   3.740   7.645  0.00  0.00    +0.000 C 
ATOM     13  C   UNL     1      45.080   4.256   8.192  0.00  0.00    +0.000 C 
ATOM     14  H   UNL     1      45.709   2.172   6.563  0.00  0.00    +0.000 HD
ENDBRANCH   6   8
ENDBRANCH   1   2
BRANCH   1  15
ATOM     15  O   UNL     1      47.309   4.422  13.591  0.00  0.00    +0.000 OA
BRANCH  15  22
ATOM     16  C   UNL     1      48.270   5.925  15.280  0.00  0.00    +0.000 A 
ATOM     17  C   UNL     1      48.814   7.193  15.544  0.00  0.00    +0.000 A 
ATOM     18  C   UNL     1      48.918   8.135  14.529  0.00  0.00    +0.000 A 
ATOM     19  C   UNL     1      48.500   7.764  13.267  0.00  0.00    +0.000 A 
ATOM     20 BR   UNL     1      48.650   8.994  11.835  0.00  0.00    +0.000 Br
ATOM     21  N   UNL     1      47.988   6.553  12.974  0.00  0.00    +0.000 NA
ATOM     22  C   UNL     1      47.864   5.643  13.964  0.00  0.00    +0.000 A 
BRANCH  16  24
ATOM     23  N   UNL     1      47.190   5.109  17.314  0.00  0.00    +0.000 N 
ATOM     24  C   UNL     1      48.223   4.998  16.448  0.00  0.00    +0.000 C 
ATOM     25  O   UNL     1      49.091   4.142  16.621  0.00  0.00    +0.000 OA
ATOM     26  H   UNL     1      47.136   4.450  18.080  0.00  0.00    +0.000 HD
ATOM     27  H   UNL     1      46.471   5.811  17.208  0.00  0.00    +0.000 HD
ENDBRANCH  16  24
ENDBRANCH  15  22
ENDBRANCH   1  15
TORSDOF 5
ENDMDL
MODEL 8
REMARK VINA RESULT:    -6.390      3.462      4.453
REMARK INTER + INTRA:          -9.280
REMARK INTER:                  -8.512
REMARK INTRA:                  -0.769
REMARK UNBOUND:                -1.023
REMARK  Name = 
REMARK  5 active torsions:
REMARK  status: ('A' for Active; 'I' for Inactive)
REMARK    1  A    between atoms: C_2  and  C_4
REMARK    2  A    between atoms: C_10  and  O_11
REMARK    3  A    between atoms: O_11  and  C_12
REMARK    4  A    between atoms: C_12  and  C_13
REMARK    5  A    between atoms: C_17  and  N_18
REMARK                            x       y       z     vdW  Elec       q    Type
REMARK                         _______ _______ _______ _____ _____    ______ ____
ROOT
ATOM      1  C   UNL     1      46.078   6.009  11.566  0.00  0.00    +0.000 C 
ENDROOT
BRANCH   1   2
ATOM      2  C   UNL     1      46.526   7.417  11.857  0.00  0.00    +0.000 A 
ATOM      3  C   UNL     1      45.635   8.467  12.021  0.00  0.00    +0.000 A 
ATOM      4  N   UNL     1      46.007   9.742  12.250  0.00  0.00    +0.000 NA
ATOM      5  C   UNL     1      47.342   9.979  12.305  0.00  0.00    +0.000 A 
ATOM      6  C   UNL     1      48.346   9.022  12.124  0.00  0.00    +0.000 A 
ATOM      7  C   UNL     1      47.893   7.723  11.881  0.00  0.00    +0.000 A 
BRANCH   6   8
ATOM      8  N   UNL     1      49.688   9.328  12.196  0.00  0.00    +0.000 N 
ATOM      9  C   UNL     1      50.201  10.702  12.188  0.00  0.00    +0.000 C 
ATOM     10  C   UNL     1      51.229  10.909  11.054  0.00  0.00    +0.000 C 
ATOM     11  N   UNL     1      52.303   9.892  11.032  0.00  0.00    +0.000 NA
ATOM     12  C   UNL     1      51.683   8.551  10.960  0.00  0.00    +0.000 C 
ATOM     13  C   UNL     1      50.694   8.262  12.112  0.00  0.00    +0.000 C 
ATOM     14  H   UNL     1      52.813   9.954  11.912  0.00  0.00    +0.000 HD
ENDBRANCH   6   8
ENDBRANCH   1   2
BRANCH   1  15
ATOM     15  O   UNL     1      45.042   5.945  10.547  0.00  0.00    +0.000 OA
BRANCH  15  22
ATOM     16  C   UNL     1      44.289   3.607  10.490  0.00  0.00    +0.000 A 
ATOM     17  C   UNL     1      44.308   2.388   9.792  0.00  0.00    +0.000 A 
ATOM     18  C   UNL     1      45.023   2.272   8.607  0.00  0.00    +0.000 A 
ATOM     19  C   UNL     1      45.674   3.396   8.140  0.00  0.00    +0.000 A 
ATOM     20 BR   UNL     1      46.635   3.308   6.511  0.00  0.00    +0.000 Br
ATOM     21  N   UNL     1      45.665   4.584   8.775  0.00  0.00    +0.000 NA
ATOM     22  C   UNL     1      44.990   4.693   9.939  0.00  0.00    +0.000 A 
BRANCH  16  24
ATOM     23  N   UNL     1      42.544   4.577  11.900  0.00  0.00    +0.000 N 
ATOM     24  C   UNL     1      43.477   3.610  11.742  0.00  0.00    +0.000 C 
ATOM     25  O   UNL     1      43.635   2.750  12.609  0.00  0.00    +0.000 OA
ATOM     26  H   UNL     1      41.964   4.550  12.729  0.00  0.00    +0.000 HD
ATOM     27  H   UNL     1      42.401   5.305  11.214  0.00  0.00    +0.000 HD
ENDBRANCH  16  24
ENDBRANCH  15  22
ENDBRANCH   1  15
TORSDOF 5
ENDMDL
MODEL 9
REMARK VINA RESULT:    -6.209      3.352      6.845
REMARK INTER + INTRA:          -9.047
REMARK INTER:                  -8.049
REMARK INTRA:                  -0.998
REMARK UNBOUND:                -1.023
REMARK  Name = 
REMARK  5 active torsions:
REMARK  status: ('A' for Active; 'I' for Inactive)
REMARK    1  A    between atoms: C_2  and  C_4
REMARK    2  A    between atoms: C_10  and  O_11
REMARK    3  A    between atoms: O_11  and  C_12
REMARK    4  A    between atoms: C_12  and  C_13
REMARK    5  A    between atoms: C_17  and  N_18
REMARK                            x       y       z     vdW  Elec       q    Type
REMARK                         _______ _______ _______ _____ _____    ______ ____
ROOT
ATOM      1  C   UNL     1      48.576   6.460  13.498  0.00  0.00    +0.000 C 
ENDROOT
BRANCH   1   2
ATOM      2  C   UNL     1      47.268   6.820  12.843  0.00  0.00    +0.000 A 
ATOM      3  C   UNL     1      46.855   8.132  12.668  0.00  0.00    +0.000 A 
ATOM      4  N   UNL     1      45.678   8.484  12.115  0.00  0.00    +0.000 NA
ATOM      5  C   UNL     1      44.867   7.467  11.728  0.00  0.00    +0.000 A 
ATOM      6  C   UNL     1      45.144   6.104  11.877  0.00  0.00    +0.000 A 
ATOM      7  C   UNL     1      46.376   5.808  12.465  0.00  0.00    +0.000 A 
BRANCH   6   8
ATOM      8  N   UNL     1      44.276   5.118  11.458  0.00  0.00    +0.000 N 
ATOM      9  C   UNL     1      43.338   4.437  12.357  0.00  0.00    +0.000 C 
ATOM     10  C   UNL     1      43.532   2.905  12.313  0.00  0.00    +0.000 C 
ATOM     11  N   UNL     1      43.529   2.345  10.944  0.00  0.00    +0.000 NA
ATOM     12  C   UNL     1      44.559   3.043  10.144  0.00  0.00    +0.000 C 
ATOM     13  C   UNL     1      44.375   4.577  10.097  0.00  0.00    +0.000 C 
ATOM     14  H   UNL     1      42.621   2.544  10.525  0.00  0.00    +0.000 HD
ENDBRANCH   6   8
ENDBRANCH   1   2
BRANCH   1  15
ATOM     15  O   UNL     1      48.906   7.331  14.615  0.00  0.00    +0.000 OA
BRANCH  15  22
ATOM     16  C   UNL     1      48.538   7.407  17.043  0.00  0.00    +0.000 A 
ATOM     17  C   UNL     1      48.353   6.666  18.222  0.00  0.00    +0.000 A 
ATOM     18  C   UNL     1      48.367   5.278  18.184  0.00  0.00    +0.000 A 
ATOM     19  C   UNL     1      48.535   4.672  16.956  0.00  0.00    +0.000 A 
ATOM     20 BR   UNL     1      48.527   2.782  16.838  0.00  0.00    +0.000 Br
ATOM     21  N   UNL     1      48.700   5.350  15.804  0.00  0.00    +0.000 NA
ATOM     22  C   UNL     1      48.711   6.700  15.840  0.00  0.00    +0.000 A 
BRANCH  16  24
ATOM     23  N   UNL     1      47.704   9.604  16.374  0.00  0.00    +0.000 N 
ATOM     24  C   UNL     1      48.491   8.889  17.210  0.00  0.00    +0.000 C 
ATOM     25  O   UNL     1      49.139   9.454  18.091  0.00  0.00    +0.000 OA
ATOM     26  H   UNL     1      47.639  10.603  16.517  0.00  0.00    +0.000 HD
ATOM     27  H   UNL     1      47.173   9.171  15.631  0.00  0.00    +0.000 HD
ENDBRANCH  16  24
ENDBRANCH  15  22
ENDBRANCH   1  15
TORSDOF 5
ENDMDL
