MODEL 1
REMARK VINA RESULT:    -8.700      0.000      0.000
REMARK INTER + INTRA:         -11.861
REMARK INTER:                 -11.243
REMARK INTRA:                  -0.618
REMARK UNBOUND:                -0.618
REMARK  Name = 
REMARK  6 active torsions:
REMARK  status: ('A' for Active; 'I' for Inactive)
REMARK    1  A    between atoms: C_1  and  C_2
REMARK    2  A    between atoms: C_2  and  N_3
REMARK    3  A    between atoms: C_2  and  C_16
REMARK    4  A    between atoms: C_4  and  C_6
REMARK    5  A    between atoms: C_19  and  O_20
REMARK    6  A    between atoms: O_20  and  C_21
REMARK                            x       y       z     vdW  Elec       q    Type
REMARK                         _______ _______ _______ _____ _____    ______ ____
ROOT
ATOM      1  C   UNL     1      45.397   8.781  12.893  0.00  0.00    +0.000 C 
ATOM      2  C   UNL     1      46.530   7.759  12.727  0.00  0.00    +0.000 C 
ENDROOT
BRANCH   2   3
ATOM      3  C   UNL     1      46.054   6.582  11.902  0.00  0.00    +0.000 A 
ATOM      4  C   UNL     1      45.244   5.565  12.428  0.00  0.00    +0.000 A 
ATOM      5  C   UNL     1      44.778   4.547  11.598  0.00  0.00    +0.000 A 
ATOM      6  C   UNL     1      45.144   4.580  10.262  0.00  0.00    +0.000 A 
ATOM      7  N   UNL     1      45.984   5.497   9.739  0.00  0.00    +0.000 NA
ATOM      8  C   UNL     1      46.412   6.476  10.563  0.00  0.00    +0.000 A 
BRANCH   6   9
ATOM      9  O   UNL     1      44.593   3.611   9.432  0.00  0.00    +0.000 OA
BRANCH   9  10
ATOM     10  C   UNL     1      45.413   3.053   8.472  0.00  0.00    +0.000 A 
ATOM     11  C   UNL     1      45.923   3.765   7.378  0.00  0.00    +0.000 A 
ATOM     12  C   UNL     1      46.745   3.134   6.446  0.00  0.00    +0.000 A 
ATOM     13  C   UNL     1      47.029   1.776   6.581  0.00  0.00    +0.000 A 
ATOM     14  C   UNL     1      46.485   1.059   7.646  0.00  0.00    +0.000 A 
ATOM     15 CL   UNL     1      46.821  -0.624   7.792  0.00  0.00    +0.000 Cl
ATOM     16  C   UNL     1      45.675   1.688   8.591  0.00  0.00    +0.000 A 
ENDBRANCH   9  10
ENDBRANCH   6   9
ENDBRANCH   2   3
BRANCH   2  17
ATOM     17  N   UNL     1      47.042   7.286  13.999  0.00  0.00    +0.000 N 
ATOM     18  C   UNL     1      48.294   6.741  14.134  0.00  0.00    +0.000 C 
ATOM     19  O   UNL     1      49.094   6.673  13.207  0.00  0.00    +0.000 OA
ATOM     20  H   UNL     1      46.345   7.032  14.692  0.00  0.00    +0.000 HD
BRANCH  18  21
ATOM     21  C   UNL     1      48.659   6.307  15.484  0.00  0.00    +0.000 A 
ATOM     22  C   UNL     1      49.596   7.027  16.211  0.00  0.00    +0.000 A 
ATOM     23  S   UNL     1      49.873   6.400  17.773  0.00  0.00    +0.000 S 
ATOM     24  C   UNL     1      48.787   5.115  17.509  0.00  0.00    +0.000 A 
ATOM     25  N   UNL     1      48.576   4.168  18.461  0.00  0.00    +0.000 NA
ATOM     26  C   UNL     1      47.759   3.232  18.110  0.00  0.00    +0.000 A 
ATOM     27  N   UNL     1      47.124   3.162  16.896  0.00  0.00    +0.000 N 
ATOM     28  C   UNL     1      47.265   4.124  15.924  0.00  0.00    +0.000 A 
ATOM     29  O   UNL     1      46.621   4.087  14.879  0.00  0.00    +0.000 OA
ATOM     30  C   UNL     1      48.200   5.181  16.258  0.00  0.00    +0.000 A 
ATOM     31  H   UNL     1      46.482   2.411  16.691  0.00  0.00    +0.000 HD
ENDBRANCH  18  21
ENDBRANCH   2  17
TORSDOF 5
ENDMDL
MODEL 2
REMARK VINA RESULT:    -8.071      2.736      4.065
REMARK INTER + INTRA:         -11.048
REMARK INTER:                 -10.013
REMARK INTRA:                  -1.036
REMARK UNBOUND:                -0.618
REMARK  Name = 
REMARK  6 active torsions:
REMARK  status: ('A' for Active; 'I' for Inactive)
REMARK    1  A    between atoms: C_1  and  C_2
REMARK    2  A    between atoms: C_2  and  N_3
REMARK    3  A    between atoms: C_2  and  C_16
REMARK    4  A    between atoms: C_4  and  C_6
REMARK    5  A    between atoms: C_19  and  O_20
REMARK    6  A    between atoms: O_20  and  C_21
REMARK                            x       y       z     vdW  Elec       q    Type
REMARK                         _______ _______ _______ _____ _____    ______ ____
ROOT
ATOM      1  C   UNL     1      46.969   4.622  14.753  0.00  0.00    +0.000 C 
ATOM      2  C   UNL     1      46.582   5.729  13.763  0.00  0.00    +0.000 C 
ENDROOT
BRANCH   2   3
ATOM      3  C   UNL     1      45.915   5.130  12.543  0.00  0.00    +0.000 A 
ATOM      4  C   UNL     1      45.732   5.847  11.351  0.00  0.00    +0.000 A 
ATOM      5  C   UNL     1      45.178   5.216  10.239  0.00  0.00    +0.000 A 
ATOM      6  C   UNL     1      44.823   3.882  10.359  0.00  0.00    +0.000 A 
ATOM      7  N   UNL     1      44.911   3.185  11.510  0.00  0.00    +0.000 NA
ATOM      8  C   UNL     1      45.460   3.817  12.568  0.00  0.00    +0.000 A 
BRANCH   6   9
ATOM      9  O   UNL     1      44.361   3.246   9.213  0.00  0.00    +0.000 OA
BRANCH   9  10
ATOM     10  C   UNL     1      45.304   2.741   8.340  0.00  0.00    +0.000 A 
ATOM     11  C   UNL     1      45.914   3.501   7.333  0.00  0.00    +0.000 A 
ATOM     12  C   UNL     1      46.858   2.922   6.486  0.00  0.00    +0.000 A 
ATOM     13  C   UNL     1      47.167   1.569   6.615  0.00  0.00    +0.000 A 
ATOM     14  C   UNL     1      46.526   0.804   7.590  0.00  0.00    +0.000 A 
ATOM     15 CL   UNL     1      46.896  -0.872   7.727  0.00  0.00    +0.000 Cl
ATOM     16  C   UNL     1      45.593   1.380   8.451  0.00  0.00    +0.000 A 
ENDBRANCH   9  10
ENDBRANCH   6   9
ENDBRANCH   2   3
BRANCH   2  17
ATOM     17  N   UNL     1      47.720   6.529  13.352  0.00  0.00    +0.000 N 
ATOM     18  C   UNL     1      47.679   7.899  13.296  0.00  0.00    +0.000 C 
ATOM     19  O   UNL     1      46.702   8.550  13.651  0.00  0.00    +0.000 OA
ATOM     20  H   UNL     1      48.407   6.059  12.770  0.00  0.00    +0.000 HD
BRANCH  18  21
ATOM     21  C   UNL     1      48.910   8.558  12.856  0.00  0.00    +0.000 A 
ATOM     22  C   UNL     1      48.876   9.443  11.788  0.00  0.00    +0.000 A 
ATOM     23  S   UNL     1      50.391  10.141  11.435  0.00  0.00    +0.000 S 
ATOM     24  C   UNL     1      51.153   9.243  12.664  0.00  0.00    +0.000 A 
ATOM     25  N   UNL     1      52.491   9.346  12.882  0.00  0.00    +0.000 NA
ATOM     26  C   UNL     1      52.939   8.578  13.818  0.00  0.00    +0.000 A 
ATOM     27  N   UNL     1      52.169   7.723  14.566  0.00  0.00    +0.000 N 
ATOM     28  C   UNL     1      50.806   7.625  14.417  0.00  0.00    +0.000 A 
ATOM     29  O   UNL     1      50.125   6.918  15.154  0.00  0.00    +0.000 OA
ATOM     30  C   UNL     1      50.258   8.444  13.354  0.00  0.00    +0.000 A 
ATOM     31  H   UNL     1      52.581   7.162  15.296  0.00  0.00    +0.000 HD
ENDBRANCH  18  21
ENDBRANCH   2  17
TORSDOF 5
ENDMDL
MODEL 3
REMARK VINA RESULT:    -7.797      3.364      5.324
REMARK INTER + INTRA:         -10.694
REMARK INTER:                  -9.445
REMARK INTRA:                  -1.249
REMARK UNBOUND:                -0.618
REMARK  Name = 
REMARK  6 active torsions:
REMARK  status: ('A' for Active; 'I' for Inactive)
REMARK    1  A    between atoms: C_1  and  C_2
REMARK    2  A    between atoms: C_2  and  N_3
REMARK    3  A    between atoms: C_2  and  C_16
REMARK    4  A    between atoms: C_4  and  C_6
REMARK    5  A    between atoms: C_19  and  O_20
REMARK    6  A    between atoms: O_20  and  C_21
REMARK                            x       y       z     vdW  Elec       q    Type
REMARK                         _______ _______ _______ _____ _____    ______ ____
ROOT
ATOM      1  C   UNL     1      47.858   6.300  18.775  0.00  0.00    +0.000 C 
ATOM      2  C   UNL     1      48.834   6.061  17.615  0.00  0.00    +0.000 C 
ENDROOT
BRANCH   2   3
ATOM      3  C   UNL     1      48.110   5.434  16.443  0.00  0.00    +0.000 A 
ATOM      4  C   UNL     1      48.075   6.022  15.170  0.00  0.00    +0.000 A 
ATOM      5  C   UNL     1      47.454   5.358  14.114  0.00  0.00    +0.000 A 
ATOM      6  C   UNL     1      46.886   4.120  14.369  0.00  0.00    +0.000 A 
ATOM      7  N   UNL     1      46.832   3.561  15.595  0.00  0.00    +0.000 NA
ATOM      8  C   UNL     1      47.449   4.221  16.598  0.00  0.00    +0.000 A 
BRANCH   6   9
ATOM      9  O   UNL     1      46.356   3.432  13.284  0.00  0.00    +0.000 OA
BRANCH   9  10
ATOM     10  C   UNL     1      45.272   3.993  12.642  0.00  0.00    +0.000 A 
ATOM     11  C   UNL     1      44.183   4.566  13.313  0.00  0.00    +0.000 A 
ATOM     12  C   UNL     1      43.119   5.113  12.596  0.00  0.00    +0.000 A 
ATOM     13  C   UNL     1      43.119   5.054  11.204  0.00  0.00    +0.000 A 
ATOM     14  C   UNL     1      44.183   4.444  10.539  0.00  0.00    +0.000 A 
ATOM     15 CL   UNL     1      44.164   4.353   8.819  0.00  0.00    +0.000 Cl
ATOM     16  C   UNL     1      45.258   3.910  11.249  0.00  0.00    +0.000 A 
ENDBRANCH   9  10
ENDBRANCH   6   9
ENDBRANCH   2   3
BRANCH   2  17
ATOM     17  N   UNL     1      49.957   5.227  17.997  0.00  0.00    +0.000 N 
ATOM     18  C   UNL     1      51.183   5.313  17.386  0.00  0.00    +0.000 C 
ATOM     19  O   UNL     1      51.438   6.143  16.520  0.00  0.00    +0.000 OA
ATOM     20  H   UNL     1      49.725   4.350  18.455  0.00  0.00    +0.000 HD
BRANCH  18  21
ATOM     21  C   UNL     1      52.210   4.396  17.884  0.00  0.00    +0.000 A 
ATOM     22  C   UNL     1      53.358   4.902  18.477  0.00  0.00    +0.000 A 
ATOM     23  S   UNL     1      54.427   3.694  19.029  0.00  0.00    +0.000 S 
ATOM     24  C   UNL     1      53.415   2.455  18.447  0.00  0.00    +0.000 A 
ATOM     25  N   UNL     1      53.765   1.147  18.568  0.00  0.00    +0.000 NA
ATOM     26  C   UNL     1      52.924   0.319  18.046  0.00  0.00    +0.000 A 
ATOM     27  N   UNL     1      51.756   0.679  17.423  0.00  0.00    +0.000 N 
ATOM     28  C   UNL     1      51.335   1.983  17.323  0.00  0.00    +0.000 A 
ATOM     29  O   UNL     1      50.246   2.276  16.838  0.00  0.00    +0.000 OA
ATOM     30  C   UNL     1      52.264   2.956  17.866  0.00  0.00    +0.000 A 
ATOM     31  H   UNL     1      51.131  -0.022  17.051  0.00  0.00    +0.000 HD
ENDBRANCH  18  21
ENDBRANCH   2  17
TORSDOF 5
ENDMDL
MODEL 4
REMARK VINA RESULT:    -7.721      2.330      3.169
REMARK INTER + INTRA:         -10.597
REMARK INTER:                  -9.826
REMARK INTRA:                  -0.770
REMARK UNBOUND:                -0.618
REMARK  Name = 
REMARK  6 active torsions:
REMARK  status: ('A' for Active; 'I' for Inactive)
REMARK    1  A    between atoms: C_1  and  C_2
REMARK    2  A    between atoms: C_2  and  N_3
REMARK    3  A    between atoms: C_2  and  C_16
REMARK    4  A    between atoms: C_4  and  C_6
REMARK    5  A    between atoms: C_19  and  O_20
REMARK    6  A    between atoms: O_20  and  C_21
REMARK                            x       y       z     vdW  Elec       q    Type
REMARK                         _______ _______ _______ _____ _____    ______ ____
ROOT
ATOM      1  C   UNL     1      49.605   8.082  13.508  0.00  0.00    +0.000 C 
ATOM      2  C   UNL     1      48.868   6.870  14.093  0.00  0.00    +0.000 C 
ENDROOT
BRANCH   2   3
ATOM      3  C   UNL     1      47.625   6.572  13.282  0.00  0.00    +0.000 A 
ATOM      4  C   UNL     1      47.107   7.465  12.333  0.00  0.00    +0.000 A 
ATOM      5  C   UNL     1      46.002   7.102  11.565  0.00  0.00    +0.000 A 
ATOM      6  C   UNL     1      45.450   5.848  11.776  0.00  0.00    +0.000 A 
ATOM      7  N   UNL     1      45.873   4.996  12.732  0.00  0.00    +0.000 NA
ATOM      8  C   UNL     1      46.949   5.370  13.454  0.00  0.00    +0.000 A 
BRANCH   6   9
ATOM      9  O   UNL     1      44.410   5.466  10.936  0.00  0.00    +0.000 OA
BRANCH   9  10
ATOM     10  C   UNL     1      44.627   4.387  10.104  0.00  0.00    +0.000 A 
ATOM     11  C   UNL     1      44.155   3.095  10.371  0.00  0.00    +0.000 A 
ATOM     12  C   UNL     1      44.415   2.051   9.483  0.00  0.00    +0.000 A 
ATOM     13  C   UNL     1      45.184   2.285   8.345  0.00  0.00    +0.000 A 
ATOM     14  C   UNL     1      45.690   3.563   8.104  0.00  0.00    +0.000 A 
ATOM     15 CL   UNL     1      46.659   3.839   6.708  0.00  0.00    +0.000 Cl
ATOM     16  C   UNL     1      45.420   4.615   8.979  0.00  0.00    +0.000 A 
ENDBRANCH   9  10
ENDBRANCH   6   9
ENDBRANCH   2   3
BRANCH   2  17
ATOM     17  N   UNL     1      48.507   7.059  15.485  0.00  0.00    +0.000 N 
ATOM     18  C   UNL     1      49.256   6.554  16.518  0.00  0.00    +0.000 C 
ATOM     19  O   UNL     1      50.317   5.964  16.344  0.00  0.00    +0.000 OA
ATOM     20  H   UNL     1      47.525   7.245  15.669  0.00  0.00    +0.000 HD
BRANCH  18  21
ATOM     21  C   UNL     1      48.752   6.827  17.865  0.00  0.00    +0.000 A 
ATOM     22  C   UNL     1      48.342   8.109  18.202  0.00  0.00    +0.000 A 
ATOM     23  S   UNL     1      47.753   8.238  19.797  0.00  0.00    +0.000 S 
ATOM     24  C   UNL     1      48.076   6.595  20.107  0.00  0.00    +0.000 A 
ATOM     25  N   UNL     1      47.829   6.049  21.327  0.00  0.00    +0.000 NA
ATOM     26  C   UNL     1      48.159   4.806  21.432  0.00  0.00    +0.000 A 
ATOM     27  N   UNL     1      48.704   4.053  20.423  0.00  0.00    +0.000 N 
ATOM     28  C   UNL     1      48.922   4.547  19.159  0.00  0.00    +0.000 A 
ATOM     29  O   UNL     1      49.331   3.833  18.248  0.00  0.00    +0.000 OA
ATOM     30  C   UNL     1      48.598   5.951  18.999  0.00  0.00    +0.000 A 
ATOM     31  H   UNL     1      48.924   3.078  20.566  0.00  0.00    +0.000 HD
ENDBRANCH  18  21
ENDBRANCH   2  17
TORSDOF 5
ENDMDL
MODEL 5
REMARK VINA RESULT:    -7.652      4.973      9.709
REMARK INTER + INTRA:         -10.507
REMARK INTER:                  -9.332
REMARK INTRA:                  -1.175
REMARK UNBOUND:                -0.618
REMARK  Name = 
REMARK  6 active torsions:
REMARK  status: ('A' for Active; 'I' for Inactive)
REMARK    1  A    between atoms: C_1  and  C_2
REMARK    2  A    between atoms: C_2  and  N_3
REMARK    3  A    between atoms: C_2  and  C_16
REMARK    4  A    between atoms: C_4  and  C_6
REMARK    5  A    between atoms: C_19  and  O_20
REMARK    6  A    between atoms: O_20  and  C_21
REMARK                            x       y       z     vdW  Elec       q    Type
REMARK                         _______ _______ _______ _____ _____    ______ ____
ROOT
ATOM      1  C   UNL     1      47.718   3.100  16.853  0.00  0.00    +0.000 C 
ATOM      2  C   UNL     1      48.013   4.475  16.238  0.00  0.00    +0.000 C 
ENDROOT
BRANCH   2   3
ATOM      3  C   UNL     1      48.052   5.534  17.319  0.00  0.00    +0.000 A 
ATOM      4  C   UNL     1      47.175   5.531  18.414  0.00  0.00    +0.000 A 
ATOM      5  C   UNL     1      47.308   6.492  19.415  0.00  0.00    +0.000 A 
ATOM      6  C   UNL     1      48.322   7.429  19.284  0.00  0.00    +0.000 A 
ATOM      7  N   UNL     1      49.131   7.509  18.209  0.00  0.00    +0.000 NA
ATOM      8  C   UNL     1      48.986   6.561  17.259  0.00  0.00    +0.000 A 
BRANCH   6   9
ATOM      9  O   UNL     1      48.499   8.318  20.337  0.00  0.00    +0.000 OA
BRANCH   9  10
ATOM     10  C   UNL     1      47.608   9.367  20.443  0.00  0.00    +0.000 A 
ATOM     11  C   UNL     1      46.623   9.451  21.435  0.00  0.00    +0.000 A 
ATOM     12  C   UNL     1      45.754  10.541  21.479  0.00  0.00    +0.000 A 
ATOM     13  C   UNL     1      45.840  11.533  20.504  0.00  0.00    +0.000 A 
ATOM     14  C   UNL     1      46.793  11.426  19.490  0.00  0.00    +0.000 A 
ATOM     15 CL   UNL     1      46.876  12.643  18.275  0.00  0.00    +0.000 Cl
ATOM     16  C   UNL     1      47.675  10.346  19.451  0.00  0.00    +0.000 A 
ENDBRANCH   9  10
ENDBRANCH   6   9
ENDBRANCH   2   3
BRANCH   2  17
ATOM     17  N   UNL     1      47.047   4.850  15.224  0.00  0.00    +0.000 N 
ATOM     18  C   UNL     1      47.393   5.551  14.096  0.00  0.00    +0.000 C 
ATOM     19  O   UNL     1      48.551   5.855  13.831  0.00  0.00    +0.000 OA
ATOM     20  H   UNL     1      46.080   4.908  15.531  0.00  0.00    +0.000 HD
BRANCH  18  21
ATOM     21  C   UNL     1      46.298   5.856  13.173  0.00  0.00    +0.000 A 
ATOM     22  C   UNL     1      45.989   7.177  12.881  0.00  0.00    +0.000 A 
ATOM     23  S   UNL     1      44.711   7.345  11.764  0.00  0.00    +0.000 S 
ATOM     24  C   UNL     1      44.495   5.659  11.674  0.00  0.00    +0.000 A 
ATOM     25  N   UNL     1      43.518   5.117  10.900  0.00  0.00    +0.000 NA
ATOM     26  C   UNL     1      43.443   3.830  10.960  0.00  0.00    +0.000 A 
ATOM     27  N   UNL     1      44.265   3.032  11.714  0.00  0.00    +0.000 N 
ATOM     28  C   UNL     1      45.299   3.530  12.470  0.00  0.00    +0.000 A 
ATOM     29  O   UNL     1      46.076   2.792  13.069  0.00  0.00    +0.000 OA
ATOM     30  C   UNL     1      45.404   4.976  12.463  0.00  0.00    +0.000 A 
ATOM     31  H   UNL     1      44.164   2.027  11.702  0.00  0.00    +0.000 HD
ENDBRANCH  18  21
ENDBRANCH   2  17
TORSDOF 5
ENDMDL
MODEL 6
REMARK VINA RESULT:    -7.634      2.893      4.784
REMARK INTER + INTRA:         -10.484
REMARK INTER:                  -9.562
REMARK INTRA:                  -0.922
REMARK UNBOUND:                -0.618
REMARK  Name = 
REMARK  6 active torsions:
REMARK  status: ('A' for Active; 'I' for Inactive)
REMARK    1  A    between atoms: C_1  and  C_2
REMARK    2  A    between atoms: C_2  and  N_3
REMARK    3  A    between atoms: C_2  and  C_16
REMARK    4  A    between atoms: C_4  and  C_6
REMARK    5  A    between atoms: C_19  and  O_20
REMARK    6  A    between atoms: O_20  and  C_21
REMARK                            x       y       z     vdW  Elec       q    Type
REMARK                         _______ _______ _______ _____ _____    ______ ____
ROOT
ATOM      1  C   UNL     1      46.937   4.683  14.753  0.00  0.00    +0.000 C 
ATOM      2  C   UNL     1      46.661   5.823  13.764  0.00  0.00    +0.000 C 
ENDROOT
BRANCH   2   3
ATOM      3  C   UNL     1      46.018   5.280  12.505  0.00  0.00    +0.000 A 
ATOM      4  C   UNL     1      45.930   6.021  11.318  0.00  0.00    +0.000 A 
ATOM      5  C   UNL     1      45.393   5.439  10.172  0.00  0.00    +0.000 A 
ATOM      6  C   UNL     1      44.958   4.125  10.254  0.00  0.00    +0.000 A 
ATOM      7  N   UNL     1      44.954   3.410  11.397  0.00  0.00    +0.000 NA
ATOM      8  C   UNL     1      45.488   3.995  12.489  0.00  0.00    +0.000 A 
BRANCH   6   9
ATOM      9  O   UNL     1      44.514   3.532   9.079  0.00  0.00    +0.000 OA
BRANCH   9  10
ATOM     10  C   UNL     1      45.463   2.958   8.257  0.00  0.00    +0.000 A 
ATOM     11  C   UNL     1      46.157   3.663   7.265  0.00  0.00    +0.000 A 
ATOM     12  C   UNL     1      47.103   3.016   6.469  0.00  0.00    +0.000 A 
ATOM     13  C   UNL     1      47.328   1.650   6.635  0.00  0.00    +0.000 A 
ATOM     14  C   UNL     1      46.604   0.941   7.593  0.00  0.00    +0.000 A 
ATOM     15 CL   UNL     1      46.871  -0.750   7.775  0.00  0.00    +0.000 Cl
ATOM     16  C   UNL     1      45.669   1.586   8.403  0.00  0.00    +0.000 A 
ENDBRANCH   9  10
ENDBRANCH   6   9
ENDBRANCH   2   3
BRANCH   2  17
ATOM     17  N   UNL     1      47.860   6.562  13.418  0.00  0.00    +0.000 N 
ATOM     18  C   UNL     1      47.972   7.917  13.600  0.00  0.00    +0.000 C 
ATOM     19  O   UNL     1      47.094   8.592  14.127  0.00  0.00    +0.000 OA
ATOM     20  H   UNL     1      48.459   6.134  12.717  0.00  0.00    +0.000 HD
BRANCH  18  21
ATOM     21  C   UNL     1      49.246   8.512  13.194  0.00  0.00    +0.000 A 
ATOM     22  C   UNL     1      50.431   8.060  13.758  0.00  0.00    +0.000 A 
ATOM     23  S   UNL     1      51.818   8.840  13.145  0.00  0.00    +0.000 S 
ATOM     24  C   UNL     1      50.877   9.844  12.142  0.00  0.00    +0.000 A 
ATOM     25  N   UNL     1      51.454  10.790  11.356  0.00  0.00    +0.000 NA
ATOM     26  C   UNL     1      50.619  11.505  10.680  0.00  0.00    +0.000 A 
ATOM     27  N   UNL     1      49.256  11.353  10.710  0.00  0.00    +0.000 N 
ATOM     28  C   UNL     1      48.631  10.377  11.449  0.00  0.00    +0.000 A 
ATOM     29  O   UNL     1      47.417  10.203  11.394  0.00  0.00    +0.000 OA
ATOM     30  C   UNL     1      49.526   9.568  12.253  0.00  0.00    +0.000 A 
ATOM     31  H   UNL     1      48.658  11.935  10.142  0.00  0.00    +0.000 HD
ENDBRANCH  18  21
ENDBRANCH   2  17
TORSDOF 5
ENDMDL
MODEL 7
REMARK VINA RESULT:    -7.630      4.138      8.062
REMARK INTER + INTRA:         -10.478
REMARK INTER:                  -9.344
REMARK INTRA:                  -1.134
REMARK UNBOUND:                -0.618
REMARK  Name = 
REMARK  6 active torsions:
REMARK  status: ('A' for Active; 'I' for Inactive)
REMARK    1  A    between atoms: C_1  and  C_2
REMARK    2  A    between atoms: C_2  and  N_3
REMARK    3  A    between atoms: C_2  and  C_16
REMARK    4  A    between atoms: C_4  and  C_6
REMARK    5  A    between atoms: C_19  and  O_20
REMARK    6  A    between atoms: O_20  and  C_21
REMARK                            x       y       z     vdW  Elec       q    Type
REMARK                         _______ _______ _______ _____ _____    ______ ____
ROOT
ATOM      1  C   UNL     1      49.536   7.769  12.671  0.00  0.00    +0.000 C 
ATOM      2  C   UNL     1      48.265   7.279  13.377  0.00  0.00    +0.000 C 
ENDROOT
BRANCH   2   3
ATOM      3  C   UNL     1      48.618   6.622  14.694  0.00  0.00    +0.000 A 
ATOM      4  C   UNL     1      47.782   5.687  15.323  0.00  0.00    +0.000 A 
ATOM      5  C   UNL     1      48.198   5.063  16.498  0.00  0.00    +0.000 A 
ATOM      6  C   UNL     1      49.443   5.398  17.007  0.00  0.00    +0.000 A 
ATOM      7  N   UNL     1      50.237   6.348  16.473  0.00  0.00    +0.000 NA
ATOM      8  C   UNL     1      49.815   6.930  15.331  0.00  0.00    +0.000 A 
BRANCH   6   9
ATOM      9  O   UNL     1      49.879   4.695  18.124  0.00  0.00    +0.000 OA
BRANCH   9  10
ATOM     10  C   UNL     1      50.708   3.613  17.912  0.00  0.00    +0.000 A 
ATOM     11  C   UNL     1      50.268   2.390  17.389  0.00  0.00    +0.000 A 
ATOM     12  C   UNL     1      51.164   1.337  17.204  0.00  0.00    +0.000 A 
ATOM     13  C   UNL     1      52.497   1.489  17.580  0.00  0.00    +0.000 A 
ATOM     14  C   UNL     1      52.924   2.693  18.141  0.00  0.00    +0.000 A 
ATOM     15 CL   UNL     1      54.567   2.864  18.626  0.00  0.00    +0.000 Cl
ATOM     16  C   UNL     1      52.037   3.754  18.314  0.00  0.00    +0.000 A 
ENDBRANCH   9  10
ENDBRANCH   6   9
ENDBRANCH   2   3
BRANCH   2  17
ATOM     17  N   UNL     1      47.498   6.355  12.563  0.00  0.00    +0.000 N 
ATOM     18  C   UNL     1      46.419   6.751  11.814  0.00  0.00    +0.000 C 
ATOM     19  O   UNL     1      46.063   7.921  11.726  0.00  0.00    +0.000 OA
ATOM     20  H   UNL     1      47.542   5.378  12.837  0.00  0.00    +0.000 HD
BRANCH  18  21
ATOM     21  C   UNL     1      45.749   5.695  11.052  0.00  0.00    +0.000 A 
ATOM     22  C   UNL     1      45.829   5.687   9.667  0.00  0.00    +0.000 A 
ATOM     23  S   UNL     1      45.021   4.368   8.947  0.00  0.00    +0.000 S 
ATOM     24  C   UNL     1      44.494   3.794  10.461  0.00  0.00    +0.000 A 
ATOM     25  N   UNL     1      43.711   2.688  10.558  0.00  0.00    +0.000 NA
ATOM     26  C   UNL     1      43.353   2.392  11.762  0.00  0.00    +0.000 A 
ATOM     27  N   UNL     1      43.717   3.095  12.882  0.00  0.00    +0.000 N 
ATOM     28  C   UNL     1      44.550   4.187  12.838  0.00  0.00    +0.000 A 
ATOM     29  O   UNL     1      44.933   4.750  13.860  0.00  0.00    +0.000 OA
ATOM     30  C   UNL     1      44.953   4.581  11.502  0.00  0.00    +0.000 A 
ATOM     31  H   UNL     1      43.417   2.798  13.799  0.00  0.00    +0.000 HD
ENDBRANCH  18  21
ENDBRANCH   2  17
TORSDOF 5
ENDMDL
MODEL 8
REMARK VINA RESULT:    -7.501      3.809      8.049
REMARK INTER + INTRA:         -10.312
REMARK INTER:                  -9.342
REMARK INTRA:                  -0.970
REMARK UNBOUND:                -0.618
REMARK  Name = 
REMARK  6 active torsions:
REMARK  status: ('A' for Active; 'I' for Inactive)
REMARK    1  A    between atoms: C_1  and  C_2
REMARK    2  A    between atoms: C_2  and  N_3
REMARK    3  A    between atoms: C_2  and  C_16
REMARK    4  A    between atoms: C_4  and  C_6
REMARK    5  A    between atoms: C_19  and  O_20
REMARK    6  A    between atoms: O_20  and  C_21
REMARK                            x       y       z     vdW  Elec       q    Type
REMARK                         _______ _______ _______ _____ _____    ______ ____
ROOT
ATOM      1  C   UNL     1      49.808   8.042  11.589  0.00  0.00    +0.000 C 
ATOM      2  C   UNL     1      48.567   7.671  12.411  0.00  0.00    +0.000 C 
ENDROOT
BRANCH   2   3
ATOM      3  C   UNL     1      48.976   7.178  13.783  0.00  0.00    +0.000 A 
ATOM      4  C   UNL     1      50.133   7.628  14.436  0.00  0.00    +0.000 A 
ATOM      5  C   UNL     1      50.417   7.192  15.729  0.00  0.00    +0.000 A 
ATOM      6  C   UNL     1      49.527   6.314  16.327  0.00  0.00    +0.000 A 
ATOM      7  N   UNL     1      48.449   5.800  15.701  0.00  0.00    +0.000 NA
ATOM      8  C   UNL     1      48.193   6.247  14.454  0.00  0.00    +0.000 A 
BRANCH   6   9
ATOM      9  O   UNL     1      49.776   5.965  17.650  0.00  0.00    +0.000 OA
BRANCH   9  10
ATOM     10  C   UNL     1      50.831   5.110  17.895  0.00  0.00    +0.000 A 
ATOM     11  C   UNL     1      52.072   5.532  18.391  0.00  0.00    +0.000 A 
ATOM     12  C   UNL     1      53.095   4.610  18.613  0.00  0.00    +0.000 A 
ATOM     13  C   UNL     1      52.895   3.267  18.300  0.00  0.00    +0.000 A 
ATOM     14  C   UNL     1      51.674   2.856  17.764  0.00  0.00    +0.000 A 
ATOM     15 CL   UNL     1      51.444   1.199  17.357  0.00  0.00    +0.000 Cl
ATOM     16  C   UNL     1      50.642   3.770  17.555  0.00  0.00    +0.000 A 
ENDBRANCH   9  10
ENDBRANCH   6   9
ENDBRANCH   2   3
BRANCH   2  17
ATOM     17  N   UNL     1      47.747   6.669  11.759  0.00  0.00    +0.000 N 
ATOM     18  C   UNL     1      46.388   6.799  11.623  0.00  0.00    +0.000 C 
ATOM     19  O   UNL     1      45.776   7.799  11.984  0.00  0.00    +0.000 OA
ATOM     20  H   UNL     1      48.129   5.728  11.735  0.00  0.00    +0.000 HD
BRANCH  18  21
ATOM     21  C   UNL     1      45.705   5.696  10.945  0.00  0.00    +0.000 A 
ATOM     22  C   UNL     1      45.773   5.586   9.563  0.00  0.00    +0.000 A 
ATOM     23  S   UNL     1      44.951   4.226   8.948  0.00  0.00    +0.000 S 
ATOM     24  C   UNL     1      44.432   3.766  10.503  0.00  0.00    +0.000 A 
ATOM     25  N   UNL     1      43.642   2.676  10.686  0.00  0.00    +0.000 NA
ATOM     26  C   UNL     1      43.292   2.470  11.911  0.00  0.00    +0.000 A 
ATOM     27  N   UNL     1      43.671   3.250  12.975  0.00  0.00    +0.000 N 
ATOM     28  C   UNL     1      44.510   4.330  12.845  0.00  0.00    +0.000 A 
ATOM     29  O   UNL     1      44.905   4.963  13.821  0.00  0.00    +0.000 OA
ATOM     30  C   UNL     1      44.905   4.623  11.481  0.00  0.00    +0.000 A 
ATOM     31  H   UNL     1      43.376   3.023  13.913  0.00  0.00    +0.000 HD
ENDBRANCH  18  21
ENDBRANCH   2  17
TORSDOF 5
ENDMDL
MODEL 9
REMARK VINA RESULT:    -7.221      4.285      8.770
REMARK INTER + INTRA:          -9.950
REMARK INTER:                  -9.097
REMARK INTRA:                  -0.853
REMARK UNBOUND:                -0.618
REMARK  Name = 
REMARK  6 active torsions:
REMARK  status: ('A' for Active; 'I' for Inactive)
REMARK    1  A    between atoms: C_1  and  C_2
REMARK    2  A    between atoms: C_2  and  N_3
REMARK    3  A    between atoms: C_2  and  C_16
REMARK    4  A    between atoms: C_4  and  C_6
REMARK    5  A    between atoms: C_19  and  O_20
REMARK    6  A    between atoms: O_20  and  C_21
REMARK                            x       y       z     vdW  Elec       q    Type
REMARK                         _______ _______ _______ _____ _____    ______ ____
ROOT
ATOM      1  C   UNL     1      49.610   7.988  12.203  0.00  0.00    +0.000 C 
ATOM      2  C   UNL     1      48.394   7.489  12.995  0.00  0.00    +0.000 C 
ENDROOT
BRANCH   2   3
ATOM      3  C   UNL     1      48.838   6.886  14.311  0.00  0.00    +0.000 A 
ATOM      4  C   UNL     1      49.972   7.334  15.005  0.00  0.00    +0.000 A 
ATOM      5  C   UNL     1      50.286   6.788  16.248  0.00  0.00    +0.000 A 
ATOM      6  C   UNL     1      49.450   5.806  16.757  0.00  0.00    +0.000 A 
ATOM      7  N   UNL     1      48.399   5.297  16.082  0.00  0.00    +0.000 NA
ATOM      8  C   UNL     1      48.112   5.850  14.886  0.00  0.00    +0.000 A 
BRANCH   6   9
ATOM      9  O   UNL     1      49.726   5.342  18.038  0.00  0.00    +0.000 OA
BRANCH   9  10
ATOM     10  C   UNL     1      48.961   5.840  19.073  0.00  0.00    +0.000 A 
ATOM     11  C   UNL     1      48.620   5.097  20.211  0.00  0.00    +0.000 A 
ATOM     12  C   UNL     1      47.841   5.666  21.218  0.00  0.00    +0.000 A 
ATOM     13  C   UNL     1      47.363   6.967  21.072  0.00  0.00    +0.000 A 
ATOM     14  C   UNL     1      47.667   7.689  19.918  0.00  0.00    +0.000 A 
ATOM     15 CL   UNL     1      47.053   9.288  19.735  0.00  0.00    +0.000 Cl
ATOM     16  C   UNL     1      48.460   7.132  18.915  0.00  0.00    +0.000 A 
ENDBRANCH   9  10
ENDBRANCH   6   9
ENDBRANCH   2   3
BRANCH   2  17
ATOM     17  N   UNL     1      47.610   6.518  12.255  0.00  0.00    +0.000 N 
ATOM     18  C   UNL     1      46.377   6.810  11.730  0.00  0.00    +0.000 C 
ATOM     19  O   UNL     1      45.875   7.928  11.791  0.00  0.00    +0.000 OA
ATOM     20  H   UNL     1      47.817   5.542  12.445  0.00  0.00    +0.000 HD
BRANCH  18  21
ATOM     21  C   UNL     1      45.712   5.719  11.016  0.00  0.00    +0.000 A 
ATOM     22  C   UNL     1      45.816   5.633   9.634  0.00  0.00    +0.000 A 
ATOM     23  S   UNL     1      45.010   4.283   8.974  0.00  0.00    +0.000 S 
ATOM     24  C   UNL     1      44.453   3.796  10.508  0.00  0.00    +0.000 A 
ATOM     25  N   UNL     1      43.660   2.702  10.652  0.00  0.00    +0.000 NA
ATOM     26  C   UNL     1      43.279   2.475  11.864  0.00  0.00    +0.000 A 
ATOM     27  N   UNL     1      43.630   3.236  12.950  0.00  0.00    +0.000 N 
ATOM     28  C   UNL     1      44.472   4.319  12.861  0.00  0.00    +0.000 A 
ATOM     29  O   UNL     1      44.841   4.935  13.857  0.00  0.00    +0.000 OA
ATOM     30  C   UNL     1      44.900   4.636  11.512  0.00  0.00    +0.000 A 
ATOM     31  H   UNL     1      43.312   2.993  13.877  0.00  0.00    +0.000 HD
ENDBRANCH  18  21
ENDBRANCH   2  17
TORSDOF 5
ENDMDL
