MODEL 1
REMARK VINA RESULT:    -7.640      0.000      0.000
REMARK INTER + INTRA:         -11.713
REMARK INTER:                 -10.767
REMARK INTRA:                  -0.947
REMARK UNBOUND:                -0.947
REMARK  Name = 
REMARK  9 active torsions:
REMARK  status: ('A' for Active; 'I' for Inactive)
REMARK    1  A    between atoms: C_1  and  C_2
REMARK    2  A    between atoms: C_5  and  C_6
REMARK    3  A    between atoms: N_8  and  C_9
REMARK    4  A    between atoms: C_9  and  C_10
REMARK    5  A    between atoms: C_13  and  C_14
REMARK    6  A    between atoms: C_14  and  C_15
REMARK    7  A    between atoms: C_15  and  S_16
REMARK    8  A    between atoms: S_16  and  C_17
REMARK    9  A    between atoms: C_28  and  C_29
REMARK                            x       y       z     vdW  Elec       q    Type
REMARK                         _______ _______ _______ _____ _____    ______ ____
ROOT
ATOM      1  C   UNL     1      48.510   6.702  14.362  0.00  0.00    +0.000 C 
ENDROOT
BRANCH   1   2
ATOM      2  C   UNL     1      47.353   6.171  13.551  0.00  0.00    +0.000 A 
ATOM      3  C   UNL     1      46.914   4.851  13.718  0.00  0.00    +0.000 A 
ATOM      4  C   UNL     1      45.810   4.363  13.008  0.00  0.00    +0.000 A 
ATOM      5  C   UNL     1      45.121   5.186  12.107  0.00  0.00    +0.000 A 
ATOM      6  C   UNL     1      45.566   6.502  11.932  0.00  0.00    +0.000 A 
ATOM      7  C   UNL     1      46.673   6.988  12.637  0.00  0.00    +0.000 A 
BRANCH   5   8
ATOM      8  C   UNL     1      43.961   4.670  11.281  0.00  0.00    +0.000 C 
BRANCH   8   9
ATOM      9  C   UNL     1      44.350   4.325   9.843  0.00  0.00    +0.000 C 
BRANCH   9  10
ATOM     10  S   UNL     1      44.656   2.527   9.682  0.00  0.00    +0.000 S 
BRANCH  10  11
ATOM     11  C   UNL     1      45.733   2.429   8.263  0.00  0.00    +0.000 A 
ATOM     12  C   UNL     1      45.974   3.465   7.361  0.00  0.00    +0.000 A 
ATOM     13  C   UNL     1      46.848   3.274   6.290  0.00  0.00    +0.000 A 
ATOM     14  C   UNL     1      47.461   2.042   6.150  0.00  0.00    +0.000 A 
ATOM     15  N   UNL     1      47.256   1.008   6.989  0.00  0.00    +0.000 NA
ATOM     16  C   UNL     1      46.400   1.227   8.020  0.00  0.00    +0.000 A 
ENDBRANCH  10  11
ENDBRANCH   9  10
ENDBRANCH   8   9
ENDBRANCH   5   8
ENDBRANCH   1   2
BRANCH   1  19
ATOM     17  C   UNL     1      48.659   5.900  16.674  0.00  0.00    +0.000 C 
ATOM     18  O   UNL     1      49.286   4.895  16.345  0.00  0.00    +0.000 OA
ATOM     19  N   UNL     1      48.230   6.847  15.762  0.00  0.00    +0.000 N 
ATOM     20  H   UNL     1      47.698   7.642  16.118  0.00  0.00    +0.000 HD
BRANCH  17  25
ATOM     21  C   UNL     1      47.351  10.868  19.324  0.00  0.00    +0.000 C 
ATOM     22  C   UNL     1      47.549   9.402  19.352  0.00  0.00    +0.000 A 
ATOM     23  N   UNL     1      47.911   8.731  18.188  0.00  0.00    +0.000 NA
ATOM     24  C   UNL     1      48.001   7.478  18.574  0.00  0.00    +0.000 A 
ATOM     25  C   UNL     1      48.294   6.196  18.084  0.00  0.00    +0.000 C 
ATOM     26  C   UNL     1      48.161   5.386  19.168  0.00  0.00    +0.000 C 
ATOM     27  N   UNL     1      47.803   5.975  20.361  0.00  0.00    +0.000 NA
ATOM     28  N   UNL     1      47.717   7.338  19.891  0.00  0.00    +0.000 N 
ATOM     29  C   UNL     1      47.408   8.538  20.440  0.00  0.00    +0.000 A 
ATOM     30  C   UNL     1      47.041   8.768  21.845  0.00  0.00    +0.000 C 
ENDBRANCH  17  25
ENDBRANCH   1  19
TORSDOF 7
ENDMDL
MODEL 2
REMARK VINA RESULT:    -7.568      1.056      2.123
REMARK INTER + INTRA:         -11.612
REMARK INTER:                 -10.869
REMARK INTRA:                  -0.743
REMARK UNBOUND:                -0.947
REMARK  Name = 
REMARK  9 active torsions:
REMARK  status: ('A' for Active; 'I' for Inactive)
REMARK    1  A    between atoms: C_1  and  C_2
REMARK    2  A    between atoms: C_5  and  C_6
REMARK    3  A    between atoms: N_8  and  C_9
REMARK    4  A    between atoms: C_9  and  C_10
REMARK    5  A    between atoms: C_13  and  C_14
REMARK    6  A    between atoms: C_14  and  C_15
REMARK    7  A    between atoms: C_15  and  S_16
REMARK    8  A    between atoms: S_16  and  C_17
REMARK    9  A    between atoms: C_28  and  C_29
REMARK                            x       y       z     vdW  Elec       q    Type
REMARK                         _______ _______ _______ _____ _____    ______ ____
ROOT
ATOM      1  C   UNL     1      48.388   6.685  13.708  0.00  0.00    +0.000 C 
ENDROOT
BRANCH   1   2
ATOM      2  C   UNL     1      47.184   6.151  12.968  0.00  0.00    +0.000 A 
ATOM      3  C   UNL     1      46.887   6.604  11.676  0.00  0.00    +0.000 A 
ATOM      4  C   UNL     1      45.803   6.079  10.960  0.00  0.00    +0.000 A 
ATOM      5  C   UNL     1      44.986   5.091  11.526  0.00  0.00    +0.000 A 
ATOM      6  C   UNL     1      45.278   4.646  12.822  0.00  0.00    +0.000 A 
ATOM      7  C   UNL     1      46.357   5.175  13.540  0.00  0.00    +0.000 A 
BRANCH   5   8
ATOM      8  C   UNL     1      43.773   4.546  10.801  0.00  0.00    +0.000 C 
BRANCH   8   9
ATOM      9  C   UNL     1      44.086   4.053   9.388  0.00  0.00    +0.000 C 
BRANCH   9  10
ATOM     10  S   UNL     1      44.841   2.386   9.450  0.00  0.00    +0.000 S 
BRANCH  10  11
ATOM     11  C   UNL     1      45.949   2.395   8.052  0.00  0.00    +0.000 A 
ATOM     12  C   UNL     1      46.094   3.444   7.145  0.00  0.00    +0.000 A 
ATOM     13  C   UNL     1      47.004   3.342   6.092  0.00  0.00    +0.000 A 
ATOM     14  C   UNL     1      47.749   2.183   5.975  0.00  0.00    +0.000 A 
ATOM     15  N   UNL     1      47.641   1.138   6.820  0.00  0.00    +0.000 NA
ATOM     16  C   UNL     1      46.747   1.271   7.833  0.00  0.00    +0.000 A 
ENDBRANCH  10  11
ENDBRANCH   9  10
ENDBRANCH   8   9
ENDBRANCH   5   8
ENDBRANCH   1   2
BRANCH   1  19
ATOM     17  C   UNL     1      49.003   7.109  16.043  0.00  0.00    +0.000 C 
ATOM     18  O   UNL     1      50.095   6.560  15.914  0.00  0.00    +0.000 OA
ATOM     19  N   UNL     1      48.092   7.215  15.009  0.00  0.00    +0.000 N 
ATOM     20  H   UNL     1      47.199   7.669  15.206  0.00  0.00    +0.000 HD
BRANCH  17  25
ATOM     21  C   UNL     1      48.378   4.836  21.321  0.00  0.00    +0.000 C 
ATOM     22  C   UNL     1      48.295   5.984  20.390  0.00  0.00    +0.000 A 
ATOM     23  N   UNL     1      48.647   5.816  19.054  0.00  0.00    +0.000 NA
ATOM     24  C   UNL     1      48.453   7.009  18.537  0.00  0.00    +0.000 A 
ATOM     25  C   UNL     1      48.549   7.710  17.325  0.00  0.00    +0.000 C 
ATOM     26  C   UNL     1      48.146   8.971  17.634  0.00  0.00    +0.000 C 
ATOM     27  N   UNL     1      47.781   9.217  18.940  0.00  0.00    +0.000 NA
ATOM     28  N   UNL     1      48.009   7.891  19.464  0.00  0.00    +0.000 N 
ATOM     29  C   UNL     1      47.900   7.292  20.675  0.00  0.00    +0.000 A 
ATOM     30  C   UNL     1      47.455   7.943  21.916  0.00  0.00    +0.000 C 
ENDBRANCH  17  25
ENDBRANCH   1  19
TORSDOF 7
ENDMDL
MODEL 3
REMARK VINA RESULT:    -7.462      2.930      3.572
REMARK INTER + INTRA:         -11.462
REMARK INTER:                 -10.492
REMARK INTRA:                  -0.970
REMARK UNBOUND:                -0.947
REMARK  Name = 
REMARK  9 active torsions:
REMARK  status: ('A' for Active; 'I' for Inactive)
REMARK    1  A    between atoms: C_1  and  C_2
REMARK    2  A    between atoms: C_5  and  C_6
REMARK    3  A    between atoms: N_8  and  C_9
REMARK    4  A    between atoms: C_9  and  C_10
REMARK    5  A    between atoms: C_13  and  C_14
REMARK    6  A    between atoms: C_14  and  C_15
REMARK    7  A    between atoms: C_15  and  S_16
REMARK    8  A    between atoms: S_16  and  C_17
REMARK    9  A    between atoms: C_28  and  C_29
REMARK                            x       y       z     vdW  Elec       q    Type
REMARK                         _______ _______ _______ _____ _____    ______ ____
ROOT
ATOM      1  C   UNL     1      46.930   8.199  13.578  0.00  0.00    +0.000 C 
ENDROOT
BRANCH   1   2
ATOM      2  C   UNL     1      45.993   7.171  12.989  0.00  0.00    +0.000 A 
ATOM      3  C   UNL     1      44.943   7.565  12.151  0.00  0.00    +0.000 A 
ATOM      4  C   UNL     1      44.098   6.617  11.559  0.00  0.00    +0.000 A 
ATOM      5  C   UNL     1      44.284   5.249  11.798  0.00  0.00    +0.000 A 
ATOM      6  C   UNL     1      45.328   4.856  12.645  0.00  0.00    +0.000 A 
ATOM      7  C   UNL     1      46.168   5.803  13.242  0.00  0.00    +0.000 A 
BRANCH   5   8
ATOM      8  C   UNL     1      43.352   4.204  11.220  0.00  0.00    +0.000 C 
BRANCH   8   9
ATOM      9  C   UNL     1      44.044   3.254  10.242  0.00  0.00    +0.000 C 
BRANCH   9  10
ATOM     10  S   UNL     1      44.645   4.177   8.779  0.00  0.00    +0.000 S 
BRANCH  10  11
ATOM     11  C   UNL     1      45.713   2.998   7.972  0.00  0.00    +0.000 A 
ATOM     12  C   UNL     1      46.493   3.256   6.845  0.00  0.00    +0.000 A 
ATOM     13  C   UNL     1      47.302   2.255   6.306  0.00  0.00    +0.000 A 
ATOM     14  C   UNL     1      47.308   1.013   6.914  0.00  0.00    +0.000 A 
ATOM     15  N   UNL     1      46.568   0.711   8.000  0.00  0.00    +0.000 NA
ATOM     16  C   UNL     1      45.793   1.708   8.498  0.00  0.00    +0.000 A 
ENDBRANCH  10  11
ENDBRANCH   9  10
ENDBRANCH   8   9
ENDBRANCH   5   8
ENDBRANCH   1   2
BRANCH   1  19
ATOM     17  C   UNL     1      49.249   7.833  14.283  0.00  0.00    +0.000 C 
ATOM     18  O   UNL     1      49.700   8.438  13.313  0.00  0.00    +0.000 OA
ATOM     19  N   UNL     1      47.894   7.661  14.495  0.00  0.00    +0.000 N 
ATOM     20  H   UNL     1      47.605   7.127  15.316  0.00  0.00    +0.000 HD
BRANCH  17  25
ATOM     21  C   UNL     1      48.346   3.412  17.896  0.00  0.00    +0.000 C 
ATOM     22  C   UNL     1      49.209   4.489  17.361  0.00  0.00    +0.000 A 
ATOM     23  N   UNL     1      48.737   5.311  16.343  0.00  0.00    +0.000 NA
ATOM     24  C   UNL     1      49.740   6.133  16.128  0.00  0.00    +0.000 A 
ATOM     25  C   UNL     1      50.116   7.220  15.323  0.00  0.00    +0.000 C 
ATOM     26  C   UNL     1      51.377   7.520  15.734  0.00  0.00    +0.000 C 
ATOM     27  N   UNL     1      51.916   6.748  16.741  0.00  0.00    +0.000 NA
ATOM     28  N   UNL     1      50.789   5.868  16.942  0.00  0.00    +0.000 N 
ATOM     29  C   UNL     1      50.510   4.815  17.748  0.00  0.00    +0.000 A 
ATOM     30  C   UNL     1      51.416   4.243  18.755  0.00  0.00    +0.000 C 
ENDBRANCH  17  25
ENDBRANCH   1  19
TORSDOF 7
ENDMDL
MODEL 4
REMARK VINA RESULT:    -7.084      4.169      6.566
REMARK INTER + INTRA:         -10.929
REMARK INTER:                  -9.837
REMARK INTRA:                  -1.092
REMARK UNBOUND:                -0.947
REMARK  Name = 
REMARK  9 active torsions:
REMARK  status: ('A' for Active; 'I' for Inactive)
REMARK    1  A    between atoms: C_1  and  C_2
REMARK    2  A    between atoms: C_5  and  C_6
REMARK    3  A    between atoms: N_8  and  C_9
REMARK    4  A    between atoms: C_9  and  C_10
REMARK    5  A    between atoms: C_13  and  C_14
REMARK    6  A    between atoms: C_14  and  C_15
REMARK    7  A    between atoms: C_15  and  S_16
REMARK    8  A    between atoms: S_16  and  C_17
REMARK    9  A    between atoms: C_28  and  C_29
REMARK                            x       y       z     vdW  Elec       q    Type
REMARK                         _______ _______ _______ _____ _____    ______ ____
ROOT
ATOM      1  C   UNL     1      48.314   6.629  13.506  0.00  0.00    +0.000 C 
ENDROOT
BRANCH   1   2
ATOM      2  C   UNL     1      47.109   6.088  12.772  0.00  0.00    +0.000 A 
ATOM      3  C   UNL     1      46.784   6.562  11.495  0.00  0.00    +0.000 A 
ATOM      4  C   UNL     1      45.699   6.032  10.784  0.00  0.00    +0.000 A 
ATOM      5  C   UNL     1      44.911   5.015  11.339  0.00  0.00    +0.000 A 
ATOM      6  C   UNL     1      45.231   4.548  12.620  0.00  0.00    +0.000 A 
ATOM      7  C   UNL     1      46.310   5.082  13.334  0.00  0.00    +0.000 A 
BRANCH   5   8
ATOM      8  C   UNL     1      43.697   4.463  10.620  0.00  0.00    +0.000 C 
BRANCH   8   9
ATOM      9  C   UNL     1      44.024   3.883   9.244  0.00  0.00    +0.000 C 
BRANCH   9  10
ATOM     10  S   UNL     1      44.993   2.340   9.419  0.00  0.00    +0.000 S 
BRANCH  10  11
ATOM     11  C   UNL     1      46.048   2.363   7.980  0.00  0.00    +0.000 A 
ATOM     12  C   UNL     1      46.159   3.422   7.080  0.00  0.00    +0.000 A 
ATOM     13  C   UNL     1      47.029   3.330   5.992  0.00  0.00    +0.000 A 
ATOM     14  C   UNL     1      47.768   2.172   5.834  0.00  0.00    +0.000 A 
ATOM     15  N   UNL     1      47.691   1.119   6.672  0.00  0.00    +0.000 NA
ATOM     16  C   UNL     1      46.835   1.241   7.719  0.00  0.00    +0.000 A 
ENDBRANCH  10  11
ENDBRANCH   9  10
ENDBRANCH   8   9
ENDBRANCH   5   8
ENDBRANCH   1   2
BRANCH   1  19
ATOM     17  C   UNL     1      49.678   8.628  13.113  0.00  0.00    +0.000 C 
ATOM     18  O   UNL     1      49.364   9.123  14.193  0.00  0.00    +0.000 OA
ATOM     19  N   UNL     1      49.204   7.401  12.687  0.00  0.00    +0.000 N 
ATOM     20  H   UNL     1      49.498   7.071  11.766  0.00  0.00    +0.000 HD
BRANCH  17  25
ATOM     21  C   UNL     1      52.904   6.535   8.797  0.00  0.00    +0.000 C 
ATOM     22  C   UNL     1      52.417   7.668   9.615  0.00  0.00    +0.000 A 
ATOM     23  N   UNL     1      51.517   7.437  10.651  0.00  0.00    +0.000 NA
ATOM     24  C   UNL     1      51.313   8.636  11.149  0.00  0.00    +0.000 A 
ATOM     25  C   UNL     1      50.592   9.300  12.154  0.00  0.00    +0.000 C 
ATOM     26  C   UNL     1      50.942  10.606  12.009  0.00  0.00    +0.000 C 
ATOM     27  N   UNL     1      51.831  10.917  11.003  0.00  0.00    +0.000 NA
ATOM     28  N   UNL     1      52.025   9.581  10.489  0.00  0.00    +0.000 N 
ATOM     29  C   UNL     1      52.743   9.020   9.487  0.00  0.00    +0.000 A 
ATOM     30  C   UNL     1      53.626   9.741   8.558  0.00  0.00    +0.000 C 
ENDBRANCH  17  25
ENDBRANCH   1  19
TORSDOF 7
ENDMDL
MODEL 5
REMARK VINA RESULT:    -6.890      1.630      2.059
REMARK INTER + INTRA:         -10.657
REMARK INTER:                  -9.758
REMARK INTRA:                  -0.899
REMARK UNBOUND:                -0.947
REMARK  Name = 
REMARK  9 active torsions:
REMARK  status: ('A' for Active; 'I' for Inactive)
REMARK    1  A    between atoms: C_1  and  C_2
REMARK    2  A    between atoms: C_5  and  C_6
REMARK    3  A    between atoms: N_8  and  C_9
REMARK    4  A    between atoms: C_9  and  C_10
REMARK    5  A    between atoms: C_13  and  C_14
REMARK    6  A    between atoms: C_14  and  C_15
REMARK    7  A    between atoms: C_15  and  S_16
REMARK    8  A    between atoms: S_16  and  C_17
REMARK    9  A    between atoms: C_28  and  C_29
REMARK                            x       y       z     vdW  Elec       q    Type
REMARK                         _______ _______ _______ _____ _____    ______ ____
ROOT
ATOM      1  C   UNL     1      47.347   4.320  15.729  0.00  0.00    +0.000 C 
ENDROOT
BRANCH   1   2
ATOM      2  C   UNL     1      46.800   4.822  14.414  0.00  0.00    +0.000 A 
ATOM      3  C   UNL     1      47.447   5.854  13.723  0.00  0.00    +0.000 A 
ATOM      4  C   UNL     1      46.978   6.294  12.479  0.00  0.00    +0.000 A 
ATOM      5  C   UNL     1      45.842   5.713  11.899  0.00  0.00    +0.000 A 
ATOM      6  C   UNL     1      45.189   4.687  12.595  0.00  0.00    +0.000 A 
ATOM      7  C   UNL     1      45.654   4.252  13.841  0.00  0.00    +0.000 A 
BRANCH   5   8
ATOM      8  C   UNL     1      45.276   6.206  10.584  0.00  0.00    +0.000 C 
BRANCH   8   9
ATOM      9  C   UNL     1      45.820   5.450   9.371  0.00  0.00    +0.000 C 
BRANCH   9  10
ATOM     10  S   UNL     1      44.644   4.145   8.857  0.00  0.00    +0.000 S 
BRANCH  10  11
ATOM     11  C   UNL     1      45.692   2.965   8.025  0.00  0.00    +0.000 A 
ATOM     12  C   UNL     1      46.478   3.234   6.905  0.00  0.00    +0.000 A 
ATOM     13  C   UNL     1      47.269   2.230   6.345  0.00  0.00    +0.000 A 
ATOM     14  C   UNL     1      47.250   0.975   6.925  0.00  0.00    +0.000 A 
ATOM     15  N   UNL     1      46.503   0.662   8.002  0.00  0.00    +0.000 NA
ATOM     16  C   UNL     1      45.745   1.662   8.522  0.00  0.00    +0.000 A 
ENDBRANCH  10  11
ENDBRANCH   9  10
ENDBRANCH   8   9
ENDBRANCH   5   8
ENDBRANCH   1   2
BRANCH   1  19
ATOM     17  C   UNL     1      49.284   4.984  17.077  0.00  0.00    +0.000 C 
ATOM     18  O   UNL     1      49.782   3.862  17.017  0.00  0.00    +0.000 OA
ATOM     19  N   UNL     1      48.081   5.302  16.475  0.00  0.00    +0.000 N 
ATOM     20  H   UNL     1      47.728   6.253  16.591  0.00  0.00    +0.000 HD
BRANCH  17  25
ATOM     21  C   UNL     1      47.017   9.575  19.758  0.00  0.00    +0.000 C 
ATOM     22  C   UNL     1      48.185   8.770  19.339  0.00  0.00    +0.000 A 
ATOM     23  N   UNL     1      47.994   7.602  18.608  0.00  0.00    +0.000 NA
ATOM     24  C   UNL     1      49.217   7.162  18.412  0.00  0.00    +0.000 A 
ATOM     25  C   UNL     1      49.922   6.110  17.808  0.00  0.00    +0.000 C 
ATOM     26  C   UNL     1      51.227   6.394  18.061  0.00  0.00    +0.000 C 
ATOM     27  N   UNL     1      51.500   7.536  18.781  0.00  0.00    +0.000 NA
ATOM     28  N   UNL     1      50.139   7.980  18.972  0.00  0.00    +0.000 N 
ATOM     29  C   UNL     1      49.536   9.023  19.592  0.00  0.00    +0.000 A 
ATOM     30  C   UNL     1      50.221  10.105  20.313  0.00  0.00    +0.000 C 
ENDBRANCH  17  25
ENDBRANCH   1  19
TORSDOF 7
ENDMDL
MODEL 6
REMARK VINA RESULT:    -6.804      1.746      2.387
REMARK INTER + INTRA:         -10.534
REMARK INTER:                  -9.882
REMARK INTRA:                  -0.652
REMARK UNBOUND:                -0.947
REMARK  Name = 
REMARK  9 active torsions:
REMARK  status: ('A' for Active; 'I' for Inactive)
REMARK    1  A    between atoms: C_1  and  C_2
REMARK    2  A    between atoms: C_5  and  C_6
REMARK    3  A    between atoms: N_8  and  C_9
REMARK    4  A    between atoms: C_9  and  C_10
REMARK    5  A    between atoms: C_13  and  C_14
REMARK    6  A    between atoms: C_14  and  C_15
REMARK    7  A    between atoms: C_15  and  S_16
REMARK    8  A    between atoms: S_16  and  C_17
REMARK    9  A    between atoms: C_28  and  C_29
REMARK                            x       y       z     vdW  Elec       q    Type
REMARK                         _______ _______ _______ _____ _____    ______ ____
ROOT
ATOM      1  C   UNL     1      47.017   8.263  13.595  0.00  0.00    +0.000 C 
ENDROOT
BRANCH   1   2
ATOM      2  C   UNL     1      46.169   7.267  12.839  0.00  0.00    +0.000 A 
ATOM      3  C   UNL     1      46.263   5.898  13.118  0.00  0.00    +0.000 A 
ATOM      4  C   UNL     1      45.446   4.970  12.459  0.00  0.00    +0.000 A 
ATOM      5  C   UNL     1      44.517   5.393  11.498  0.00  0.00    +0.000 A 
ATOM      6  C   UNL     1      44.431   6.762  11.212  0.00  0.00    +0.000 A 
ATOM      7  C   UNL     1      45.252   7.688  11.866  0.00  0.00    +0.000 A 
BRANCH   5   8
ATOM      8  C   UNL     1      43.662   4.410  10.727  0.00  0.00    +0.000 C 
BRANCH   8   9
ATOM      9  C   UNL     1      44.214   4.091   9.337  0.00  0.00    +0.000 C 
BRANCH   9  10
ATOM     10  S   UNL     1      44.767   2.348   9.258  0.00  0.00    +0.000 S 
BRANCH  10  11
ATOM     11  C   UNL     1      45.936   2.358   7.911  0.00  0.00    +0.000 A 
ATOM     12  C   UNL     1      46.056   3.367   6.955  0.00  0.00    +0.000 A 
ATOM     13  C   UNL     1      47.019   3.271   5.950  0.00  0.00    +0.000 A 
ATOM     14  C   UNL     1      47.841   2.159   5.928  0.00  0.00    +0.000 A 
ATOM     15  N   UNL     1      47.761   1.154   6.822  0.00  0.00    +0.000 NA
ATOM     16  C   UNL     1      46.813   1.279   7.787  0.00  0.00    +0.000 A 
ENDBRANCH  10  11
ENDBRANCH   9  10
ENDBRANCH   8   9
ENDBRANCH   5   8
ENDBRANCH   1   2
BRANCH   1  19
ATOM     17  C   UNL     1      48.888   8.374  15.174  0.00  0.00    +0.000 C 
ATOM     18  O   UNL     1      49.211   9.499  14.800  0.00  0.00    +0.000 OA
ATOM     19  N   UNL     1      47.820   7.683  14.633  0.00  0.00    +0.000 N 
ATOM     20  H   UNL     1      47.633   6.744  14.988  0.00  0.00    +0.000 HD
BRANCH  17  25
ATOM     21  C   UNL     1      47.492   7.227  20.665  0.00  0.00    +0.000 C 
ATOM     22  C   UNL     1      48.428   7.133  19.523  0.00  0.00    +0.000 A 
ATOM     23  N   UNL     1      48.094   7.718  18.305  0.00  0.00    +0.000 NA
ATOM     24  C   UNL     1      49.131   7.448  17.544  0.00  0.00    +0.000 A 
ATOM     25  C   UNL     1      49.617   7.640  16.242  0.00  0.00    +0.000 C 
ATOM     26  C   UNL     1      50.829   7.024  16.243  0.00  0.00    +0.000 C 
ATOM     27  N   UNL     1      51.232   6.419  17.414  0.00  0.00    +0.000 NA
ATOM     28  N   UNL     1      50.072   6.739  18.212  0.00  0.00    +0.000 N 
ATOM     29  C   UNL     1      49.671   6.497  19.483  0.00  0.00    +0.000 A 
ATOM     30  C   UNL     1      50.433   5.752  20.495  0.00  0.00    +0.000 C 
ENDBRANCH  17  25
ENDBRANCH   1  19
TORSDOF 7
ENDMDL
MODEL 7
REMARK VINA RESULT:    -6.781      3.760      9.453
REMARK INTER + INTRA:         -10.502
REMARK INTER:                  -9.345
REMARK INTRA:                  -1.157
REMARK UNBOUND:                -0.947
REMARK  Name = 
REMARK  9 active torsions:
REMARK  status: ('A' for Active; 'I' for Inactive)
REMARK    1  A    between atoms: C_1  and  C_2
REMARK    2  A    between atoms: C_5  and  C_6
REMARK    3  A    between atoms: N_8  and  C_9
REMARK    4  A    between atoms: C_9  and  C_10
REMARK    5  A    between atoms: C_13  and  C_14
REMARK    6  A    between atoms: C_14  and  C_15
REMARK    7  A    between atoms: C_15  and  S_16
REMARK    8  A    between atoms: S_16  and  C_17
REMARK    9  A    between atoms: C_28  and  C_29
REMARK                            x       y       z     vdW  Elec       q    Type
REMARK                         _______ _______ _______ _____ _____    ______ ____
ROOT
ATOM      1  C   UNL     1      47.039   8.217  12.676  0.00  0.00    +0.000 C 
ENDROOT
BRANCH   1   2
ATOM      2  C   UNL     1      47.835   8.138  13.957  0.00  0.00    +0.000 A 
ATOM      3  C   UNL     1      47.976   9.266  14.776  0.00  0.00    +0.000 A 
ATOM      4  C   UNL     1      48.669   9.193  15.991  0.00  0.00    +0.000 A 
ATOM      5  C   UNL     1      49.242   7.986  16.413  0.00  0.00    +0.000 A 
ATOM      6  C   UNL     1      49.109   6.861  15.590  0.00  0.00    +0.000 A 
ATOM      7  C   UNL     1      48.423   6.935  14.372  0.00  0.00    +0.000 A 
BRANCH   5   8
ATOM      8  C   UNL     1      50.047   7.889  17.693  0.00  0.00    +0.000 C 
BRANCH   8   9
ATOM      9  C   UNL     1      49.221   7.422  18.891  0.00  0.00    +0.000 C 
BRANCH   9  10
ATOM     10  S   UNL     1      49.856   5.823  19.517  0.00  0.00    +0.000 S 
BRANCH  10  11
ATOM     11  C   UNL     1      49.133   4.638  18.397  0.00  0.00    +0.000 A 
ATOM     12  C   UNL     1      47.769   4.501  18.138  0.00  0.00    +0.000 A 
ATOM     13  C   UNL     1      47.319   3.542  17.230  0.00  0.00    +0.000 A 
ATOM     14  C   UNL     1      48.254   2.739  16.602  0.00  0.00    +0.000 A 
ATOM     15  N   UNL     1      49.580   2.826  16.822  0.00  0.00    +0.000 NA
ATOM     16  C   UNL     1      49.984   3.770  17.711  0.00  0.00    +0.000 A 
ENDBRANCH  10  11
ENDBRANCH   9  10
ENDBRANCH   8   9
ENDBRANCH   5   8
ENDBRANCH   1   2
BRANCH   1  19
ATOM     17  C   UNL     1      45.244   6.912  11.635  0.00  0.00    +0.000 C 
ATOM     18  O   UNL     1      44.562   7.913  11.424  0.00  0.00    +0.000 OA
ATOM     19  N   UNL     1      46.480   6.966  12.253  0.00  0.00    +0.000 N 
ATOM     20  H   UNL     1      46.971   6.084  12.409  0.00  0.00    +0.000 HD
BRANCH  17  25
ATOM     21  C   UNL     1      46.381   3.692   6.972  0.00  0.00    +0.000 C 
ATOM     22  C   UNL     1      45.720   3.881   8.282  0.00  0.00    +0.000 A 
ATOM     23  N   UNL     1      45.892   5.073   8.978  0.00  0.00    +0.000 NA
ATOM     24  C   UNL     1      45.178   4.896  10.067  0.00  0.00    +0.000 A 
ATOM     25  C   UNL     1      44.806   5.544  11.254  0.00  0.00    +0.000 C 
ATOM     26  C   UNL     1      44.006   4.647  11.889  0.00  0.00    +0.000 C 
ATOM     27  N   UNL     1      43.787   3.438  11.264  0.00  0.00    +0.000 NA
ATOM     28  N   UNL     1      44.584   3.678  10.083  0.00  0.00    +0.000 N 
ATOM     29  C   UNL     1      44.906   2.978   8.970  0.00  0.00    +0.000 A 
ATOM     30  C   UNL     1      44.450   1.617   8.651  0.00  0.00    +0.000 C 
ENDBRANCH  17  25
ENDBRANCH   1  19
TORSDOF 7
ENDMDL
MODEL 8
REMARK VINA RESULT:    -6.729      1.310      1.868
REMARK INTER + INTRA:         -10.430
REMARK INTER:                  -9.547
REMARK INTRA:                  -0.883
REMARK UNBOUND:                -0.947
REMARK  Name = 
REMARK  9 active torsions:
REMARK  status: ('A' for Active; 'I' for Inactive)
REMARK    1  A    between atoms: C_1  and  C_2
REMARK    2  A    between atoms: C_5  and  C_6
REMARK    3  A    between atoms: N_8  and  C_9
REMARK    4  A    between atoms: C_9  and  C_10
REMARK    5  A    between atoms: C_13  and  C_14
REMARK    6  A    between atoms: C_14  and  C_15
REMARK    7  A    between atoms: C_15  and  S_16
REMARK    8  A    between atoms: S_16  and  C_17
REMARK    9  A    between atoms: C_28  and  C_29
REMARK                            x       y       z     vdW  Elec       q    Type
REMARK                         _______ _______ _______ _____ _____    ______ ____
ROOT
ATOM      1  C   UNL     1      48.751   5.498  16.273  0.00  0.00    +0.000 C 
ENDROOT
BRANCH   1   2
ATOM      2  C   UNL     1      47.903   5.517  15.023  0.00  0.00    +0.000 A 
ATOM      3  C   UNL     1      46.946   4.519  14.799  0.00  0.00    +0.000 A 
ATOM      4  C   UNL     1      46.119   4.554  13.668  0.00  0.00    +0.000 A 
ATOM      5  C   UNL     1      46.236   5.589  12.731  0.00  0.00    +0.000 A 
ATOM      6  C   UNL     1      47.200   6.582  12.951  0.00  0.00    +0.000 A 
ATOM      7  C   UNL     1      48.031   6.543  14.077  0.00  0.00    +0.000 A 
BRANCH   5   8
ATOM      8  C   UNL     1      45.398   5.623  11.470  0.00  0.00    +0.000 C 
BRANCH   8   9
ATOM      9  C   UNL     1      44.982   4.234  10.986  0.00  0.00    +0.000 C 
BRANCH   9  10
ATOM     10  S   UNL     1      44.386   4.317   9.257  0.00  0.00    +0.000 S 
BRANCH  10  11
ATOM     11  C   UNL     1      45.501   3.223   8.395  0.00  0.00    +0.000 A 
ATOM     12  C   UNL     1      46.387   3.605   7.388  0.00  0.00    +0.000 A 
ATOM     13  C   UNL     1      47.223   2.660   6.792  0.00  0.00    +0.000 A 
ATOM     14  C   UNL     1      47.148   1.348   7.222  0.00  0.00    +0.000 A 
ATOM     15  N   UNL     1      46.305   0.927   8.186  0.00  0.00    +0.000 NA
ATOM     16  C   UNL     1      45.506   1.872   8.745  0.00  0.00    +0.000 A 
ENDBRANCH  10  11
ENDBRANCH   9  10
ENDBRANCH   8   9
ENDBRANCH   5   8
ENDBRANCH   1   2
BRANCH   1  19
ATOM     17  C   UNL     1      47.974   6.197  18.490  0.00  0.00    +0.000 C 
ATOM     18  O   UNL     1      47.827   5.036  18.868  0.00  0.00    +0.000 OA
ATOM     19  N   UNL     1      48.421   6.521  17.223  0.00  0.00    +0.000 N 
ATOM     20  H   UNL     1      48.496   7.511  16.984  0.00  0.00    +0.000 HD
BRANCH  17  25
ATOM     21  C   UNL     1      47.954  11.869  17.375  0.00  0.00    +0.000 C 
ATOM     22  C   UNL     1      47.768  10.734  18.307  0.00  0.00    +0.000 A 
ATOM     23  N   UNL     1      47.961   9.432  17.857  0.00  0.00    +0.000 NA
ATOM     24  C   UNL     1      47.720   8.703  18.924  0.00  0.00    +0.000 A 
ATOM     25  C   UNL     1      47.680   7.369  19.356  0.00  0.00    +0.000 C 
ATOM     26  C   UNL     1      47.330   7.452  20.668  0.00  0.00    +0.000 C 
ATOM     27  N   UNL     1      47.120   8.711  21.189  0.00  0.00    +0.000 NA
ATOM     28  N   UNL     1      47.393   9.470  19.991  0.00  0.00    +0.000 N 
ATOM     29  C   UNL     1      47.396  10.782  19.652  0.00  0.00    +0.000 A 
ATOM     30  C   UNL     1      47.083  11.901  20.553  0.00  0.00    +0.000 C 
ENDBRANCH  17  25
ENDBRANCH   1  19
TORSDOF 7
ENDMDL
MODEL 9
REMARK VINA RESULT:    -6.513      4.189      9.626
REMARK INTER + INTRA:         -10.124
REMARK INTER:                  -8.686
REMARK INTRA:                  -1.438
REMARK UNBOUND:                -0.947
REMARK  Name = 
REMARK  9 active torsions:
REMARK  status: ('A' for Active; 'I' for Inactive)
REMARK    1  A    between atoms: C_1  and  C_2
REMARK    2  A    between atoms: C_5  and  C_6
REMARK    3  A    between atoms: N_8  and  C_9
REMARK    4  A    between atoms: C_9  and  C_10
REMARK    5  A    between atoms: C_13  and  C_14
REMARK    6  A    between atoms: C_14  and  C_15
REMARK    7  A    between atoms: C_15  and  S_16
REMARK    8  A    between atoms: S_16  and  C_17
REMARK    9  A    between atoms: C_28  and  C_29
REMARK                            x       y       z     vdW  Elec       q    Type
REMARK                         _______ _______ _______ _____ _____    ______ ____
ROOT
ATOM      1  C   UNL     1      45.529   8.315  12.853  0.00  0.00    +0.000 C 
ENDROOT
BRANCH   1   2
ATOM      2  C   UNL     1      46.834   8.879  12.343  0.00  0.00    +0.000 A 
ATOM      3  C   UNL     1      47.001  10.262  12.199  0.00  0.00    +0.000 A 
ATOM      4  C   UNL     1      48.224  10.801  11.775  0.00  0.00    +0.000 A 
ATOM      5  C   UNL     1      49.307   9.963  11.480  0.00  0.00    +0.000 A 
ATOM      6  C   UNL     1      49.137   8.579  11.615  0.00  0.00    +0.000 A 
ATOM      7  C   UNL     1      47.914   8.041  12.031  0.00  0.00    +0.000 A 
BRANCH   5   8
ATOM      8  C   UNL     1      50.622  10.511  10.964  0.00  0.00    +0.000 C 
BRANCH   8   9
ATOM      9  C   UNL     1      51.811  10.171  11.862  0.00  0.00    +0.000 C 
BRANCH   9  10
ATOM     10  S   UNL     1      51.638  11.001  13.485  0.00  0.00    +0.000 S 
BRANCH  10  11
ATOM     11  C   UNL     1      50.783   9.783  14.470  0.00  0.00    +0.000 A 
ATOM     12  C   UNL     1      49.571   9.986  15.128  0.00  0.00    +0.000 A 
ATOM     13  C   UNL     1      48.989   8.952  15.863  0.00  0.00    +0.000 A 
ATOM     14  C   UNL     1      49.642   7.735  15.920  0.00  0.00    +0.000 A 
ATOM     15  N   UNL     1      50.818   7.490  15.308  0.00  0.00    +0.000 NA
ATOM     16  C   UNL     1      51.356   8.518  14.602  0.00  0.00    +0.000 A 
ENDBRANCH  10  11
ENDBRANCH   9  10
ENDBRANCH   8   9
ENDBRANCH   5   8
ENDBRANCH   1   2
BRANCH   1  19
ATOM     17  C   UNL     1      44.214   6.739  11.513  0.00  0.00    +0.000 C 
ATOM     18  O   UNL     1      43.487   7.628  11.077  0.00  0.00    +0.000 OA
ATOM     19  N   UNL     1      45.247   6.983  12.399  0.00  0.00    +0.000 N 
ATOM     20  H   UNL     1      45.790   6.184  12.728  0.00  0.00    +0.000 HD
BRANCH  17  25
ATOM     21  C   UNL     1      46.520   3.630   7.220  0.00  0.00    +0.000 C 
ATOM     22  C   UNL     1      45.648   3.742   8.410  0.00  0.00    +0.000 A 
ATOM     23  N   UNL     1      45.529   4.963   9.067  0.00  0.00    +0.000 NA
ATOM     24  C   UNL     1      44.694   4.701  10.047  0.00  0.00    +0.000 A 
ATOM     25  C   UNL     1      44.053   5.310  11.137  0.00  0.00    +0.000 C 
ATOM     26  C   UNL     1      43.313   4.312  11.690  0.00  0.00    +0.000 C 
ATOM     27  N   UNL     1      43.378   3.070  11.096  0.00  0.00    +0.000 NA
ATOM     28  N   UNL     1      44.298   3.405  10.035  0.00  0.00    +0.000 N 
ATOM     29  C   UNL     1      44.887   2.739   9.013  0.00  0.00    +0.000 A 
ATOM     30  C   UNL     1      44.698   1.315   8.696  0.00  0.00    +0.000 C 
ENDBRANCH  17  25
ENDBRANCH   1  19
TORSDOF 7
ENDMDL
