MODEL 1
REMARK VINA RESULT:    -7.891      0.000      0.000
REMARK INTER + INTRA:         -12.018
REMARK INTER:                 -11.120
REMARK INTRA:                  -0.899
REMARK UNBOUND:                -0.899
REMARK  Name = 
REMARK  9 active torsions:
REMARK  status: ('A' for Active; 'I' for Inactive)
REMARK    1  A    between atoms: C_1  and  C_2
REMARK    2  A    between atoms: C_2  and  C_3
REMARK    3  A    between atoms: C_2  and  O_4
REMARK    4  A    between atoms: O_4  and  C_5
REMARK    5  A    between atoms: C_8  and  C_9
REMARK    6  A    between atoms: C_9  and  C_10
REMARK    7  A    between atoms: C_13  and  C_14
REMARK    8  A    between atoms: C_14  and  N_15
REMARK    9  A    between atoms: C_16  and  C_18
REMARK                            x       y       z     vdW  Elec       q    Type
REMARK                         _______ _______ _______ _____ _____    ______ ____
ROOT
ATOM      1  C   UNL     1      45.693   5.697  12.720  0.00  0.00    +0.000 A 
ATOM      2  C   UNL     1      46.410   4.858  13.569  0.00  0.00    +0.000 A 
ATOM      3  C   UNL     1      47.458   5.394  14.314  0.00  0.00    +0.000 A 
ATOM      4  C   UNL     1      47.784   6.747  14.186  0.00  0.00    +0.000 A 
ATOM      5  C   UNL     1      47.003   7.508  13.325  0.00  0.00    +0.000 A 
ATOM      6  N   UNL     1      45.978   7.016  12.593  0.00  0.00    +0.000 NA
ENDROOT
BRANCH   1   7
ATOM      7  C   UNL     1      44.471   5.199  11.981  0.00  0.00    +0.000 C 
BRANCH   7  11
ATOM      8  C   UNL     1      45.362   3.575   8.203  0.00  0.00    +0.000 A 
ATOM      9  N   UNL     1      45.847   4.795   8.471  0.00  0.00    +0.000 NA
ATOM     10  C   UNL     1      45.550   5.295   9.683  0.00  0.00    +0.000 A 
ATOM     11  C   UNL     1      44.768   4.641  10.618  0.00  0.00    +0.000 A 
ATOM     12  C   UNL     1      44.339   3.387  10.229  0.00  0.00    +0.000 A 
ATOM     13  N   UNL     1      44.604   2.839   9.027  0.00  0.00    +0.000 NA
BRANCH   8  14
ATOM     14  O   UNL     1      45.599   3.025   6.965  0.00  0.00    +0.000 OA
BRANCH  14  16
ATOM     15  C   UNL     1      47.230   1.320   7.221  0.00  0.00    +0.000 C 
ATOM     16  C   UNL     1      46.987   2.748   6.737  0.00  0.00    +0.000 C 
ATOM     17  C   UNL     1      47.316   2.857   5.249  0.00  0.00    +0.000 C 
ENDBRANCH  14  16
ENDBRANCH   8  14
ENDBRANCH   7  11
ENDBRANCH   1   7
BRANCH   4  18
ATOM     18  C   UNL     1      48.899   7.389  14.958  0.00  0.00    +0.000 C 
BRANCH  18  19
ATOM     19  N   UNL     1      49.708   6.418  15.651  0.00  0.00    +0.000 N 
ATOM     20  C   UNL     1      49.501   6.148  16.981  0.00  0.00    +0.000 C 
ATOM     21  O   UNL     1      48.600   6.699  17.613  0.00  0.00    +0.000 OA
ATOM     22  H   UNL     1      50.292   5.798  15.096  0.00  0.00    +0.000 HD
BRANCH  20  23
ATOM     23  C   UNL     1      50.453   5.243  17.640  0.00  0.00    +0.000 A 
ATOM     24  C   UNL     1      51.456   5.756  18.454  0.00  0.00    +0.000 A 
ATOM     25  S   UNL     1      52.627   4.596  18.899  0.00  0.00    +0.000 S 
ATOM     26  C   UNL     1      51.808   3.367  18.055  0.00  0.00    +0.000 A 
ATOM     27  N   UNL     1      52.333   2.118  17.932  0.00  0.00    +0.000 NA
ATOM     28  C   UNL     1      51.583   1.288  17.290  0.00  0.00    +0.000 A 
ATOM     29  N   UNL     1      50.332   1.575  16.806  0.00  0.00    +0.000 N 
ATOM     30  C   UNL     1      49.744   2.806  16.954  0.00  0.00    +0.000 A 
ATOM     31  O   UNL     1      48.578   3.010  16.629  0.00  0.00    +0.000 OA
ATOM     32  C   UNL     1      50.600   3.812  17.550  0.00  0.00    +0.000 A 
ATOM     33  H   UNL     1      49.760   0.855  16.389  0.00  0.00    +0.000 HD
ENDBRANCH  20  23
ENDBRANCH  18  19
ENDBRANCH   4  18
TORSDOF 7
ENDMDL
MODEL 2
REMARK VINA RESULT:    -7.730      2.266      2.704
REMARK INTER + INTRA:         -11.792
REMARK INTER:                 -11.013
REMARK INTRA:                  -0.779
REMARK UNBOUND:                -0.899
REMARK  Name = 
REMARK  9 active torsions:
REMARK  status: ('A' for Active; 'I' for Inactive)
REMARK    1  A    between atoms: C_1  and  C_2
REMARK    2  A    between atoms: C_2  and  C_3
REMARK    3  A    between atoms: C_2  and  O_4
REMARK    4  A    between atoms: O_4  and  C_5
REMARK    5  A    between atoms: C_8  and  C_9
REMARK    6  A    between atoms: C_9  and  C_10
REMARK    7  A    between atoms: C_13  and  C_14
REMARK    8  A    between atoms: C_14  and  N_15
REMARK    9  A    between atoms: C_16  and  C_18
REMARK                            x       y       z     vdW  Elec       q    Type
REMARK                         _______ _______ _______ _____ _____    ______ ____
ROOT
ATOM      1  C   UNL     1      45.295   5.821  12.450  0.00  0.00    +0.000 A 
ATOM      2  C   UNL     1      45.396   7.210  12.442  0.00  0.00    +0.000 A 
ATOM      3  C   UNL     1      46.506   7.806  13.038  0.00  0.00    +0.000 A 
ATOM      4  C   UNL     1      47.482   7.011  13.645  0.00  0.00    +0.000 A 
ATOM      5  C   UNL     1      47.302   5.635  13.589  0.00  0.00    +0.000 A 
ATOM      6  N   UNL     1      46.238   5.029  13.015  0.00  0.00    +0.000 NA
ENDROOT
BRANCH   1   7
ATOM      7  C   UNL     1      44.177   5.117  11.714  0.00  0.00    +0.000 C 
BRANCH   7  11
ATOM      8  C   UNL     1      45.396   3.410   8.066  0.00  0.00    +0.000 A 
ATOM      9  N   UNL     1      45.834   4.647   8.336  0.00  0.00    +0.000 NA
ATOM     10  C   UNL     1      45.432   5.173   9.506  0.00  0.00    +0.000 A 
ATOM     11  C   UNL     1      44.592   4.528  10.396  0.00  0.00    +0.000 A 
ATOM     12  C   UNL     1      44.220   3.256  10.010  0.00  0.00    +0.000 A 
ATOM     13  N   UNL     1      44.588   2.681   8.849  0.00  0.00    +0.000 NA
BRANCH   8  14
ATOM     14  O   UNL     1      45.740   2.831   6.867  0.00  0.00    +0.000 OA
BRANCH  14  16
ATOM     15  C   UNL     1      47.130   0.966   7.335  0.00  0.00    +0.000 C 
ATOM     16  C   UNL     1      47.108   2.407   6.829  0.00  0.00    +0.000 C 
ATOM     17  C   UNL     1      47.646   2.464   5.399  0.00  0.00    +0.000 C 
ENDBRANCH  14  16
ENDBRANCH   8  14
ENDBRANCH   7  11
ENDBRANCH   1   7
BRANCH   4  18
ATOM     18  C   UNL     1      48.702   7.586  14.303  0.00  0.00    +0.000 C 
BRANCH  18  19
ATOM     19  N   UNL     1      48.533   7.728  15.727  0.00  0.00    +0.000 N 
ATOM     20  C   UNL     1      49.173   6.886  16.601  0.00  0.00    +0.000 C 
ATOM     21  O   UNL     1      49.937   6.009  16.200  0.00  0.00    +0.000 OA
ATOM     22  H   UNL     1      48.096   8.579  16.074  0.00  0.00    +0.000 HD
BRANCH  20  23
ATOM     23  C   UNL     1      48.843   7.018  18.027  0.00  0.00    +0.000 A 
ATOM     24  C   UNL     1      48.774   8.276  18.614  0.00  0.00    +0.000 A 
ATOM     25  S   UNL     1      48.660   8.223  20.317  0.00  0.00    +0.000 S 
ATOM     26  C   UNL     1      48.655   6.522  20.317  0.00  0.00    +0.000 A 
ATOM     27  N   UNL     1      48.685   5.811  21.477  0.00  0.00    +0.000 NA
ATOM     28  C   UNL     1      48.648   4.532  21.316  0.00  0.00    +0.000 A 
ATOM     29  N   UNL     1      48.529   3.897  20.107  0.00  0.00    +0.000 N 
ATOM     30  C   UNL     1      48.443   4.576  18.918  0.00  0.00    +0.000 A 
ATOM     31  O   UNL     1      48.210   4.002  17.859  0.00  0.00    +0.000 OA
ATOM     32  C   UNL     1      48.616   6.011  19.033  0.00  0.00    +0.000 A 
ATOM     33  H   UNL     1      48.418   2.895  20.056  0.00  0.00    +0.000 HD
ENDBRANCH  20  23
ENDBRANCH  18  19
ENDBRANCH   4  18
TORSDOF 7
ENDMDL
MODEL 3
REMARK VINA RESULT:    -7.421      2.372      3.524
REMARK INTER + INTRA:         -11.357
REMARK INTER:                 -10.274
REMARK INTRA:                  -1.083
REMARK UNBOUND:                -0.899
REMARK  Name = 
REMARK  9 active torsions:
REMARK  status: ('A' for Active; 'I' for Inactive)
REMARK    1  A    between atoms: C_1  and  C_2
REMARK    2  A    between atoms: C_2  and  C_3
REMARK    3  A    between atoms: C_2  and  O_4
REMARK    4  A    between atoms: O_4  and  C_5
REMARK    5  A    between atoms: C_8  and  C_9
REMARK    6  A    between atoms: C_9  and  C_10
REMARK    7  A    between atoms: C_13  and  C_14
REMARK    8  A    between atoms: C_14  and  N_15
REMARK    9  A    between atoms: C_16  and  C_18
REMARK                            x       y       z     vdW  Elec       q    Type
REMARK                         _______ _______ _______ _____ _____    ______ ____
ROOT
ATOM      1  C   UNL     1      45.518   6.139  12.370  0.00  0.00    +0.000 A 
ATOM      2  C   UNL     1      46.420   5.284  12.999  0.00  0.00    +0.000 A 
ATOM      3  C   UNL     1      47.432   5.836  13.783  0.00  0.00    +0.000 A 
ATOM      4  C   UNL     1      47.537   7.223  13.911  0.00  0.00    +0.000 A 
ATOM      5  C   UNL     1      46.582   7.993  13.259  0.00  0.00    +0.000 A 
ATOM      6  N   UNL     1      45.588   7.486  12.495  0.00  0.00    +0.000 NA
ENDROOT
BRANCH   1   7
ATOM      7  C   UNL     1      44.330   5.594  11.608  0.00  0.00    +0.000 C 
BRANCH   7  11
ATOM      8  C   UNL     1      45.318   3.494   8.099  0.00  0.00    +0.000 A 
ATOM      9  N   UNL     1      44.432   2.919   8.923  0.00  0.00    +0.000 NA
ATOM     10  C   UNL     1      44.132   3.607  10.039  0.00  0.00    +0.000 A 
ATOM     11  C   UNL     1      44.700   4.823  10.374  0.00  0.00    +0.000 A 
ATOM     12  C   UNL     1      45.587   5.316   9.438  0.00  0.00    +0.000 A 
ATOM     13  N   UNL     1      45.928   4.669   8.307  0.00  0.00    +0.000 NA
BRANCH   8  14
ATOM     14  O   UNL     1      45.697   2.823   6.959  0.00  0.00    +0.000 OA
BRANCH  14  16
ATOM     15  C   UNL     1      46.975   0.884   7.444  0.00  0.00    +0.000 C 
ATOM     16  C   UNL     1      47.048   2.349   7.019  0.00  0.00    +0.000 C 
ATOM     17  C   UNL     1      47.714   2.461   5.648  0.00  0.00    +0.000 C 
ENDBRANCH  14  16
ENDBRANCH   8  14
ENDBRANCH   7  11
ENDBRANCH   1   7
BRANCH   4  18
ATOM     18  C   UNL     1      48.600   7.883  14.739  0.00  0.00    +0.000 C 
BRANCH  18  19
ATOM     19  N   UNL     1      48.510   7.513  16.130  0.00  0.00    +0.000 N 
ATOM     20  C   UNL     1      49.415   6.644  16.688  0.00  0.00    +0.000 C 
ATOM     21  O   UNL     1      50.347   6.183  16.031  0.00  0.00    +0.000 OA
ATOM     22  H   UNL     1      47.896   8.056  16.731  0.00  0.00    +0.000 HD
BRANCH  20  23
ATOM     23  C   UNL     1      49.173   6.220  18.074  0.00  0.00    +0.000 A 
ATOM     24  C   UNL     1      49.359   4.893  18.441  0.00  0.00    +0.000 A 
ATOM     25  S   UNL     1      48.764   4.532  20.000  0.00  0.00    +0.000 S 
ATOM     26  C   UNL     1      48.281   6.144  20.248  0.00  0.00    +0.000 A 
ATOM     27  N   UNL     1      47.589   6.516  21.359  0.00  0.00    +0.000 NA
ATOM     28  C   UNL     1      47.319   7.776  21.418  0.00  0.00    +0.000 A 
ATOM     29  N   UNL     1      47.722   8.708  20.497  0.00  0.00    +0.000 N 
ATOM     30  C   UNL     1      48.466   8.384  19.390  0.00  0.00    +0.000 A 
ATOM     31  O   UNL     1      48.926   9.243  18.645  0.00  0.00    +0.000 OA
ATOM     32  C   UNL     1      48.680   6.962  19.207  0.00  0.00    +0.000 A 
ATOM     33  H   UNL     1      47.552   9.692  20.647  0.00  0.00    +0.000 HD
ENDBRANCH  20  23
ENDBRANCH  18  19
ENDBRANCH   4  18
TORSDOF 7
ENDMDL
MODEL 4
REMARK VINA RESULT:    -7.008      3.141      4.683
REMARK INTER + INTRA:         -10.775
REMARK INTER:                  -9.860
REMARK INTRA:                  -0.915
REMARK UNBOUND:                -0.899
REMARK  Name = 
REMARK  9 active torsions:
REMARK  status: ('A' for Active; 'I' for Inactive)
REMARK    1  A    between atoms: C_1  and  C_2
REMARK    2  A    between atoms: C_2  and  C_3
REMARK    3  A    between atoms: C_2  and  O_4
REMARK    4  A    between atoms: O_4  and  C_5
REMARK    5  A    between atoms: C_8  and  C_9
REMARK    6  A    between atoms: C_9  and  C_10
REMARK    7  A    between atoms: C_13  and  C_14
REMARK    8  A    between atoms: C_14  and  N_15
REMARK    9  A    between atoms: C_16  and  C_18
REMARK                            x       y       z     vdW  Elec       q    Type
REMARK                         _______ _______ _______ _____ _____    ______ ____
ROOT
ATOM      1  C   UNL     1      45.649   5.662  12.663  0.00  0.00    +0.000 A 
ATOM      2  C   UNL     1      45.826   4.567  13.504  0.00  0.00    +0.000 A 
ATOM      3  C   UNL     1      46.808   4.631  14.491  0.00  0.00    +0.000 A 
ATOM      4  C   UNL     1      47.606   5.773  14.608  0.00  0.00    +0.000 A 
ATOM      5  C   UNL     1      47.344   6.820  13.733  0.00  0.00    +0.000 A 
ATOM      6  N   UNL     1      46.397   6.787  12.769  0.00  0.00    +0.000 NA
ENDROOT
BRANCH   1   7
ATOM      7  C   UNL     1      44.520   5.697  11.656  0.00  0.00    +0.000 C 
BRANCH   7  11
ATOM      8  C   UNL     1      45.461   3.710   8.069  0.00  0.00    +0.000 A 
ATOM      9  N   UNL     1      46.079   4.876   8.299  0.00  0.00    +0.000 NA
ATOM     10  C   UNL     1      45.763   5.494   9.451  0.00  0.00    +0.000 A 
ATOM     11  C   UNL     1      44.839   5.011  10.359  0.00  0.00    +0.000 A 
ATOM     12  C   UNL     1      44.280   3.796  10.014  0.00  0.00    +0.000 A 
ATOM     13  N   UNL     1      44.556   3.135   8.873  0.00  0.00    +0.000 NA
BRANCH   8  14
ATOM     14  O   UNL     1      45.712   3.048   6.890  0.00  0.00    +0.000 OA
BRANCH  14  16
ATOM     15  C   UNL     1      47.147   1.198   7.274  0.00  0.00    +0.000 C 
ATOM     16  C   UNL     1      47.079   2.637   6.766  0.00  0.00    +0.000 C 
ATOM     17  C   UNL     1      47.523   2.694   5.305  0.00  0.00    +0.000 C 
ENDBRANCH  14  16
ENDBRANCH   8  14
ENDBRANCH   7  11
ENDBRANCH   1   7
BRANCH   4  18
ATOM     18  C   UNL     1      48.679   5.909  15.647  0.00  0.00    +0.000 C 
BRANCH  18  19
ATOM     19  N   UNL     1      48.191   6.529  16.853  0.00  0.00    +0.000 N 
ATOM     20  C   UNL     1      48.868   7.573  17.433  0.00  0.00    +0.000 C 
ATOM     21  O   UNL     1      49.890   8.033  16.925  0.00  0.00    +0.000 OA
ATOM     22  H   UNL     1      47.242   6.316  17.151  0.00  0.00    +0.000 HD
BRANCH  20  23
ATOM     23  C   UNL     1      48.373   8.059  18.728  0.00  0.00    +0.000 A 
ATOM     24  C   UNL     1      48.362   7.215  19.833  0.00  0.00    +0.000 A 
ATOM     25  S   UNL     1      47.500   7.851  21.162  0.00  0.00    +0.000 S 
ATOM     26  C   UNL     1      47.153   9.288  20.319  0.00  0.00    +0.000 A 
ATOM     27  N   UNL     1      46.341  10.243  20.846  0.00  0.00    +0.000 NA
ATOM     28  C   UNL     1      46.196  11.286  20.102  0.00  0.00    +0.000 A 
ATOM     29  N   UNL     1      46.831  11.487  18.903  0.00  0.00    +0.000 N 
ATOM     30  C   UNL     1      47.699  10.574  18.360  0.00  0.00    +0.000 A 
ATOM     31  O   UNL     1      48.355  10.822  17.354  0.00  0.00    +0.000 OA
ATOM     32  C   UNL     1      47.791   9.326  19.093  0.00  0.00    +0.000 A 
ATOM     33  H   UNL     1      46.742  12.365  18.411  0.00  0.00    +0.000 HD
ENDBRANCH  20  23
ENDBRANCH  18  19
ENDBRANCH   4  18
TORSDOF 7
ENDMDL
MODEL 5
REMARK VINA RESULT:    -6.713      4.008      4.889
REMARK INTER + INTRA:         -10.359
REMARK INTER:                  -9.260
REMARK INTRA:                  -1.099
REMARK UNBOUND:                -0.899
REMARK  Name = 
REMARK  9 active torsions:
REMARK  status: ('A' for Active; 'I' for Inactive)
REMARK    1  A    between atoms: C_1  and  C_2
REMARK    2  A    between atoms: C_2  and  C_3
REMARK    3  A    between atoms: C_2  and  O_4
REMARK    4  A    between atoms: O_4  and  C_5
REMARK    5  A    between atoms: C_8  and  C_9
REMARK    6  A    between atoms: C_9  and  C_10
REMARK    7  A    between atoms: C_13  and  C_14
REMARK    8  A    between atoms: C_14  and  N_15
REMARK    9  A    between atoms: C_16  and  C_18
REMARK                            x       y       z     vdW  Elec       q    Type
REMARK                         _______ _______ _______ _____ _____    ______ ____
ROOT
ATOM      1  C   UNL     1      45.665   6.149  12.527  0.00  0.00    +0.000 A 
ATOM      2  C   UNL     1      46.668   5.420  13.162  0.00  0.00    +0.000 A 
ATOM      3  C   UNL     1      47.686   6.109  13.818  0.00  0.00    +0.000 A 
ATOM      4  C   UNL     1      47.697   7.506  13.814  0.00  0.00    +0.000 A 
ATOM      5  C   UNL     1      46.647   8.146  13.168  0.00  0.00    +0.000 A 
ATOM      6  N   UNL     1      45.645   7.504  12.526  0.00  0.00    +0.000 NA
ENDROOT
BRANCH   1   7
ATOM      7  C   UNL     1      44.472   5.457  11.905  0.00  0.00    +0.000 C 
BRANCH   7  11
ATOM      8  C   UNL     1      45.255   3.667   8.179  0.00  0.00    +0.000 A 
ATOM      9  N   UNL     1      44.415   3.022   9.000  0.00  0.00    +0.000 NA
ATOM     10  C   UNL     1      44.180   3.611  10.185  0.00  0.00    +0.000 A 
ATOM     11  C   UNL     1      44.770   4.795  10.591  0.00  0.00    +0.000 A 
ATOM     12  C   UNL     1      45.605   5.368   9.652  0.00  0.00    +0.000 A 
ATOM     13  N   UNL     1      45.879   4.821   8.452  0.00  0.00    +0.000 NA
BRANCH   8  14
ATOM     14  O   UNL     1      45.566   3.096   6.967  0.00  0.00    +0.000 OA
BRANCH  14  16
ATOM     15  C   UNL     1      47.062   1.309   7.413  0.00  0.00    +0.000 C 
ATOM     16  C   UNL     1      46.948   2.730   6.866  0.00  0.00    +0.000 C 
ATOM     17  C   UNL     1      47.405   2.764   5.408  0.00  0.00    +0.000 C 
ENDBRANCH  14  16
ENDBRANCH   8  14
ENDBRANCH   7  11
ENDBRANCH   1   7
BRANCH   4  18
ATOM     18  C   UNL     1      48.761   8.310  14.501  0.00  0.00    +0.000 C 
BRANCH  18  19
ATOM     19  N   UNL     1      50.012   8.277  13.785  0.00  0.00    +0.000 N 
ATOM     20  C   UNL     1      50.415   9.342  13.018  0.00  0.00    +0.000 C 
ATOM     21  O   UNL     1      49.740  10.368  12.945  0.00  0.00    +0.000 OA
ATOM     22  H   UNL     1      50.676   7.543  14.017  0.00  0.00    +0.000 HD
BRANCH  20  23
ATOM     23  C   UNL     1      51.637   9.171  12.220  0.00  0.00    +0.000 A 
ATOM     24  C   UNL     1      51.689   9.643  10.914  0.00  0.00    +0.000 A 
ATOM     25  S   UNL     1      53.067   9.111  10.057  0.00  0.00    +0.000 S 
ATOM     26  C   UNL     1      53.655   8.274  11.416  0.00  0.00    +0.000 A 
ATOM     27  N   UNL     1      54.767   7.493  11.343  0.00  0.00    +0.000 NA
ATOM     28  C   UNL     1      55.105   6.946  12.461  0.00  0.00    +0.000 A 
ATOM     29  N   UNL     1      54.467   7.150  13.658  0.00  0.00    +0.000 N 
ATOM     30  C   UNL     1      53.375   7.970  13.786  0.00  0.00    +0.000 A 
ATOM     31  O   UNL     1      52.893   8.242  14.881  0.00  0.00    +0.000 OA
ATOM     32  C   UNL     1      52.874   8.502  12.533  0.00  0.00    +0.000 A 
ATOM     33  H   UNL     1      54.834   6.761  14.514  0.00  0.00    +0.000 HD
ENDBRANCH  20  23
ENDBRANCH  18  19
ENDBRANCH   4  18
TORSDOF 7
ENDMDL
MODEL 6
REMARK VINA RESULT:    -6.646      4.738     10.528
REMARK INTER + INTRA:         -10.264
REMARK INTER:                  -9.506
REMARK INTRA:                  -0.758
REMARK UNBOUND:                -0.899
REMARK  Name = 
REMARK  9 active torsions:
REMARK  status: ('A' for Active; 'I' for Inactive)
REMARK    1  A    between atoms: C_1  and  C_2
REMARK    2  A    between atoms: C_2  and  C_3
REMARK    3  A    between atoms: C_2  and  O_4
REMARK    4  A    between atoms: O_4  and  C_5
REMARK    5  A    between atoms: C_8  and  C_9
REMARK    6  A    between atoms: C_9  and  C_10
REMARK    7  A    between atoms: C_13  and  C_14
REMARK    8  A    between atoms: C_14  and  N_15
REMARK    9  A    between atoms: C_16  and  C_18
REMARK                            x       y       z     vdW  Elec       q    Type
REMARK                         _______ _______ _______ _____ _____    ______ ____
ROOT
ATOM      1  C   UNL     1      48.883   5.656  19.833  0.00  0.00    +0.000 A 
ATOM      2  C   UNL     1      49.819   4.875  19.161  0.00  0.00    +0.000 A 
ATOM      3  C   UNL     1      49.413   4.162  18.035  0.00  0.00    +0.000 A 
ATOM      4  C   UNL     1      48.082   4.224  17.612  0.00  0.00    +0.000 A 
ATOM      5  C   UNL     1      47.225   5.042  18.338  0.00  0.00    +0.000 A 
ATOM      6  N   UNL     1      47.592   5.748  19.432  0.00  0.00    +0.000 NA
ENDROOT
BRANCH   1   7
ATOM      7  C   UNL     1      49.294   6.546  20.986  0.00  0.00    +0.000 C 
BRANCH   7  11
ATOM      8  C   UNL     1      47.018  10.057  21.428  0.00  0.00    +0.000 A 
ATOM      9  N   UNL     1      46.674   9.009  22.188  0.00  0.00    +0.000 NA
ATOM     10  C   UNL     1      47.414   7.898  22.030  0.00  0.00    +0.000 A 
ATOM     11  C   UNL     1      48.457   7.785  21.128  0.00  0.00    +0.000 A 
ATOM     12  C   UNL     1      48.721   8.936  20.413  0.00  0.00    +0.000 A 
ATOM     13  N   UNL     1      48.011  10.075  20.528  0.00  0.00    +0.000 NA
BRANCH   8  14
ATOM     14  O   UNL     1      46.275  11.212  21.514  0.00  0.00    +0.000 OA
BRANCH  14  16
ATOM     15  C   UNL     1      43.970  11.232  20.950  0.00  0.00    +0.000 C 
ATOM     16  C   UNL     1      45.388  11.384  20.402  0.00  0.00    +0.000 C 
ATOM     17  C   UNL     1      45.563  12.774  19.790  0.00  0.00    +0.000 C 
ENDBRANCH  14  16
ENDBRANCH   8  14
ENDBRANCH   7  11
ENDBRANCH   1   7
BRANCH   4  18
ATOM     18  C   UNL     1      47.577   3.483  16.409  0.00  0.00    +0.000 C 
BRANCH  18  19
ATOM     19  N   UNL     1      46.906   4.355  15.478  0.00  0.00    +0.000 N 
ATOM     20  C   UNL     1      46.788   4.015  14.153  0.00  0.00    +0.000 C 
ATOM     21  O   UNL     1      47.218   2.944  13.727  0.00  0.00    +0.000 OA
ATOM     22  H   UNL     1      46.353   5.121  15.853  0.00  0.00    +0.000 HD
BRANCH  20  23
ATOM     23  C   UNL     1      46.207   5.018  13.251  0.00  0.00    +0.000 A 
ATOM     24  C   UNL     1      46.889   6.200  12.989  0.00  0.00    +0.000 A 
ATOM     25  S   UNL     1      45.946   7.356  12.157  0.00  0.00    +0.000 S 
ATOM     26  C   UNL     1      44.617   6.297  12.083  0.00  0.00    +0.000 A 
ATOM     27  N   UNL     1      43.416   6.697  11.585  0.00  0.00    +0.000 NA
ATOM     28  C   UNL     1      42.514   5.775  11.568  0.00  0.00    +0.000 A 
ATOM     29  N   UNL     1      42.717   4.474  11.952  0.00  0.00    +0.000 N 
ATOM     30  C   UNL     1      43.926   4.015  12.410  0.00  0.00    +0.000 A 
ATOM     31  O   UNL     1      44.126   2.825  12.628  0.00  0.00    +0.000 OA
ATOM     32  C   UNL     1      44.934   5.044  12.575  0.00  0.00    +0.000 A 
ATOM     33  H   UNL     1      41.993   3.781  11.832  0.00  0.00    +0.000 HD
ENDBRANCH  20  23
ENDBRANCH  18  19
ENDBRANCH   4  18
TORSDOF 7
ENDMDL
MODEL 7
REMARK VINA RESULT:    -6.513      4.969      7.039
REMARK INTER + INTRA:         -10.076
REMARK INTER:                  -8.971
REMARK INTRA:                  -1.105
REMARK UNBOUND:                -0.899
REMARK  Name = 
REMARK  9 active torsions:
REMARK  status: ('A' for Active; 'I' for Inactive)
REMARK    1  A    between atoms: C_1  and  C_2
REMARK    2  A    between atoms: C_2  and  C_3
REMARK    3  A    between atoms: C_2  and  O_4
REMARK    4  A    between atoms: O_4  and  C_5
REMARK    5  A    between atoms: C_8  and  C_9
REMARK    6  A    between atoms: C_9  and  C_10
REMARK    7  A    between atoms: C_13  and  C_14
REMARK    8  A    between atoms: C_14  and  N_15
REMARK    9  A    between atoms: C_16  and  C_18
REMARK                            x       y       z     vdW  Elec       q    Type
REMARK                         _______ _______ _______ _____ _____    ______ ____
ROOT
ATOM      1  C   UNL     1      44.714   8.946  11.492  0.00  0.00    +0.000 A 
ATOM      2  C   UNL     1      45.785   8.883  12.380  0.00  0.00    +0.000 A 
ATOM      3  C   UNL     1      46.126   7.650  12.933  0.00  0.00    +0.000 A 
ATOM      4  C   UNL     1      45.386   6.510  12.606  0.00  0.00    +0.000 A 
ATOM      5  C   UNL     1      44.345   6.670  11.700  0.00  0.00    +0.000 A 
ATOM      6  N   UNL     1      43.993   7.852  11.146  0.00  0.00    +0.000 NA
ENDROOT
BRANCH   1   7
ATOM      7  C   UNL     1      44.376  10.232  10.769  0.00  0.00    +0.000 C 
BRANCH   7  11
ATOM      8  C   UNL     1      40.407  11.550  11.222  0.00  0.00    +0.000 A 
ATOM      9  N   UNL     1      41.210  11.661  12.288  0.00  0.00    +0.000 NA
ATOM     10  C   UNL     1      42.474  11.233  12.121  0.00  0.00    +0.000 A 
ATOM     11  C   UNL     1      42.953  10.676  10.950  0.00  0.00    +0.000 A 
ATOM     12  C   UNL     1      42.033  10.628   9.921  0.00  0.00    +0.000 A 
ATOM     13  N   UNL     1      40.754  11.038  10.033  0.00  0.00    +0.000 NA
BRANCH   8  14
ATOM     14  O   UNL     1      39.091  11.934  11.340  0.00  0.00    +0.000 OA
BRANCH  14  16
ATOM     15  C   UNL     1      37.353  12.188  12.936  0.00  0.00    +0.000 C 
ATOM     16  C   UNL     1      38.397  11.225  12.374  0.00  0.00    +0.000 C 
ATOM     17  C   UNL     1      37.708   9.986  11.802  0.00  0.00    +0.000 C 
ENDBRANCH  14  16
ENDBRANCH   8  14
ENDBRANCH   7  11
ENDBRANCH   1   7
BRANCH   4  18
ATOM     18  C   UNL     1      45.698   5.153  13.164  0.00  0.00    +0.000 C 
BRANCH  18  19
ATOM     19  N   UNL     1      46.464   5.231  14.383  0.00  0.00    +0.000 N 
ATOM     20  C   UNL     1      47.194   4.157  14.827  0.00  0.00    +0.000 C 
ATOM     21  O   UNL     1      47.247   3.110  14.183  0.00  0.00    +0.000 OA
ATOM     22  H   UNL     1      46.613   6.148  14.796  0.00  0.00    +0.000 HD
BRANCH  20  23
ATOM     23  C   UNL     1      47.837   4.279  16.142  0.00  0.00    +0.000 A 
ATOM     24  C   UNL     1      47.673   3.281  17.095  0.00  0.00    +0.000 A 
ATOM     25  S   UNL     1      48.248   3.720  18.642  0.00  0.00    +0.000 S 
ATOM     26  C   UNL     1      48.773   5.236  18.075  0.00  0.00    +0.000 A 
ATOM     27  N   UNL     1      49.273   6.176  18.921  0.00  0.00    +0.000 NA
ATOM     28  C   UNL     1      49.654   7.263  18.341  0.00  0.00    +0.000 A 
ATOM     29  N   UNL     1      49.633   7.477  16.987  0.00  0.00    +0.000 N 
ATOM     30  C   UNL     1      49.186   6.536  16.094  0.00  0.00    +0.000 A 
ATOM     31  O   UNL     1      49.292   6.691  14.881  0.00  0.00    +0.000 OA
ATOM     32  C   UNL     1      48.621   5.349  16.706  0.00  0.00    +0.000 A 
ATOM     33  H   UNL     1      50.028   8.316  16.589  0.00  0.00    +0.000 HD
ENDBRANCH  20  23
ENDBRANCH  18  19
ENDBRANCH   4  18
TORSDOF 7
ENDMDL
MODEL 8
REMARK VINA RESULT:    -6.324      3.854      8.941
REMARK INTER + INTRA:          -9.810
REMARK INTER:                  -8.824
REMARK INTRA:                  -0.986
REMARK UNBOUND:                -0.899
REMARK  Name = 
REMARK  9 active torsions:
REMARK  status: ('A' for Active; 'I' for Inactive)
REMARK    1  A    between atoms: C_1  and  C_2
REMARK    2  A    between atoms: C_2  and  C_3
REMARK    3  A    between atoms: C_2  and  O_4
REMARK    4  A    between atoms: O_4  and  C_5
REMARK    5  A    between atoms: C_8  and  C_9
REMARK    6  A    between atoms: C_9  and  C_10
REMARK    7  A    between atoms: C_13  and  C_14
REMARK    8  A    between atoms: C_14  and  N_15
REMARK    9  A    between atoms: C_16  and  C_18
REMARK                            x       y       z     vdW  Elec       q    Type
REMARK                         _______ _______ _______ _____ _____    ______ ____
ROOT
ATOM      1  C   UNL     1      50.803   4.901  18.097  0.00  0.00    +0.000 A 
ATOM      2  C   UNL     1      50.687   3.578  17.680  0.00  0.00    +0.000 A 
ATOM      3  C   UNL     1      49.439   3.109  17.276  0.00  0.00    +0.000 A 
ATOM      4  C   UNL     1      48.329   3.957  17.313  0.00  0.00    +0.000 A 
ATOM      5  C   UNL     1      48.546   5.265  17.729  0.00  0.00    +0.000 A 
ATOM      6  N   UNL     1      49.745   5.749  18.123  0.00  0.00    +0.000 NA
ENDROOT
BRANCH   1   7
ATOM      7  C   UNL     1      52.153   5.499  18.429  0.00  0.00    +0.000 C 
BRANCH   7  11
ATOM      8  C   UNL     1      54.376   6.839  15.117  0.00  0.00    +0.000 A 
ATOM      9  N   UNL     1      53.115   7.278  15.222  0.00  0.00    +0.000 NA
ATOM     10  C   UNL     1      52.423   6.838  16.287  0.00  0.00    +0.000 A 
ATOM     11  C   UNL     1      52.928   5.958  17.227  0.00  0.00    +0.000 A 
ATOM     12  C   UNL     1      54.241   5.588  17.016  0.00  0.00    +0.000 A 
ATOM     13  N   UNL     1      54.980   5.995  15.965  0.00  0.00    +0.000 NA
BRANCH   8  14
ATOM     14  O   UNL     1      55.124   7.223  14.029  0.00  0.00    +0.000 OA
BRANCH  14  16
ATOM     15  C   UNL     1      55.223   9.488  13.329  0.00  0.00    +0.000 C 
ATOM     16  C   UNL     1      54.449   8.178  13.201  0.00  0.00    +0.000 C 
ATOM     17  C   UNL     1      54.446   7.715  11.745  0.00  0.00    +0.000 C 
ENDBRANCH  14  16
ENDBRANCH   8  14
ENDBRANCH   7  11
ENDBRANCH   1   7
BRANCH   4  18
ATOM     18  C   UNL     1      46.958   3.518  16.892  0.00  0.00    +0.000 C 
BRANCH  18  19
ATOM     19  N   UNL     1      46.457   4.293  15.784  0.00  0.00    +0.000 N 
ATOM     20  C   UNL     1      46.792   3.974  14.491  0.00  0.00    +0.000 C 
ATOM     21  O   UNL     1      47.498   2.999  14.236  0.00  0.00    +0.000 OA
ATOM     22  H   UNL     1      45.700   4.948  15.962  0.00  0.00    +0.000 HD
BRANCH  20  23
ATOM     23  C   UNL     1      46.345   4.892  13.435  0.00  0.00    +0.000 A 
ATOM     24  C   UNL     1      47.121   5.992  13.092  0.00  0.00    +0.000 A 
ATOM     25  S   UNL     1      46.321   7.091  12.059  0.00  0.00    +0.000 S 
ATOM     26  C   UNL     1      44.932   6.109  12.004  0.00  0.00    +0.000 A 
ATOM     27  N   UNL     1      43.799   6.516  11.369  0.00  0.00    +0.000 NA
ATOM     28  C   UNL     1      42.842   5.652  11.388  0.00  0.00    +0.000 A 
ATOM     29  N   UNL     1      42.928   4.398  11.936  0.00  0.00    +0.000 N 
ATOM     30  C   UNL     1      44.068   3.929  12.539  0.00  0.00    +0.000 A 
ATOM     31  O   UNL     1      44.172   2.764  12.909  0.00  0.00    +0.000 OA
ATOM     32  C   UNL     1      45.128   4.910  12.662  0.00  0.00    +0.000 A 
ATOM     33  H   UNL     1      42.171   3.738  11.841  0.00  0.00    +0.000 HD
ENDBRANCH  20  23
ENDBRANCH  18  19
ENDBRANCH   4  18
TORSDOF 7
ENDMDL
MODEL 9
REMARK VINA RESULT:    -5.958      5.543      7.116
REMARK INTER + INTRA:          -9.295
REMARK INTER:                  -8.358
REMARK INTRA:                  -0.938
REMARK UNBOUND:                -0.899
REMARK  Name = 
REMARK  9 active torsions:
REMARK  status: ('A' for Active; 'I' for Inactive)
REMARK    1  A    between atoms: C_1  and  C_2
REMARK    2  A    between atoms: C_2  and  C_3
REMARK    3  A    between atoms: C_2  and  O_4
REMARK    4  A    between atoms: O_4  and  C_5
REMARK    5  A    between atoms: C_8  and  C_9
REMARK    6  A    between atoms: C_9  and  C_10
REMARK    7  A    between atoms: C_13  and  C_14
REMARK    8  A    between atoms: C_14  and  N_15
REMARK    9  A    between atoms: C_16  and  C_18
REMARK                            x       y       z     vdW  Elec       q    Type
REMARK                         _______ _______ _______ _____ _____    ______ ____
ROOT
ATOM      1  C   UNL     1      48.238   7.030  13.833  0.00  0.00    +0.000 A 
ATOM      2  C   UNL     1      48.276   8.368  14.218  0.00  0.00    +0.000 A 
ATOM      3  C   UNL     1      49.198   9.216  13.608  0.00  0.00    +0.000 A 
ATOM      4  C   UNL     1      50.074   8.714  12.642  0.00  0.00    +0.000 A 
ATOM      5  C   UNL     1      49.951   7.370  12.313  0.00  0.00    +0.000 A 
ATOM      6  N   UNL     1      49.064   6.525  12.885  0.00  0.00    +0.000 NA
ENDROOT
BRANCH   1   7
ATOM      7  C   UNL     1      47.179   6.093  14.371  0.00  0.00    +0.000 C 
BRANCH   7  11
ATOM      8  C   UNL     1      44.886   4.155  11.424  0.00  0.00    +0.000 A 
ATOM      9  N   UNL     1      45.486   3.379  12.337  0.00  0.00    +0.000 NA
ATOM     10  C   UNL     1      46.214   4.019  13.268  0.00  0.00    +0.000 A 
ATOM     11  C   UNL     1      46.388   5.391  13.305  0.00  0.00    +0.000 A 
ATOM     12  C   UNL     1      45.709   6.080  12.320  0.00  0.00    +0.000 A 
ATOM     13  N   UNL     1      44.970   5.491  11.360  0.00  0.00    +0.000 NA
BRANCH   8  14
ATOM     14  O   UNL     1      44.158   3.557  10.421  0.00  0.00    +0.000 OA
BRANCH  14  16
ATOM     15  C   UNL     1      44.570   1.622   9.111  0.00  0.00    +0.000 C 
ATOM     16  C   UNL     1      44.981   3.074   9.353  0.00  0.00    +0.000 C 
ATOM     17  C   UNL     1      44.751   3.897   8.086  0.00  0.00    +0.000 C 
ENDBRANCH  14  16
ENDBRANCH   8  14
ENDBRANCH   7  11
ENDBRANCH   1   7
BRANCH   4  18
ATOM     18  C   UNL     1      51.089   9.571  11.945  0.00  0.00    +0.000 C 
BRANCH  18  19
ATOM     19  N   UNL     1      51.440   9.048  10.648  0.00  0.00    +0.000 N 
ATOM     20  C   UNL     1      52.741   8.732  10.343  0.00  0.00    +0.000 C 
ATOM     21  O   UNL     1      53.639   8.850  11.175  0.00  0.00    +0.000 OA
ATOM     22  H   UNL     1      50.689   8.733  10.040  0.00  0.00    +0.000 HD
BRANCH  20  23
ATOM     23  C   UNL     1      53.029   8.331   8.959  0.00  0.00    +0.000 A 
ATOM     24  C   UNL     1      52.929   9.258   7.929  0.00  0.00    +0.000 A 
ATOM     25  S   UNL     1      53.020   8.555   6.375  0.00  0.00    +0.000 S 
ATOM     26  C   UNL     1      53.240   7.001   7.032  0.00  0.00    +0.000 A 
ATOM     27  N   UNL     1      53.281   5.895   6.242  0.00  0.00    +0.000 NA
ATOM     28  C   UNL     1      53.482   4.793   6.881  0.00  0.00    +0.000 A 
ATOM     29  N   UNL     1      53.700   4.700   8.232  0.00  0.00    +0.000 N 
ATOM     30  C   UNL     1      53.719   5.795   9.058  0.00  0.00    +0.000 A 
ATOM     31  O   UNL     1      54.040   5.711  10.239  0.00  0.00    +0.000 OA
ATOM     32  C   UNL     1      53.364   7.042   8.408  0.00  0.00    +0.000 A 
ATOM     33  H   UNL     1      53.938   3.816   8.658  0.00  0.00    +0.000 HD
ENDBRANCH  20  23
ENDBRANCH  18  19
ENDBRANCH   4  18
TORSDOF 7
ENDMDL
