MODEL 1
REMARK VINA RESULT:    -8.596      0.000      0.000
REMARK INTER + INTRA:         -11.994
REMARK INTER:                 -11.108
REMARK INTRA:                  -0.886
REMARK UNBOUND:                -0.886
REMARK  Name = 
REMARK  5 active torsions:
REMARK  status: ('A' for Active; 'I' for Inactive)
REMARK    1  A    between atoms: C_2  and  C_4
REMARK    2  A    between atoms: C_8  and  O_9
REMARK    3  A    between atoms: O_9  and  C_10
REMARK    4  A    between atoms: C_10  and  C_11
REMARK    5  A    between atoms: C_16  and  C_17
REMARK                            x       y       z     vdW  Elec       q    Type
REMARK                         _______ _______ _______ _____ _____    ______ ____
ROOT
ATOM      1  C   UNL     1      44.227   5.215  11.031  0.00  0.00    +0.000 A 
ATOM      2  C   UNL     1      43.368   4.315  11.647  0.00  0.00    +0.000 A 
ATOM      3  F   UNL     1      42.601   4.700  12.676  0.00  0.00    +0.000 F 
ATOM      4  C   UNL     1      43.302   3.017  11.177  0.00  0.00    +0.000 A 
ATOM      5  N   UNL     1      44.036   2.557  10.137  0.00  0.00    +0.000 NA
ATOM      6  C   UNL     1      44.892   3.430   9.529  0.00  0.00    +0.000 A 
ATOM      7  C   UNL     1      45.006   4.753   9.969  0.00  0.00    +0.000 A 
ATOM      8  F   UNL     1      45.863   5.608   9.389  0.00  0.00    +0.000 F 
ENDROOT
BRANCH   6   9
ATOM      9  C   UNL     1      45.672   2.880   8.400  0.00  0.00    +0.000 A 
ATOM     10  C   UNL     1      45.999   3.648   7.266  0.00  0.00    +0.000 A 
ATOM     11  C   UNL     1      46.754   3.119   6.217  0.00  0.00    +0.000 A 
ATOM     12  C   UNL     1      47.193   1.799   6.271  0.00  0.00    +0.000 A 
ATOM     13  C   UNL     1      46.872   1.013   7.371  0.00  0.00    +0.000 A 
ATOM     14  C   UNL     1      46.120   1.545   8.420  0.00  0.00    +0.000 A 
ENDBRANCH   6   9
BRANCH   1  15
ATOM     15  C   UNL     1      44.337   6.630  11.494  0.00  0.00    +0.000 C 
BRANCH  15  16
ATOM     16  O   UNL     1      45.021   6.652  12.745  0.00  0.00    +0.000 OA
BRANCH  16  21
ATOM     17  C   UNL     1      48.412   8.012  12.148  0.00  0.00    +0.000 A 
ATOM     18  C   UNL     1      49.118   6.963  12.717  0.00  0.00    +0.000 A 
ATOM     19  N   UNL     1      48.523   5.887  13.288  0.00  0.00    +0.000 NA
ATOM     20  C   UNL     1      47.168   5.860  13.262  0.00  0.00    +0.000 A 
ATOM     21  C   UNL     1      46.372   6.848  12.692  0.00  0.00    +0.000 A 
ATOM     22  C   UNL     1      47.016   7.942  12.119  0.00  0.00    +0.000 A 
BRANCH  17  24
ATOM     23  N   UNL     1      50.492   8.998  11.385  0.00  0.00    +0.000 N 
ATOM     24  C   UNL     1      49.147   9.158  11.579  0.00  0.00    +0.000 C 
ATOM     25  O   UNL     1      48.577  10.193  11.261  0.00  0.00    +0.000 OA
ATOM     26  H   UNL     1      50.965   9.746  10.893  0.00  0.00    +0.000 HD
ATOM     27  H   UNL     1      50.935   8.088  11.374  0.00  0.00    +0.000 HD
ENDBRANCH  17  24
ENDBRANCH  16  21
ENDBRANCH  15  16
ENDBRANCH   1  15
TORSDOF 5
ENDMDL
MODEL 2
REMARK VINA RESULT:    -8.384      1.586      2.889
REMARK INTER + INTRA:         -11.720
REMARK INTER:                 -11.546
REMARK INTRA:                  -0.174
REMARK UNBOUND:                -0.886
REMARK  Name = 
REMARK  5 active torsions:
REMARK  status: ('A' for Active; 'I' for Inactive)
REMARK    1  A    between atoms: C_2  and  C_4
REMARK    2  A    between atoms: C_8  and  O_9
REMARK    3  A    between atoms: O_9  and  C_10
REMARK    4  A    between atoms: C_10  and  C_11
REMARK    5  A    between atoms: C_16  and  C_17
REMARK                            x       y       z     vdW  Elec       q    Type
REMARK                         _______ _______ _______ _____ _____    ______ ____
ROOT
ATOM      1  C   UNL     1      44.312   5.089  11.127  0.00  0.00    +0.000 A 
ATOM      2  C   UNL     1      43.444   4.178  11.712  0.00  0.00    +0.000 A 
ATOM      3  F   UNL     1      42.695   4.530  12.765  0.00  0.00    +0.000 F 
ATOM      4  C   UNL     1      43.348   2.904  11.185  0.00  0.00    +0.000 A 
ATOM      5  N   UNL     1      44.063   2.477  10.117  0.00  0.00    +0.000 NA
ATOM      6  C   UNL     1      44.928   3.361   9.539  0.00  0.00    +0.000 A 
ATOM      7  C   UNL     1      45.071   4.661  10.037  0.00  0.00    +0.000 A 
ATOM      8  F   UNL     1      45.937   5.526   9.485  0.00  0.00    +0.000 F 
ENDROOT
BRANCH   6   9
ATOM      9  C   UNL     1      45.686   2.849   8.378  0.00  0.00    +0.000 A 
ATOM     10  C   UNL     1      45.966   3.645   7.251  0.00  0.00    +0.000 A 
ATOM     11  C   UNL     1      46.702   3.151   6.171  0.00  0.00    +0.000 A 
ATOM     12  C   UNL     1      47.166   1.839   6.186  0.00  0.00    +0.000 A 
ATOM     13  C   UNL     1      46.891   1.025   7.279  0.00  0.00    +0.000 A 
ATOM     14  C   UNL     1      46.159   1.522   8.359  0.00  0.00    +0.000 A 
ENDBRANCH   6   9
BRANCH   1  15
ATOM     15  C   UNL     1      44.453   6.480  11.651  0.00  0.00    +0.000 C 
BRANCH  15  16
ATOM     16  O   UNL     1      45.823   6.866  11.566  0.00  0.00    +0.000 OA
BRANCH  16  21
ATOM     17  C   UNL     1      47.374   5.341  14.562  0.00  0.00    +0.000 A 
ATOM     18  C   UNL     1      48.267   6.367  14.831  0.00  0.00    +0.000 A 
ATOM     19  N   UNL     1      48.378   7.479  14.065  0.00  0.00    +0.000 NA
ATOM     20  C   UNL     1      47.540   7.569  13.003  0.00  0.00    +0.000 A 
ATOM     21  C   UNL     1      46.592   6.607  12.665  0.00  0.00    +0.000 A 
ATOM     22  C   UNL     1      46.510   5.475  13.471  0.00  0.00    +0.000 A 
BRANCH  17  24
ATOM     23  N   UNL     1      46.939   4.340  16.727  0.00  0.00    +0.000 N 
ATOM     24  C   UNL     1      47.348   4.152  15.435  0.00  0.00    +0.000 C 
ATOM     25  O   UNL     1      47.645   3.041  15.017  0.00  0.00    +0.000 OA
ATOM     26  H   UNL     1      46.819   3.503  17.285  0.00  0.00    +0.000 HD
ATOM     27  H   UNL     1      46.434   5.165  17.023  0.00  0.00    +0.000 HD
ENDBRANCH  17  24
ENDBRANCH  16  21
ENDBRANCH  15  16
ENDBRANCH   1  15
TORSDOF 5
ENDMDL
MODEL 3
REMARK VINA RESULT:    -8.183      2.594      6.511
REMARK INTER + INTRA:         -11.461
REMARK INTER:                 -10.647
REMARK INTRA:                  -0.814
REMARK UNBOUND:                -0.886
REMARK  Name = 
REMARK  5 active torsions:
REMARK  status: ('A' for Active; 'I' for Inactive)
REMARK    1  A    between atoms: C_2  and  C_4
REMARK    2  A    between atoms: C_8  and  O_9
REMARK    3  A    between atoms: O_9  and  C_10
REMARK    4  A    between atoms: C_10  and  C_11
REMARK    5  A    between atoms: C_16  and  C_17
REMARK                            x       y       z     vdW  Elec       q    Type
REMARK                         _______ _______ _______ _____ _____    ______ ____
ROOT
ATOM      1  C   UNL     1      44.974   4.896  11.578  0.00  0.00    +0.000 A 
ATOM      2  C   UNL     1      45.450   4.012  12.537  0.00  0.00    +0.000 A 
ATOM      3  F   UNL     1      44.869   2.818  12.712  0.00  0.00    +0.000 F 
ATOM      4  C   UNL     1      46.545   4.372  13.301  0.00  0.00    +0.000 A 
ATOM      5  N   UNL     1      47.192   5.555  13.175  0.00  0.00    +0.000 NA
ATOM      6  C   UNL     1      46.726   6.436  12.242  0.00  0.00    +0.000 A 
ATOM      7  C   UNL     1      45.617   6.127  11.448  0.00  0.00    +0.000 A 
ATOM      8  F   UNL     1      45.142   7.001  10.546  0.00  0.00    +0.000 F 
ENDROOT
BRANCH   6   9
ATOM      9  C   UNL     1      47.465   7.713  12.144  0.00  0.00    +0.000 A 
ATOM     10  C   UNL     1      46.890   8.945  12.510  0.00  0.00    +0.000 A 
ATOM     11  C   UNL     1      47.609  10.141  12.430  0.00  0.00    +0.000 A 
ATOM     12  C   UNL     1      48.922  10.134  11.969  0.00  0.00    +0.000 A 
ATOM     13  C   UNL     1      49.511   8.934  11.586  0.00  0.00    +0.000 A 
ATOM     14  C   UNL     1      48.791   7.741  11.670  0.00  0.00    +0.000 A 
ENDBRANCH   6   9
BRANCH   1  15
ATOM     15  C   UNL     1      43.798   4.558  10.722  0.00  0.00    +0.000 C 
BRANCH  15  16
ATOM     16  O   UNL     1      44.187   4.648   9.353  0.00  0.00    +0.000 OA
BRANCH  16  21
ATOM     17  C   UNL     1      46.503   2.465   7.462  0.00  0.00    +0.000 A 
ATOM     18  C   UNL     1      46.095   1.263   8.019  0.00  0.00    +0.000 A 
ATOM     19  N   UNL     1      45.141   1.170   8.977  0.00  0.00    +0.000 NA
ATOM     20  C   UNL     1      44.561   2.331   9.368  0.00  0.00    +0.000 A 
ATOM     21  C   UNL     1      44.880   3.583   8.851  0.00  0.00    +0.000 A 
ATOM     22  C   UNL     1      45.870   3.642   7.873  0.00  0.00    +0.000 A 
BRANCH  17  24
ATOM     23  N   UNL     1      47.419   3.316   5.385  0.00  0.00    +0.000 N 
ATOM     24  C   UNL     1      47.575   2.470   6.448  0.00  0.00    +0.000 C 
ATOM     25  O   UNL     1      48.575   1.775   6.568  0.00  0.00    +0.000 OA
ATOM     26  H   UNL     1      48.208   3.393   4.755  0.00  0.00    +0.000 HD
ATOM     27  H   UNL     1      46.762   4.085   5.394  0.00  0.00    +0.000 HD
ENDBRANCH  17  24
ENDBRANCH  16  21
ENDBRANCH  15  16
ENDBRANCH   1  15
TORSDOF 5
ENDMDL
MODEL 4
REMARK VINA RESULT:    -7.997      2.755      6.541
REMARK INTER + INTRA:         -11.221
REMARK INTER:                 -10.726
REMARK INTRA:                  -0.494
REMARK UNBOUND:                -0.886
REMARK  Name = 
REMARK  5 active torsions:
REMARK  status: ('A' for Active; 'I' for Inactive)
REMARK    1  A    between atoms: C_2  and  C_4
REMARK    2  A    between atoms: C_8  and  O_9
REMARK    3  A    between atoms: O_9  and  C_10
REMARK    4  A    between atoms: C_10  and  C_11
REMARK    5  A    between atoms: C_16  and  C_17
REMARK                            x       y       z     vdW  Elec       q    Type
REMARK                         _______ _______ _______ _____ _____    ______ ____
ROOT
ATOM      1  C   UNL     1      44.413   4.665  12.004  0.00  0.00    +0.000 A 
ATOM      2  C   UNL     1      43.484   5.672  11.781  0.00  0.00    +0.000 A 
ATOM      3  F   UNL     1      42.215   5.373  11.472  0.00  0.00    +0.000 F 
ATOM      4  C   UNL     1      43.879   6.992  11.898  0.00  0.00    +0.000 A 
ATOM      5  N   UNL     1      45.138   7.373  12.217  0.00  0.00    +0.000 NA
ATOM      6  C   UNL     1      46.064   6.391  12.429  0.00  0.00    +0.000 A 
ATOM      7  C   UNL     1      45.720   5.040  12.316  0.00  0.00    +0.000 A 
ATOM      8  F   UNL     1      46.633   4.072  12.501  0.00  0.00    +0.000 F 
ENDROOT
BRANCH   6   9
ATOM      9  C   UNL     1      47.424   6.858  12.774  0.00  0.00    +0.000 A 
ATOM     10  C   UNL     1      47.983   6.665  14.051  0.00  0.00    +0.000 A 
ATOM     11  C   UNL     1      49.278   7.094  14.355  0.00  0.00    +0.000 A 
ATOM     12  C   UNL     1      50.043   7.740  13.387  0.00  0.00    +0.000 A 
ATOM     13  C   UNL     1      49.510   7.957  12.121  0.00  0.00    +0.000 A 
ATOM     14  C   UNL     1      48.217   7.524  11.820  0.00  0.00    +0.000 A 
ENDBRANCH   6   9
BRANCH   1  15
ATOM     15  C   UNL     1      44.041   3.223  11.897  0.00  0.00    +0.000 C 
BRANCH  15  16
ATOM     16  O   UNL     1      43.524   2.978  10.591  0.00  0.00    +0.000 OA
BRANCH  16  21
ATOM     17  C   UNL     1      46.117   2.167   8.075  0.00  0.00    +0.000 A 
ATOM     18  C   UNL     1      46.168   3.417   7.475  0.00  0.00    +0.000 A 
ATOM     19  N   UNL     1      45.382   4.456   7.849  0.00  0.00    +0.000 NA
ATOM     20  C   UNL     1      44.533   4.232   8.882  0.00  0.00    +0.000 A 
ATOM     21  C   UNL     1      44.427   3.024   9.566  0.00  0.00    +0.000 A 
ATOM     22  C   UNL     1      45.245   1.976   9.151  0.00  0.00    +0.000 A 
BRANCH  17  24
ATOM     23  N   UNL     1      48.095   1.460   6.864  0.00  0.00    +0.000 N 
ATOM     24  C   UNL     1      46.989   1.086   7.577  0.00  0.00    +0.000 C 
ATOM     25  O   UNL     1      46.755  -0.090   7.818  0.00  0.00    +0.000 OA
ATOM     26  H   UNL     1      48.743   0.720   6.623  0.00  0.00    +0.000 HD
ATOM     27  H   UNL     1      48.461   2.403   6.884  0.00  0.00    +0.000 HD
ENDBRANCH  17  24
ENDBRANCH  16  21
ENDBRANCH  15  16
ENDBRANCH   1  15
TORSDOF 5
ENDMDL
MODEL 5
REMARK VINA RESULT:    -7.733      1.649      1.821
REMARK INTER + INTRA:         -10.879
REMARK INTER:                 -10.811
REMARK INTRA:                  -0.069
REMARK UNBOUND:                -0.886
REMARK  Name = 
REMARK  5 active torsions:
REMARK  status: ('A' for Active; 'I' for Inactive)
REMARK    1  A    between atoms: C_2  and  C_4
REMARK    2  A    between atoms: C_8  and  O_9
REMARK    3  A    between atoms: O_9  and  C_10
REMARK    4  A    between atoms: C_10  and  C_11
REMARK    5  A    between atoms: C_16  and  C_17
REMARK                            x       y       z     vdW  Elec       q    Type
REMARK                         _______ _______ _______ _____ _____    ______ ____
ROOT
ATOM      1  C   UNL     1      44.395   5.207  11.215  0.00  0.00    +0.000 A 
ATOM      2  C   UNL     1      43.469   4.345  11.785  0.00  0.00    +0.000 A 
ATOM      3  F   UNL     1      42.732   4.732  12.835  0.00  0.00    +0.000 F 
ATOM      4  C   UNL     1      43.304   3.082  11.248  0.00  0.00    +0.000 A 
ATOM      5  N   UNL     1      44.003   2.622  10.183  0.00  0.00    +0.000 NA
ATOM      6  C   UNL     1      44.924   3.458   9.619  0.00  0.00    +0.000 A 
ATOM      7  C   UNL     1      45.138   4.744  10.128  0.00  0.00    +0.000 A 
ATOM      8  F   UNL     1      46.059   5.560   9.592  0.00  0.00    +0.000 F 
ENDROOT
BRANCH   6   9
ATOM      9  C   UNL     1      45.661   2.910   8.461  0.00  0.00    +0.000 A 
ATOM     10  C   UNL     1      45.952   3.682   7.321  0.00  0.00    +0.000 A 
ATOM     11  C   UNL     1      46.668   3.155   6.243  0.00  0.00    +0.000 A 
ATOM     12  C   UNL     1      47.102   1.832   6.276  0.00  0.00    +0.000 A 
ATOM     13  C   UNL     1      46.817   1.042   7.383  0.00  0.00    +0.000 A 
ATOM     14  C   UNL     1      46.104   1.573   8.459  0.00  0.00    +0.000 A 
ENDBRANCH   6   9
BRANCH   1  15
ATOM     15  C   UNL     1      44.612   6.584  11.751  0.00  0.00    +0.000 C 
BRANCH  15  16
ATOM     16  O   UNL     1      45.984   6.933  11.578  0.00  0.00    +0.000 OA
BRANCH  16  21
ATOM     17  C   UNL     1      48.014   7.787  14.554  0.00  0.00    +0.000 A 
ATOM     18  C   UNL     1      48.341   6.489  14.914  0.00  0.00    +0.000 A 
ATOM     19  N   UNL     1      47.903   5.396  14.243  0.00  0.00    +0.000 NA
ATOM     20  C   UNL     1      47.126   5.624  13.156  0.00  0.00    +0.000 A 
ATOM     21  C   UNL     1      46.764   6.888  12.698  0.00  0.00    +0.000 A 
ATOM     22  C   UNL     1      47.228   7.988  13.415  0.00  0.00    +0.000 A 
BRANCH  17  24
ATOM     23  N   UNL     1      47.647   9.451  16.279  0.00  0.00    +0.000 N 
ATOM     24  C   UNL     1      48.512   8.914  15.366  0.00  0.00    +0.000 C 
ATOM     25  O   UNL     1      49.658   9.328  15.254  0.00  0.00    +0.000 OA
ATOM     26  H   UNL     1      48.033  10.147  16.905  0.00  0.00    +0.000 HD
ATOM     27  H   UNL     1      46.813   8.968  16.586  0.00  0.00    +0.000 HD
ENDBRANCH  17  24
ENDBRANCH  16  21
ENDBRANCH  15  16
ENDBRANCH   1  15
TORSDOF 5
ENDMDL
MODEL 6
REMARK VINA RESULT:    -7.561      2.704      3.191
REMARK INTER + INTRA:         -10.657
REMARK INTER:                 -10.020
REMARK INTRA:                  -0.637
REMARK UNBOUND:                -0.886
REMARK  Name = 
REMARK  5 active torsions:
REMARK  status: ('A' for Active; 'I' for Inactive)
REMARK    1  A    between atoms: C_2  and  C_4
REMARK    2  A    between atoms: C_8  and  O_9
REMARK    3  A    between atoms: O_9  and  C_10
REMARK    4  A    between atoms: C_10  and  C_11
REMARK    5  A    between atoms: C_16  and  C_17
REMARK                            x       y       z     vdW  Elec       q    Type
REMARK                         _______ _______ _______ _____ _____    ______ ____
ROOT
ATOM      1  C   UNL     1      44.468   4.984  11.501  0.00  0.00    +0.000 A 
ATOM      2  C   UNL     1      43.500   4.114  11.984  0.00  0.00    +0.000 A 
ATOM      3  F   UNL     1      42.773   4.434  13.063  0.00  0.00    +0.000 F 
ATOM      4  C   UNL     1      43.283   2.916  11.329  0.00  0.00    +0.000 A 
ATOM      5  N   UNL     1      43.969   2.528  10.228  0.00  0.00    +0.000 NA
ATOM      6  C   UNL     1      44.931   3.371   9.749  0.00  0.00    +0.000 A 
ATOM      7  C   UNL     1      45.198   4.592  10.378  0.00  0.00    +0.000 A 
ATOM      8  F   UNL     1      46.159   5.413   9.925  0.00  0.00    +0.000 F 
ENDROOT
BRANCH   6   9
ATOM      9  C   UNL     1      45.652   2.902   8.547  0.00  0.00    +0.000 A 
ATOM     10  C   UNL     1      46.102   1.575   8.410  0.00  0.00    +0.000 A 
ATOM     11  C   UNL     1      46.765   1.143   7.258  0.00  0.00    +0.000 A 
ATOM     12  C   UNL     1      47.005   2.035   6.216  0.00  0.00    +0.000 A 
ATOM     13  C   UNL     1      46.585   3.354   6.331  0.00  0.00    +0.000 A 
ATOM     14  C   UNL     1      45.920   3.783   7.481  0.00  0.00    +0.000 A 
ENDBRANCH   6   9
BRANCH   1  15
ATOM     15  C   UNL     1      44.742   6.292  12.166  0.00  0.00    +0.000 C 
BRANCH  15  16
ATOM     16  O   UNL     1      44.120   7.330  11.412  0.00  0.00    +0.000 OA
BRANCH  16  21
ATOM     17  C   UNL     1      44.778  10.971  11.293  0.00  0.00    +0.000 A 
ATOM     18  C   UNL     1      46.041  10.934  11.867  0.00  0.00    +0.000 A 
ATOM     19  N   UNL     1      46.632   9.792  12.293  0.00  0.00    +0.000 NA
ATOM     20  C   UNL     1      45.934   8.644  12.113  0.00  0.00    +0.000 A 
ATOM     21  C   UNL     1      44.675   8.574  11.524  0.00  0.00    +0.000 A 
ATOM     22  C   UNL     1      44.094   9.767  11.103  0.00  0.00    +0.000 A 
BRANCH  17  24
ATOM     23  N   UNL     1      43.170  12.751  11.646  0.00  0.00    +0.000 N 
ATOM     24  C   UNL     1      44.202  12.268  10.889  0.00  0.00    +0.000 C 
ATOM     25  O   UNL     1      44.648  12.902   9.943  0.00  0.00    +0.000 OA
ATOM     26  H   UNL     1      42.857  13.689  11.428  0.00  0.00    +0.000 HD
ATOM     27  H   UNL     1      42.966  12.402  12.573  0.00  0.00    +0.000 HD
ENDBRANCH  17  24
ENDBRANCH  16  21
ENDBRANCH  15  16
ENDBRANCH   1  15
TORSDOF 5
ENDMDL
MODEL 7
REMARK VINA RESULT:    -7.474      2.969      6.759
REMARK INTER + INTRA:         -10.544
REMARK INTER:                 -10.725
REMARK INTRA:                   0.181
REMARK UNBOUND:                -0.886
REMARK  Name = 
REMARK  5 active torsions:
REMARK  status: ('A' for Active; 'I' for Inactive)
REMARK    1  A    between atoms: C_2  and  C_4
REMARK    2  A    between atoms: C_8  and  O_9
REMARK    3  A    between atoms: O_9  and  C_10
REMARK    4  A    between atoms: C_10  and  C_11
REMARK    5  A    between atoms: C_16  and  C_17
REMARK                            x       y       z     vdW  Elec       q    Type
REMARK                         _______ _______ _______ _____ _____    ______ ____
ROOT
ATOM      1  C   UNL     1      44.748   4.351  12.021  0.00  0.00    +0.000 A 
ATOM      2  C   UNL     1      45.936   4.134  12.705  0.00  0.00    +0.000 A 
ATOM      3  F   UNL     1      46.327   2.891  13.015  0.00  0.00    +0.000 F 
ATOM      4  C   UNL     1      46.722   5.217  13.051  0.00  0.00    +0.000 A 
ATOM      5  N   UNL     1      46.400   6.501  12.764  0.00  0.00    +0.000 NA
ATOM      6  C   UNL     1      45.228   6.727  12.099  0.00  0.00    +0.000 A 
ATOM      7  C   UNL     1      44.391   5.669  11.732  0.00  0.00    +0.000 A 
ATOM      8  F   UNL     1      43.227   5.889  11.100  0.00  0.00    +0.000 F 
ENDROOT
BRANCH   6   9
ATOM      9  C   UNL     1      44.921   8.144  11.810  0.00  0.00    +0.000 A 
ATOM     10  C   UNL     1      43.802   8.530  11.048  0.00  0.00    +0.000 A 
ATOM     11  C   UNL     1      43.514   9.875  10.800  0.00  0.00    +0.000 A 
ATOM     12  C   UNL     1      44.349  10.870  11.303  0.00  0.00    +0.000 A 
ATOM     13  C   UNL     1      45.468  10.517  12.046  0.00  0.00    +0.000 A 
ATOM     14  C   UNL     1      45.752   9.173  12.295  0.00  0.00    +0.000 A 
ENDBRANCH   6   9
BRANCH   1  15
ATOM     15  C   UNL     1      43.862   3.218  11.618  0.00  0.00    +0.000 C 
BRANCH  15  16
ATOM     16  O   UNL     1      43.504   3.381  10.247  0.00  0.00    +0.000 OA
BRANCH  16  21
ATOM     17  C   UNL     1      46.210   2.186   8.021  0.00  0.00    +0.000 A 
ATOM     18  C   UNL     1      46.559   3.422   7.499  0.00  0.00    +0.000 A 
ATOM     19  N   UNL     1      45.930   4.576   7.832  0.00  0.00    +0.000 NA
ATOM     20  C   UNL     1      44.930   4.480   8.741  0.00  0.00    +0.000 A 
ATOM     21  C   UNL     1      44.524   3.292   9.342  0.00  0.00    +0.000 A 
ATOM     22  C   UNL     1      45.188   2.125   8.972  0.00  0.00    +0.000 A 
BRANCH  17  24
ATOM     23  N   UNL     1      47.976   1.165   6.710  0.00  0.00    +0.000 N 
ATOM     24  C   UNL     1      46.932   0.979   7.573  0.00  0.00    +0.000 C 
ATOM     25  O   UNL     1      46.634  -0.135   7.982  0.00  0.00    +0.000 OA
ATOM     26  H   UNL     1      48.532   0.346   6.497  0.00  0.00    +0.000 HD
ATOM     27  H   UNL     1      48.415   2.066   6.574  0.00  0.00    +0.000 HD
ENDBRANCH  17  24
ENDBRANCH  16  21
ENDBRANCH  15  16
ENDBRANCH   1  15
TORSDOF 5
ENDMDL
MODEL 8
REMARK VINA RESULT:    -7.313      2.098      6.407
REMARK INTER + INTRA:         -10.336
REMARK INTER:                  -9.588
REMARK INTRA:                  -0.748
REMARK UNBOUND:                -0.886
REMARK  Name = 
REMARK  5 active torsions:
REMARK  status: ('A' for Active; 'I' for Inactive)
REMARK    1  A    between atoms: C_2  and  C_4
REMARK    2  A    between atoms: C_8  and  O_9
REMARK    3  A    between atoms: O_9  and  C_10
REMARK    4  A    between atoms: C_10  and  C_11
REMARK    5  A    between atoms: C_16  and  C_17
REMARK                            x       y       z     vdW  Elec       q    Type
REMARK                         _______ _______ _______ _____ _____    ______ ____
ROOT
ATOM      1  C   UNL     1      45.630   6.027  12.633  0.00  0.00    +0.000 A 
ATOM      2  C   UNL     1      46.166   5.037  13.445  0.00  0.00    +0.000 A 
ATOM      3  F   UNL     1      45.391   4.058  13.928  0.00  0.00    +0.000 F 
ATOM      4  C   UNL     1      47.517   5.065  13.738  0.00  0.00    +0.000 A 
ATOM      5  N   UNL     1      48.366   6.014  13.278  0.00  0.00    +0.000 NA
ATOM      6  C   UNL     1      47.848   6.999  12.486  0.00  0.00    +0.000 A 
ATOM      7  C   UNL     1      46.486   7.025  12.166  0.00  0.00    +0.000 A 
ATOM      8  F   UNL     1      45.968   8.004  11.407  0.00  0.00    +0.000 F 
ENDROOT
BRANCH   6   9
ATOM      9  C   UNL     1      48.813   8.013  12.011  0.00  0.00    +0.000 A 
ATOM     10  C   UNL     1      50.122   7.678  11.617  0.00  0.00    +0.000 A 
ATOM     11  C   UNL     1      51.017   8.645  11.151  0.00  0.00    +0.000 A 
ATOM     12  C   UNL     1      50.624   9.979  11.079  0.00  0.00    +0.000 A 
ATOM     13  C   UNL     1      49.342  10.341  11.476  0.00  0.00    +0.000 A 
ATOM     14  C   UNL     1      48.450   9.371  11.938  0.00  0.00    +0.000 A 
ENDBRANCH   6   9
BRANCH   1  15
ATOM     15  C   UNL     1      44.179   6.045  12.281  0.00  0.00    +0.000 C 
BRANCH  15  16
ATOM     16  O   UNL     1      44.050   6.000  10.861  0.00  0.00    +0.000 OA
BRANCH  16  21
ATOM     17  C   UNL     1      45.375   3.308   8.692  0.00  0.00    +0.000 A 
ATOM     18  C   UNL     1      44.671   2.262   9.271  0.00  0.00    +0.000 A 
ATOM     19  N   UNL     1      43.835   2.420  10.325  0.00  0.00    +0.000 NA
ATOM     20  C   UNL     1      43.686   3.682  10.797  0.00  0.00    +0.000 A 
ATOM     21  C   UNL     1      44.326   4.800  10.268  0.00  0.00    +0.000 A 
ATOM     22  C   UNL     1      45.182   4.600   9.189  0.00  0.00    +0.000 A 
BRANCH  17  24
ATOM     23  N   UNL     1      46.900   1.810   7.547  0.00  0.00    +0.000 N 
ATOM     24  C   UNL     1      46.288   3.033   7.566  0.00  0.00    +0.000 C 
ATOM     25  O   UNL     1      46.466   3.847   6.670  0.00  0.00    +0.000 OA
ATOM     26  H   UNL     1      47.436   1.590   6.717  0.00  0.00    +0.000 HD
ATOM     27  H   UNL     1      46.572   1.030   8.103  0.00  0.00    +0.000 HD
ENDBRANCH  17  24
ENDBRANCH  16  21
ENDBRANCH  15  16
ENDBRANCH   1  15
TORSDOF 5
ENDMDL
MODEL 9
REMARK VINA RESULT:    -7.009      4.262      8.544
REMARK INTER + INTRA:          -9.944
REMARK INTER:                  -9.055
REMARK INTRA:                  -0.888
REMARK UNBOUND:                -0.886
REMARK  Name = 
REMARK  5 active torsions:
REMARK  status: ('A' for Active; 'I' for Inactive)
REMARK    1  A    between atoms: C_2  and  C_4
REMARK    2  A    between atoms: C_8  and  O_9
REMARK    3  A    between atoms: O_9  and  C_10
REMARK    4  A    between atoms: C_10  and  C_11
REMARK    5  A    between atoms: C_16  and  C_17
REMARK                            x       y       z     vdW  Elec       q    Type
REMARK                         _______ _______ _______ _____ _____    ______ ____
ROOT
ATOM      1  C   UNL     1      47.497   4.917  14.839  0.00  0.00    +0.000 A 
ATOM      2  C   UNL     1      48.174   6.031  14.364  0.00  0.00    +0.000 A 
ATOM      3  F   UNL     1      48.224   6.291  13.051  0.00  0.00    +0.000 F 
ATOM      4  C   UNL     1      48.787   6.882  15.266  0.00  0.00    +0.000 A 
ATOM      5  N   UNL     1      48.772   6.692  16.606  0.00  0.00    +0.000 NA
ATOM      6  C   UNL     1      48.117   5.594  17.085  0.00  0.00    +0.000 A 
ATOM      7  C   UNL     1      47.487   4.695  16.217  0.00  0.00    +0.000 A 
ATOM      8  F   UNL     1      46.861   3.602  16.681  0.00  0.00    +0.000 F 
ENDROOT
BRANCH   6   9
ATOM      9  C   UNL     1      48.129   5.430  18.554  0.00  0.00    +0.000 A 
ATOM     10  C   UNL     1      48.890   4.433  19.193  0.00  0.00    +0.000 A 
ATOM     11  C   UNL     1      48.907   4.305  20.584  0.00  0.00    +0.000 A 
ATOM     12  C   UNL     1      48.150   5.168  21.372  0.00  0.00    +0.000 A 
ATOM     13  C   UNL     1      47.379   6.153  20.768  0.00  0.00    +0.000 A 
ATOM     14  C   UNL     1      47.366   6.281  19.377  0.00  0.00    +0.000 A 
ENDBRANCH   6   9
BRANCH   1  15
ATOM     15  C   UNL     1      46.813   3.966  13.912  0.00  0.00    +0.000 C 
BRANCH  15  16
ATOM     16  O   UNL     1      45.405   4.173  13.999  0.00  0.00    +0.000 OA
BRANCH  16  21
ATOM     17  C   UNL     1      44.485   4.554  10.433  0.00  0.00    +0.000 A 
ATOM     18  C   UNL     1      43.240   5.129  10.640  0.00  0.00    +0.000 A 
ATOM     19  N   UNL     1      42.718   5.353  11.870  0.00  0.00    +0.000 NA
ATOM     20  C   UNL     1      43.490   5.006  12.929  0.00  0.00    +0.000 A 
ATOM     21  C   UNL     1      44.762   4.450  12.826  0.00  0.00    +0.000 A 
ATOM     22  C   UNL     1      45.265   4.228  11.547  0.00  0.00    +0.000 A 
BRANCH  17  24
ATOM     23  N   UNL     1      44.378   3.286   8.370  0.00  0.00    +0.000 N 
ATOM     24  C   UNL     1      44.957   4.319   9.055  0.00  0.00    +0.000 C 
ATOM     25  O   UNL     1      45.801   5.034   8.534  0.00  0.00    +0.000 OA
ATOM     26  H   UNL     1      44.628   3.203   7.392  0.00  0.00    +0.000 HD
ATOM     27  H   UNL     1      43.506   2.863   8.659  0.00  0.00    +0.000 HD
ENDBRANCH  17  24
ENDBRANCH  16  21
ENDBRANCH  15  16
ENDBRANCH   1  15
TORSDOF 5
ENDMDL
