MODEL 1
REMARK VINA RESULT:    -7.046      0.000      0.000
REMARK INTER + INTRA:          -9.970
REMARK INTER:                  -9.105
REMARK INTRA:                  -0.865
REMARK UNBOUND:                -0.865
REMARK  Name = 
REMARK  5 active torsions:
REMARK  status: ('A' for Active; 'I' for Inactive)
REMARK    1  A    between atoms: C_2  and  C_3
REMARK    2  A    between atoms: C_5  and  C_6
REMARK    3  A    between atoms: N_10  and  C_11
REMARK    4  A    between atoms: C_11  and  C_12
REMARK    5  A    between atoms: C_16  and  C_17
REMARK                            x       y       z     vdW  Elec       q    Type
REMARK                         _______ _______ _______ _____ _____    ______ ____
ROOT
ATOM      1  C   UNL     1      44.079   5.881  11.493  0.00  0.00    +0.000 C 
ATOM      2  C   UNL     1      42.830   6.705  11.207  0.00  0.00    +0.000 C 
ATOM      3  C   UNL     1      43.050   6.153  12.576  0.00  0.00    +0.000 C 
ENDROOT
BRANCH   1   9
ATOM      4  C   UNL     1      48.520   6.973  12.989  0.00  0.00    +0.000 A 
ATOM      5  C   UNL     1      48.486   6.136  14.074  0.00  0.00    +0.000 A 
ATOM      6  C   UNL     1      47.319   5.430  14.208  0.00  0.00    +0.000 A 
ATOM      7  N   UNL     1      46.267   5.554  13.374  0.00  0.00    +0.000 NA
ATOM      8  C   UNL     1      46.393   6.395  12.342  0.00  0.00    +0.000 A 
ATOM      9  N   UNL     1      45.344   6.614  11.460  0.00  0.00    +0.000 N 
ATOM     10  N   UNL     1      47.507   7.101  12.110  0.00  0.00    +0.000 NA
ATOM     11  H   UNL     1      45.683   7.012  10.594  0.00  0.00    +0.000 HD
BRANCH   4  13
ATOM     12  N   UNL     1      50.625   8.436  12.571  0.00  0.00    +0.000 NA
ATOM     13  C   UNL     1      49.671   7.797  12.739  0.00  0.00    +0.000 C 
ENDBRANCH   4  13
BRANCH   6  14
ATOM     14  C   UNL     1      47.154   4.486  15.278  0.00  0.00    +0.000 C 
ATOM     15  N   UNL     1      47.004   3.758  16.170  0.00  0.00    +0.000 NA
ENDBRANCH   6  14
ENDBRANCH   1   9
BRANCH   1  16
ATOM     16  C   UNL     1      44.153   4.468  10.924  0.00  0.00    +0.000 A 
ATOM     17  C   UNL     1      43.474   3.407  11.544  0.00  0.00    +0.000 A 
ATOM     18  C   UNL     1      43.516   2.115  11.025  0.00  0.00    +0.000 A 
ATOM     19  C   UNL     1      44.262   1.853   9.878  0.00  0.00    +0.000 A 
ATOM     20  C   UNL     1      44.998   2.866   9.237  0.00  0.00    +0.000 A 
ATOM     21  C   UNL     1      44.907   4.168   9.773  0.00  0.00    +0.000 A 
BRANCH  20  22
ATOM     22  C   UNL     1      45.858   2.580   8.069  0.00  0.00    +0.000 A 
ATOM     23  C   UNL     1      46.550   1.372   7.938  0.00  0.00    +0.000 A 
ATOM     24  C   UNL     1      47.364   1.161   6.829  0.00  0.00    +0.000 A 
ATOM     25  C   UNL     1      47.471   2.162   5.876  0.00  0.00    +0.000 A 
ATOM     26  C   UNL     1      46.759   3.331   6.077  0.00  0.00    +0.000 A 
ATOM     27  F   UNL     1      46.870   4.306   5.161  0.00  0.00    +0.000 F 
ATOM     28  N   UNL     1      45.968   3.566   7.144  0.00  0.00    +0.000 NA
ENDBRANCH  20  22
ENDBRANCH   1  16
TORSDOF 5
ENDMDL
MODEL 2
REMARK VINA RESULT:    -6.675      2.768      4.990
REMARK INTER + INTRA:          -9.491
REMARK INTER:                  -8.848
REMARK INTRA:                  -0.643
REMARK UNBOUND:                -0.865
REMARK  Name = 
REMARK  5 active torsions:
REMARK  status: ('A' for Active; 'I' for Inactive)
REMARK    1  A    between atoms: C_2  and  C_3
REMARK    2  A    between atoms: C_5  and  C_6
REMARK    3  A    between atoms: N_10  and  C_11
REMARK    4  A    between atoms: C_11  and  C_12
REMARK    5  A    between atoms: C_16  and  C_17
REMARK                            x       y       z     vdW  Elec       q    Type
REMARK                         _______ _______ _______ _____ _____    ______ ____
ROOT
ATOM      1  C   UNL     1      48.847   7.842  12.678  0.00  0.00    +0.000 C 
ATOM      2  C   UNL     1      49.867   8.256  11.625  0.00  0.00    +0.000 C 
ATOM      3  C   UNL     1      49.400   9.256  12.631  0.00  0.00    +0.000 C 
ENDROOT
BRANCH   1   9
ATOM      4  C   UNL     1      49.568   6.213  17.149  0.00  0.00    +0.000 A 
ATOM      5  C   UNL     1      49.092   7.343  17.761  0.00  0.00    +0.000 A 
ATOM      6  C   UNL     1      48.657   8.315  16.898  0.00  0.00    +0.000 A 
ATOM      7  N   UNL     1      48.711   8.205  15.556  0.00  0.00    +0.000 NA
ATOM      8  C   UNL     1      49.190   7.065  15.049  0.00  0.00    +0.000 A 
ATOM      9  N   UNL     1      49.320   6.886  13.678  0.00  0.00    +0.000 N 
ATOM     10  N   UNL     1      49.606   6.047  15.812  0.00  0.00    +0.000 NA
ATOM     11  H   UNL     1      49.393   5.902  13.452  0.00  0.00    +0.000 HD
BRANCH   4  13
ATOM     12  N   UNL     1      50.477   4.207  18.526  0.00  0.00    +0.000 NA
ATOM     13  C   UNL     1      50.083   5.121  17.928  0.00  0.00    +0.000 C 
ENDBRANCH   4  13
BRANCH   6  14
ATOM     14  C   UNL     1      48.098   9.539  17.399  0.00  0.00    +0.000 C 
ATOM     15  N   UNL     1      47.678  10.529  17.838  0.00  0.00    +0.000 NA
ENDBRANCH   6  14
ENDBRANCH   1   9
BRANCH   1  16
ATOM     16  C   UNL     1      47.403   7.631  12.235  0.00  0.00    +0.000 A 
ATOM     17  C   UNL     1      46.396   8.534  12.611  0.00  0.00    +0.000 A 
ATOM     18  C   UNL     1      45.077   8.364  12.197  0.00  0.00    +0.000 A 
ATOM     19  C   UNL     1      44.732   7.267  11.412  0.00  0.00    +0.000 A 
ATOM     20  C   UNL     1      45.689   6.305  11.040  0.00  0.00    +0.000 A 
ATOM     21  C   UNL     1      47.020   6.526  11.450  0.00  0.00    +0.000 A 
BRANCH  20  22
ATOM     22  C   UNL     1      45.316   5.095  10.276  0.00  0.00    +0.000 A 
ATOM     23  C   UNL     1      44.599   4.045  10.858  0.00  0.00    +0.000 A 
ATOM     24  C   UNL     1      44.292   2.917  10.102  0.00  0.00    +0.000 A 
ATOM     25  C   UNL     1      44.709   2.863   8.781  0.00  0.00    +0.000 A 
ATOM     26  C   UNL     1      45.417   3.939   8.277  0.00  0.00    +0.000 A 
ATOM     27  F   UNL     1      45.831   3.884   7.001  0.00  0.00    +0.000 F 
ATOM     28  N   UNL     1      45.734   5.041   8.987  0.00  0.00    +0.000 NA
ENDBRANCH  20  22
ENDBRANCH   1  16
TORSDOF 5
ENDMDL
MODEL 3
REMARK VINA RESULT:    -6.392      2.391      4.547
REMARK INTER + INTRA:          -9.126
REMARK INTER:                  -9.037
REMARK INTRA:                  -0.089
REMARK UNBOUND:                -0.865
REMARK  Name = 
REMARK  5 active torsions:
REMARK  status: ('A' for Active; 'I' for Inactive)
REMARK    1  A    between atoms: C_2  and  C_3
REMARK    2  A    between atoms: C_5  and  C_6
REMARK    3  A    between atoms: N_10  and  C_11
REMARK    4  A    between atoms: C_11  and  C_12
REMARK    5  A    between atoms: C_16  and  C_17
REMARK                            x       y       z     vdW  Elec       q    Type
REMARK                         _______ _______ _______ _____ _____    ______ ____
ROOT
ATOM      1  C   UNL     1      48.628   8.101  12.680  0.00  0.00    +0.000 C 
ATOM      2  C   UNL     1      49.771   7.304  12.065  0.00  0.00    +0.000 C 
ATOM      3  C   UNL     1      49.559   8.724  11.655  0.00  0.00    +0.000 C 
ENDROOT
BRANCH   1   9
ATOM      4  C   UNL     1      48.757   7.056  17.376  0.00  0.00    +0.000 A 
ATOM      5  C   UNL     1      48.415   5.739  17.210  0.00  0.00    +0.000 A 
ATOM      6  C   UNL     1      48.229   5.362  15.906  0.00  0.00    +0.000 A 
ATOM      7  N   UNL     1      48.336   6.204  14.859  0.00  0.00    +0.000 NA
ATOM      8  C   UNL     1      48.675   7.471  15.117  0.00  0.00    +0.000 A 
ATOM      9  N   UNL     1      48.766   8.413  14.102  0.00  0.00    +0.000 N 
ATOM     10  N   UNL     1      48.911   7.923  16.355  0.00  0.00    +0.000 NA
ATOM     11  H   UNL     1      49.316   9.208  14.401  0.00  0.00    +0.000 HD
BRANCH   4  13
ATOM     12  N   UNL     1      49.070   8.047  19.756  0.00  0.00    +0.000 NA
ATOM     13  C   UNL     1      48.957   7.599  18.691  0.00  0.00    +0.000 C 
ENDBRANCH   4  13
BRANCH   6  14
ATOM     14  C   UNL     1      47.903   4.002  15.578  0.00  0.00    +0.000 C 
ATOM     15  N   UNL     1      47.664   2.888  15.352  0.00  0.00    +0.000 NA
ENDBRANCH   6  14
ENDBRANCH   1   9
BRANCH   1  16
ATOM     16  C   UNL     1      47.205   7.775  12.240  0.00  0.00    +0.000 A 
ATOM     17  C   UNL     1      46.129   8.593  12.619  0.00  0.00    +0.000 A 
ATOM     18  C   UNL     1      44.827   8.318  12.207  0.00  0.00    +0.000 A 
ATOM     19  C   UNL     1      44.571   7.198  11.420  0.00  0.00    +0.000 A 
ATOM     20  C   UNL     1      45.601   6.317  11.044  0.00  0.00    +0.000 A 
ATOM     21  C   UNL     1      46.911   6.644  11.452  0.00  0.00    +0.000 A 
BRANCH  20  22
ATOM     22  C   UNL     1      45.325   5.083  10.280  0.00  0.00    +0.000 A 
ATOM     23  C   UNL     1      44.699   3.976  10.861  0.00  0.00    +0.000 A 
ATOM     24  C   UNL     1      44.482   2.829  10.104  0.00  0.00    +0.000 A 
ATOM     25  C   UNL     1      44.898   2.811   8.781  0.00  0.00    +0.000 A 
ATOM     26  C   UNL     1      45.514   3.943   8.277  0.00  0.00    +0.000 A 
ATOM     27  F   UNL     1      45.927   3.924   7.000  0.00  0.00    +0.000 F 
ATOM     28  N   UNL     1      45.743   5.065   8.989  0.00  0.00    +0.000 NA
ENDBRANCH  20  22
ENDBRANCH   1  16
TORSDOF 5
ENDMDL
MODEL 4
REMARK VINA RESULT:    -6.212      3.235      6.654
REMARK INTER + INTRA:          -8.892
REMARK INTER:                  -8.216
REMARK INTRA:                  -0.676
REMARK UNBOUND:                -0.865
REMARK  Name = 
REMARK  5 active torsions:
REMARK  status: ('A' for Active; 'I' for Inactive)
REMARK    1  A    between atoms: C_2  and  C_3
REMARK    2  A    between atoms: C_5  and  C_6
REMARK    3  A    between atoms: N_10  and  C_11
REMARK    4  A    between atoms: C_11  and  C_12
REMARK    5  A    between atoms: C_16  and  C_17
REMARK                            x       y       z     vdW  Elec       q    Type
REMARK                         _______ _______ _______ _____ _____    ______ ____
ROOT
ATOM      1  C   UNL     1      49.850   7.751  16.080  0.00  0.00    +0.000 C 
ATOM      2  C   UNL     1      49.985   9.156  16.653  0.00  0.00    +0.000 C 
ATOM      3  C   UNL     1      48.792   8.329  17.003  0.00  0.00    +0.000 C 
ENDROOT
BRANCH   1   9
ATOM      4  C   UNL     1      51.239   3.435  17.695  0.00  0.00    +0.000 A 
ATOM      5  C   UNL     1      49.971   2.917  17.745  0.00  0.00    +0.000 A 
ATOM      6  C   UNL     1      48.989   3.781  17.335  0.00  0.00    +0.000 A 
ATOM      7  N   UNL     1      49.223   5.048  16.940  0.00  0.00    +0.000 NA
ATOM      8  C   UNL     1      50.492   5.466  16.923  0.00  0.00    +0.000 A 
ATOM      9  N   UNL     1      50.816   6.769  16.572  0.00  0.00    +0.000 N 
ATOM     10  N   UNL     1      51.521   4.684  17.273  0.00  0.00    +0.000 NA
ATOM     11  H   UNL     1      51.792   6.836  16.310  0.00  0.00    +0.000 HD
BRANCH   4  13
ATOM     12  N   UNL     1      53.267   2.034  18.512  0.00  0.00    +0.000 NA
ATOM     13  C   UNL     1      52.365   2.652  18.121  0.00  0.00    +0.000 C 
ENDBRANCH   4  13
BRANCH   6  14
ATOM     14  C   UNL     1      47.616   3.363  17.299  0.00  0.00    +0.000 C 
ATOM     15  N   UNL     1      46.512   3.001  17.311  0.00  0.00    +0.000 NA
ENDBRANCH   6  14
ENDBRANCH   1   9
BRANCH   1  16
ATOM     16  C   UNL     1      49.501   7.608  14.603  0.00  0.00    +0.000 A 
ATOM     17  C   UNL     1      50.312   8.185  13.613  0.00  0.00    +0.000 A 
ATOM     18  C   UNL     1      50.017   8.045  12.259  0.00  0.00    +0.000 A 
ATOM     19  C   UNL     1      48.882   7.339  11.866  0.00  0.00    +0.000 A 
ATOM     20  C   UNL     1      48.008   6.775  12.812  0.00  0.00    +0.000 A 
ATOM     21  C   UNL     1      48.355   6.909  14.173  0.00  0.00    +0.000 A 
BRANCH  20  22
ATOM     22  C   UNL     1      46.759   6.096  12.407  0.00  0.00    +0.000 A 
ATOM     23  C   UNL     1      45.897   5.512  13.340  0.00  0.00    +0.000 A 
ATOM     24  C   UNL     1      44.745   4.865  12.904  0.00  0.00    +0.000 A 
ATOM     25  C   UNL     1      44.479   4.812  11.545  0.00  0.00    +0.000 A 
ATOM     26  C   UNL     1      45.381   5.409  10.682  0.00  0.00    +0.000 A 
ATOM     27  F   UNL     1      45.132   5.350   9.364  0.00  0.00    +0.000 F 
ATOM     28  N   UNL     1      46.508   6.038  11.075  0.00  0.00    +0.000 NA
ENDBRANCH  20  22
ENDBRANCH   1  16
TORSDOF 5
ENDMDL
MODEL 5
REMARK VINA RESULT:    -6.200      4.549      8.137
REMARK INTER + INTRA:          -8.877
REMARK INTER:                  -8.395
REMARK INTRA:                  -0.482
REMARK UNBOUND:                -0.865
REMARK  Name = 
REMARK  5 active torsions:
REMARK  status: ('A' for Active; 'I' for Inactive)
REMARK    1  A    between atoms: C_2  and  C_3
REMARK    2  A    between atoms: C_5  and  C_6
REMARK    3  A    between atoms: N_10  and  C_11
REMARK    4  A    between atoms: C_11  and  C_12
REMARK    5  A    between atoms: C_16  and  C_17
REMARK                            x       y       z     vdW  Elec       q    Type
REMARK                         _______ _______ _______ _____ _____    ______ ____
ROOT
ATOM      1  C   UNL     1      48.577   8.289  12.571  0.00  0.00    +0.000 C 
ATOM      2  C   UNL     1      49.276   9.334  11.709  0.00  0.00    +0.000 C 
ATOM      3  C   UNL     1      49.714   7.908  11.639  0.00  0.00    +0.000 C 
ENDROOT
BRANCH   1   9
ATOM      4  C   UNL     1      44.539   5.671  12.559  0.00  0.00    +0.000 A 
ATOM      5  C   UNL     1      45.089   4.609  13.230  0.00  0.00    +0.000 A 
ATOM      6  C   UNL     1      46.404   4.776  13.575  0.00  0.00    +0.000 A 
ATOM      7  N   UNL     1      47.127   5.870  13.265  0.00  0.00    +0.000 NA
ATOM      8  C   UNL     1      46.507   6.857  12.610  0.00  0.00    +0.000 A 
ATOM      9  N   UNL     1      47.189   7.999  12.215  0.00  0.00    +0.000 N 
ATOM     10  N   UNL     1      45.216   6.799  12.262  0.00  0.00    +0.000 NA
ATOM     11  H   UNL     1      46.541   8.753  12.023  0.00  0.00    +0.000 HD
BRANCH   4  13
ATOM     12  N   UNL     1      42.081   5.630  11.721  0.00  0.00    +0.000 NA
ATOM     13  C   UNL     1      43.175   5.626  12.111  0.00  0.00    +0.000 C 
ENDBRANCH   4  13
BRANCH   6  14
ATOM     14  C   UNL     1      47.101   3.760  14.313  0.00  0.00    +0.000 C 
ATOM     15  N   UNL     1      47.683   2.973  14.938  0.00  0.00    +0.000 NA
ENDBRANCH   6  14
ENDBRANCH   1   9
BRANCH   1  16
ATOM     16  C   UNL     1      48.858   8.290  14.069  0.00  0.00    +0.000 A 
ATOM     17  C   UNL     1      48.453   9.365  14.877  0.00  0.00    +0.000 A 
ATOM     18  C   UNL     1      48.684   9.369  16.250  0.00  0.00    +0.000 A 
ATOM     19  C   UNL     1      49.352   8.301  16.844  0.00  0.00    +0.000 A 
ATOM     20  C   UNL     1      49.821   7.217  16.081  0.00  0.00    +0.000 A 
ATOM     21  C   UNL     1      49.541   7.231  14.699  0.00  0.00    +0.000 A 
BRANCH  20  22
ATOM     22  C   UNL     1      50.603   6.120  16.691  0.00  0.00    +0.000 A 
ATOM     23  C   UNL     1      51.978   6.230  16.922  0.00  0.00    +0.000 A 
ATOM     24  C   UNL     1      52.671   5.160  17.478  0.00  0.00    +0.000 A 
ATOM     25  C   UNL     1      51.978   4.001  17.789  0.00  0.00    +0.000 A 
ATOM     26  C   UNL     1      50.619   3.965  17.528  0.00  0.00    +0.000 A 
ATOM     27  F   UNL     1      49.947   2.840  17.819  0.00  0.00    +0.000 F 
ATOM     28  N   UNL     1      49.922   4.984  16.985  0.00  0.00    +0.000 NA
ENDBRANCH  20  22
ENDBRANCH   1  16
TORSDOF 5
ENDMDL
MODEL 6
REMARK VINA RESULT:    -5.558      2.458      5.322
REMARK INTER + INTRA:          -8.048
REMARK INTER:                  -8.041
REMARK INTRA:                  -0.007
REMARK UNBOUND:                -0.865
REMARK  Name = 
REMARK  5 active torsions:
REMARK  status: ('A' for Active; 'I' for Inactive)
REMARK    1  A    between atoms: C_2  and  C_3
REMARK    2  A    between atoms: C_5  and  C_6
REMARK    3  A    between atoms: N_10  and  C_11
REMARK    4  A    between atoms: C_11  and  C_12
REMARK    5  A    between atoms: C_16  and  C_17
REMARK                            x       y       z     vdW  Elec       q    Type
REMARK                         _______ _______ _______ _____ _____    ______ ____
ROOT
ATOM      1  C   UNL     1      48.539   7.243  13.592  0.00  0.00    +0.000 C 
ATOM      2  C   UNL     1      48.625   8.099  14.850  0.00  0.00    +0.000 C 
ATOM      3  C   UNL     1      48.508   6.615  14.974  0.00  0.00    +0.000 C 
ENDROOT
BRANCH   1   9
ATOM      4  C   UNL     1      51.885   9.058  10.646  0.00  0.00    +0.000 A 
ATOM      5  C   UNL     1      51.259  10.268  10.493  0.00  0.00    +0.000 A 
ATOM      6  C   UNL     1      50.090  10.395  11.197  0.00  0.00    +0.000 A 
ATOM      7  N   UNL     1      49.563   9.415  11.957  0.00  0.00    +0.000 NA
ATOM      8  C   UNL     1      50.244   8.268  12.048  0.00  0.00    +0.000 A 
ATOM      9  N   UNL     1      49.751   7.194  12.774  0.00  0.00    +0.000 N 
ATOM     10  N   UNL     1      51.412   8.065  11.425  0.00  0.00    +0.000 NA
ATOM     11  H   UNL     1      50.494   6.545  13.000  0.00  0.00    +0.000 HD
BRANCH   4  13
ATOM     12  N   UNL     1      54.086   8.584   9.352  0.00  0.00    +0.000 NA
ATOM     13  C   UNL     1      53.107   8.773   9.946  0.00  0.00    +0.000 C 
ENDBRANCH   4  13
BRANCH   6  14
ATOM     14  C   UNL     1      49.345  11.622  11.161  0.00  0.00    +0.000 C 
ATOM     15  N   UNL     1      48.703  12.589  11.126  0.00  0.00    +0.000 NA
ENDBRANCH   6  14
ENDBRANCH   1   9
BRANCH   1  16
ATOM     16  C   UNL     1      47.240   7.267  12.794  0.00  0.00    +0.000 A 
ATOM     17  C   UNL     1      46.345   8.343  12.909  0.00  0.00    +0.000 A 
ATOM     18  C   UNL     1      45.165   8.388  12.171  0.00  0.00    +0.000 A 
ATOM     19  C   UNL     1      44.843   7.338  11.314  0.00  0.00    +0.000 A 
ATOM     20  C   UNL     1      45.678   6.214  11.189  0.00  0.00    +0.000 A 
ATOM     21  C   UNL     1      46.880   6.217  11.927  0.00  0.00    +0.000 A 
BRANCH  20  22
ATOM     22  C   UNL     1      45.303   5.059  10.345  0.00  0.00    +0.000 A 
ATOM     23  C   UNL     1      44.510   4.015  10.830  0.00  0.00    +0.000 A 
ATOM     24  C   UNL     1      44.204   2.940  10.001  0.00  0.00    +0.000 A 
ATOM     25  C   UNL     1      44.699   2.929   8.707  0.00  0.00    +0.000 A 
ATOM     26  C   UNL     1      45.480   3.997   8.300  0.00  0.00    +0.000 A 
ATOM     27  F   UNL     1      45.969   3.984   7.050  0.00  0.00    +0.000 F 
ATOM     28  N   UNL     1      45.798   5.048   9.082  0.00  0.00    +0.000 NA
ENDBRANCH  20  22
ENDBRANCH   1  16
TORSDOF 5
ENDMDL
MODEL 7
REMARK VINA RESULT:    -5.539      5.016      9.185
REMARK INTER + INTRA:          -8.023
REMARK INTER:                  -7.624
REMARK INTRA:                  -0.399
REMARK UNBOUND:                -0.865
REMARK  Name = 
REMARK  5 active torsions:
REMARK  status: ('A' for Active; 'I' for Inactive)
REMARK    1  A    between atoms: C_2  and  C_3
REMARK    2  A    between atoms: C_5  and  C_6
REMARK    3  A    between atoms: N_10  and  C_11
REMARK    4  A    between atoms: C_11  and  C_12
REMARK    5  A    between atoms: C_16  and  C_17
REMARK                            x       y       z     vdW  Elec       q    Type
REMARK                         _______ _______ _______ _____ _____    ______ ____
ROOT
ATOM      1  C   UNL     1      48.559   8.539  12.888  0.00  0.00    +0.000 C 
ATOM      2  C   UNL     1      49.515   8.953  11.777  0.00  0.00    +0.000 C 
ATOM      3  C   UNL     1      49.727   7.657  12.487  0.00  0.00    +0.000 C 
ENDROOT
BRANCH   1   9
ATOM      4  C   UNL     1      44.614   5.794  12.629  0.00  0.00    +0.000 A 
ATOM      5  C   UNL     1      45.171   4.730  13.290  0.00  0.00    +0.000 A 
ATOM      6  C   UNL     1      46.465   4.929  13.695  0.00  0.00    +0.000 A 
ATOM      7  N   UNL     1      47.163   6.055  13.449  0.00  0.00    +0.000 NA
ATOM      8  C   UNL     1      46.537   7.040  12.798  0.00  0.00    +0.000 A 
ATOM      9  N   UNL     1      47.196   8.216  12.466  0.00  0.00    +0.000 N 
ATOM     10  N   UNL     1      45.264   6.951  12.393  0.00  0.00    +0.000 NA
ATOM     11  H   UNL     1      46.533   8.953  12.269  0.00  0.00    +0.000 HD
BRANCH   4  13
ATOM     12  N   UNL     1      42.176   5.698  11.739  0.00  0.00    +0.000 NA
ATOM     13  C   UNL     1      43.272   5.718  12.121  0.00  0.00    +0.000 C 
ENDBRANCH   4  13
BRANCH   6  14
ATOM     14  C   UNL     1      47.164   3.913  14.433  0.00  0.00    +0.000 C 
ATOM     15  N   UNL     1      47.713   3.060  14.997  0.00  0.00    +0.000 NA
ENDBRANCH   6  14
ENDBRANCH   1   9
BRANCH   1  16
ATOM     16  C   UNL     1      48.648   9.272  14.223  0.00  0.00    +0.000 A 
ATOM     17  C   UNL     1      49.050  10.616  14.280  0.00  0.00    +0.000 A 
ATOM     18  C   UNL     1      49.117  11.304  15.489  0.00  0.00    +0.000 A 
ATOM     19  C   UNL     1      48.803  10.648  16.678  0.00  0.00    +0.000 A 
ATOM     20  C   UNL     1      48.436   9.291  16.689  0.00  0.00    +0.000 A 
ATOM     21  C   UNL     1      48.348   8.635  15.443  0.00  0.00    +0.000 A 
BRANCH  20  22
ATOM     22  C   UNL     1      48.182   8.566  17.952  0.00  0.00    +0.000 A 
ATOM     23  C   UNL     1      48.489   7.211  18.103  0.00  0.00    +0.000 A 
ATOM     24  C   UNL     1      48.210   6.570  19.306  0.00  0.00    +0.000 A 
ATOM     25  C   UNL     1      47.626   7.297  20.332  0.00  0.00    +0.000 A 
ATOM     26  C   UNL     1      47.347   8.633  20.107  0.00  0.00    +0.000 A 
ATOM     27  F   UNL     1      46.772   9.336  21.096  0.00  0.00    +0.000 F 
ATOM     28  N   UNL     1      47.601   9.278  18.950  0.00  0.00    +0.000 NA
ENDBRANCH  20  22
ENDBRANCH   1  16
TORSDOF 5
ENDMDL
MODEL 8
REMARK VINA RESULT:    -5.526      4.282      8.080
REMARK INTER + INTRA:          -8.005
REMARK INTER:                  -7.136
REMARK INTRA:                  -0.869
REMARK UNBOUND:                -0.865
REMARK  Name = 
REMARK  5 active torsions:
REMARK  status: ('A' for Active; 'I' for Inactive)
REMARK    1  A    between atoms: C_2  and  C_3
REMARK    2  A    between atoms: C_5  and  C_6
REMARK    3  A    between atoms: N_10  and  C_11
REMARK    4  A    between atoms: C_11  and  C_12
REMARK    5  A    between atoms: C_16  and  C_17
REMARK                            x       y       z     vdW  Elec       q    Type
REMARK                         _______ _______ _______ _____ _____    ______ ____
ROOT
ATOM      1  C   UNL     1      48.964   8.798  13.221  0.00  0.00    +0.000 C 
ATOM      2  C   UNL     1      50.294   9.358  12.729  0.00  0.00    +0.000 C 
ATOM      3  C   UNL     1      49.909   7.958  12.379  0.00  0.00    +0.000 C 
ENDROOT
BRANCH   1   9
ATOM      4  C   UNL     1      44.510   8.739  11.399  0.00  0.00    +0.000 A 
ATOM      5  C   UNL     1      44.388   7.374  11.438  0.00  0.00    +0.000 A 
ATOM      6  C   UNL     1      45.482   6.721  11.945  0.00  0.00    +0.000 A 
ATOM      7  N   UNL     1      46.606   7.345  12.349  0.00  0.00    +0.000 NA
ATOM      8  C   UNL     1      46.633   8.679  12.275  0.00  0.00    +0.000 A 
ATOM      9  N   UNL     1      47.767   9.396  12.631  0.00  0.00    +0.000 N 
ATOM     10  N   UNL     1      45.601   9.404  11.827  0.00  0.00    +0.000 NA
ATOM     11  H   UNL     1      47.534  10.364  12.815  0.00  0.00    +0.000 HD
BRANCH   4  13
ATOM     12  N   UNL     1      42.627  10.250  10.442  0.00  0.00    +0.000 NA
ATOM     13  C   UNL     1      43.453   9.552  10.866  0.00  0.00    +0.000 C 
ENDBRANCH   4  13
BRANCH   6  14
ATOM     14  C   UNL     1      45.482   5.292  12.079  0.00  0.00    +0.000 C 
ATOM     15  N   UNL     1      45.439   4.138  12.209  0.00  0.00    +0.000 NA
ENDBRANCH   6  14
ENDBRANCH   1   9
BRANCH   1  16
ATOM     16  C   UNL     1      48.834   8.452  14.700  0.00  0.00    +0.000 A 
ATOM     17  C   UNL     1      48.589   9.452  15.654  0.00  0.00    +0.000 A 
ATOM     18  C   UNL     1      48.447   9.148  17.006  0.00  0.00    +0.000 A 
ATOM     19  C   UNL     1      48.571   7.829  17.436  0.00  0.00    +0.000 A 
ATOM     20  C   UNL     1      48.859   6.789  16.533  0.00  0.00    +0.000 A 
ATOM     21  C   UNL     1      48.964   7.130  15.169  0.00  0.00    +0.000 A 
BRANCH  20  22
ATOM     22  C   UNL     1      49.074   5.401  16.992  0.00  0.00    +0.000 A 
ATOM     23  C   UNL     1      50.340   4.927  17.352  0.00  0.00    +0.000 A 
ATOM     24  C   UNL     1      50.492   3.604  17.756  0.00  0.00    +0.000 A 
ATOM     25  C   UNL     1      49.376   2.782  17.791  0.00  0.00    +0.000 A 
ATOM     26  C   UNL     1      48.158   3.321  17.417  0.00  0.00    +0.000 A 
ATOM     27  F   UNL     1      47.079   2.523  17.440  0.00  0.00    +0.000 F 
ATOM     28  N   UNL     1      47.982   4.596  17.016  0.00  0.00    +0.000 NA
ENDBRANCH  20  22
ENDBRANCH   1  16
TORSDOF 5
ENDMDL
MODEL 9
REMARK VINA RESULT:    -5.214      4.280      7.025
REMARK INTER + INTRA:          -7.602
REMARK INTER:                  -7.832
REMARK INTRA:                   0.229
REMARK UNBOUND:                -0.865
REMARK  Name = 
REMARK  5 active torsions:
REMARK  status: ('A' for Active; 'I' for Inactive)
REMARK    1  A    between atoms: C_2  and  C_3
REMARK    2  A    between atoms: C_5  and  C_6
REMARK    3  A    between atoms: N_10  and  C_11
REMARK    4  A    between atoms: C_11  and  C_12
REMARK    5  A    between atoms: C_16  and  C_17
REMARK                            x       y       z     vdW  Elec       q    Type
REMARK                         _______ _______ _______ _____ _____    ______ ____
ROOT
ATOM      1  C   UNL     1      47.999   3.846  17.010  0.00  0.00    +0.000 C 
ATOM      2  C   UNL     1      47.885   4.551  18.356  0.00  0.00    +0.000 C 
ATOM      3  C   UNL     1      46.792   3.636  17.909  0.00  0.00    +0.000 C 
ENDROOT
BRANCH   1   9
ATOM      4  C   UNL     1      52.426   2.076  17.662  0.00  0.00    +0.000 A 
ATOM      5  C   UNL     1      52.942   3.239  18.172  0.00  0.00    +0.000 A 
ATOM      6  C   UNL     1      52.038   4.265  18.266  0.00  0.00    +0.000 A 
ATOM      7  N   UNL     1      50.754   4.173  17.869  0.00  0.00    +0.000 NA
ATOM      8  C   UNL     1      50.340   2.998  17.385  0.00  0.00    +0.000 A 
ATOM      9  N   UNL     1      49.045   2.829  16.914  0.00  0.00    +0.000 N 
ATOM     10  N   UNL     1      51.140   1.929  17.287  0.00  0.00    +0.000 NA
ATOM     11  H   UNL     1      48.803   1.847  16.880  0.00  0.00    +0.000 HD
BRANCH   4  13
ATOM     12  N   UNL     1      53.944  -0.013  17.383  0.00  0.00    +0.000 NA
ATOM     13  C   UNL     1      53.265   0.923  17.480  0.00  0.00    +0.000 C 
ENDBRANCH   4  13
BRANCH   6  14
ATOM     14  C   UNL     1      52.428   5.533  18.817  0.00  0.00    +0.000 C 
ATOM     15  N   UNL     1      52.762   6.536  19.299  0.00  0.00    +0.000 NA
ENDBRANCH   6  14
ENDBRANCH   1   9
BRANCH   1  16
ATOM     16  C   UNL     1      47.805   4.675  15.746  0.00  0.00    +0.000 A 
ATOM     17  C   UNL     1      48.505   5.879  15.561  0.00  0.00    +0.000 A 
ATOM     18  C   UNL     1      48.354   6.636  14.402  0.00  0.00    +0.000 A 
ATOM     19  C   UNL     1      47.476   6.213  13.407  0.00  0.00    +0.000 A 
ATOM     20  C   UNL     1      46.715   5.040  13.554  0.00  0.00    +0.000 A 
ATOM     21  C   UNL     1      46.917   4.282  14.725  0.00  0.00    +0.000 A 
BRANCH  20  22
ATOM     22  C   UNL     1      45.721   4.628  12.540  0.00  0.00    +0.000 A 
ATOM     23  C   UNL     1      45.562   5.320  11.335  0.00  0.00    +0.000 A 
ATOM     24  C   UNL     1      44.596   4.905  10.424  0.00  0.00    +0.000 A 
ATOM     25  C   UNL     1      43.807   3.809  10.737  0.00  0.00    +0.000 A 
ATOM     26  C   UNL     1      44.020   3.177  11.950  0.00  0.00    +0.000 A 
ATOM     27  F   UNL     1      43.251   2.122  12.259  0.00  0.00    +0.000 F 
ATOM     28  N   UNL     1      44.945   3.561  12.854  0.00  0.00    +0.000 NA
ENDBRANCH  20  22
ENDBRANCH   1  16
TORSDOF 5
ENDMDL
