MODEL 1
REMARK VINA RESULT:    -7.496      0.000      0.000
REMARK INTER + INTRA:         -10.762
REMARK INTER:                 -10.126
REMARK INTRA:                  -0.636
REMARK UNBOUND:                -0.636
REMARK  Name = 
REMARK  7 active torsions:
REMARK  status: ('A' for Active; 'I' for Inactive)
REMARK    1  A    between atoms: C_1  and  C_2
REMARK    2  A    between atoms: C_5  and  C_6
REMARK    3  A    between atoms: C_6  and  O_7
REMARK    4  A    between atoms: O_7  and  C_8
REMARK    5  A    between atoms: C_12  and  O_13
REMARK    6  A    between atoms: O_13  and  C_14
REMARK    7  A    between atoms: C_20  and  C_21
REMARK                            x       y       z     vdW  Elec       q    Type
REMARK                         _______ _______ _______ _____ _____    ______ ____
ROOT
ATOM      1  C   UNL     1      44.484   5.121   9.526  0.00  0.00    +0.000 C 
ENDROOT
BRANCH   1   6
ATOM      2  C   UNL     1      46.716   0.185   7.502  0.00  0.00    +0.000 C 
ATOM      3  C   UNL     1      46.184   1.509   7.959  0.00  0.00    +0.000 A 
ATOM      4  C   UNL     1      45.317   1.558   9.046  0.00  0.00    +0.000 A 
ATOM      5  N   UNL     1      44.760   2.688   9.538  0.00  0.00    +0.000 NA
ATOM      6  C   UNL     1      45.073   3.857   8.934  0.00  0.00    +0.000 A 
ATOM      7  C   UNL     1      45.952   3.915   7.856  0.00  0.00    +0.000 A 
ATOM      8  C   UNL     1      46.500   2.731   7.347  0.00  0.00    +0.000 A 
BRANCH   8   9
ATOM      9  C   UNL     1      47.437   2.803   6.184  0.00  0.00    +0.000 C 
ATOM     10  N   UNL     1      48.776   2.778   6.453  0.00  0.00    +0.000 N 
ATOM     11  O   UNL     1      47.046   2.894   5.028  0.00  0.00    +0.000 OA
ATOM     12  H   UNL     1      49.166   2.881   7.377  0.00  0.00    +0.000 HD
ATOM     13  H   UNL     1      49.396   2.905   5.662  0.00  0.00    +0.000 HD
ENDBRANCH   8   9
ENDBRANCH   1   6
BRANCH   1  14
ATOM     14  O   UNL     1      44.314   4.955  10.935  0.00  0.00    +0.000 OA
BRANCH  14  15
ATOM     15  C   UNL     1      45.373   5.295  11.726  0.00  0.00    +0.000 A 
ATOM     16  C   UNL     1      46.368   6.217  11.406  0.00  0.00    +0.000 A 
ATOM     17  C   UNL     1      47.373   6.505  12.335  0.00  0.00    +0.000 A 
ATOM     18  C   UNL     1      47.394   5.870  13.581  0.00  0.00    +0.000 A 
ATOM     19  C   UNL     1      46.400   4.947  13.897  0.00  0.00    +0.000 A 
ATOM     20  C   UNL     1      45.386   4.679  12.977  0.00  0.00    +0.000 A 
BRANCH  19  21
ATOM     21  O   UNL     1      46.297   4.277  15.089  0.00  0.00    +0.000 OA
BRANCH  21  22
ATOM     22  C   UNL     1      47.449   4.220  15.958  0.00  0.00    +0.000 C 
ATOM     23  C   UNL     1      48.154   2.870  16.148  0.00  0.00    +0.000 C 
ATOM     24  O   UNL     1      47.975   2.918  17.582  0.00  0.00    +0.000 OA
ATOM     25  C   UNL     1      47.123   4.079  17.453  0.00  0.00    +0.000 C 
ENDBRANCH  21  22
ENDBRANCH  19  21
ENDBRANCH  14  15
ENDBRANCH   1  14
TORSDOF 6
ENDMDL
MODEL 2
REMARK VINA RESULT:    -6.785      2.896      7.949
REMARK INTER + INTRA:          -9.800
REMARK INTER:                  -9.189
REMARK INTRA:                  -0.611
REMARK UNBOUND:                -0.636
REMARK  Name = 
REMARK  7 active torsions:
REMARK  status: ('A' for Active; 'I' for Inactive)
REMARK    1  A    between atoms: C_1  and  C_2
REMARK    2  A    between atoms: C_5  and  C_6
REMARK    3  A    between atoms: C_6  and  O_7
REMARK    4  A    between atoms: O_7  and  C_8
REMARK    5  A    between atoms: C_12  and  O_13
REMARK    6  A    between atoms: O_13  and  C_14
REMARK    7  A    between atoms: C_20  and  C_21
REMARK                            x       y       z     vdW  Elec       q    Type
REMARK                         _______ _______ _______ _____ _____    ______ ____
ROOT
ATOM      1  C   UNL     1      47.263   6.525  12.749  0.00  0.00    +0.000 C 
ENDROOT
BRANCH   1   6
ATOM      2  C   UNL     1      49.196   5.471  18.097  0.00  0.00    +0.000 C 
ATOM      3  C   UNL     1      48.654   5.660  16.713  0.00  0.00    +0.000 A 
ATOM      4  C   UNL     1      48.920   6.844  16.031  0.00  0.00    +0.000 A 
ATOM      5  N   UNL     1      48.472   7.136  14.789  0.00  0.00    +0.000 NA
ATOM      6  C   UNL     1      47.716   6.208  14.160  0.00  0.00    +0.000 A 
ATOM      7  C   UNL     1      47.417   4.982  14.747  0.00  0.00    +0.000 A 
ATOM      8  C   UNL     1      47.871   4.708  16.044  0.00  0.00    +0.000 A 
BRANCH   8   9
ATOM      9  C   UNL     1      47.538   3.391  16.669  0.00  0.00    +0.000 C 
ATOM     10  N   UNL     1      48.419   2.364  16.479  0.00  0.00    +0.000 N 
ATOM     11  O   UNL     1      46.518   3.210  17.320  0.00  0.00    +0.000 OA
ATOM     12  H   UNL     1      49.180   2.391  15.818  0.00  0.00    +0.000 HD
ATOM     13  H   UNL     1      48.142   1.461  16.844  0.00  0.00    +0.000 HD
ENDBRANCH   8   9
ENDBRANCH   1   6
BRANCH   1  14
ATOM     14  O   UNL     1      45.847   6.718  12.735  0.00  0.00    +0.000 OA
BRANCH  14  15
ATOM     15  C   UNL     1      45.124   5.904  11.911  0.00  0.00    +0.000 A 
ATOM     16  C   UNL     1      43.878   5.350  12.198  0.00  0.00    +0.000 A 
ATOM     17  C   UNL     1      43.227   4.568  11.239  0.00  0.00    +0.000 A 
ATOM     18  C   UNL     1      43.818   4.330   9.994  0.00  0.00    +0.000 A 
ATOM     19  C   UNL     1      45.064   4.883   9.711  0.00  0.00    +0.000 A 
ATOM     20  C   UNL     1      45.701   5.680  10.661  0.00  0.00    +0.000 A 
BRANCH  19  21
ATOM     21  O   UNL     1      45.736   4.742   8.524  0.00  0.00    +0.000 OA
BRANCH  21  22
ATOM     22  C   UNL     1      45.533   3.543   7.745  0.00  0.00    +0.000 C 
ATOM     23  C   UNL     1      46.000   2.204   8.330  0.00  0.00    +0.000 C 
ATOM     24  O   UNL     1      46.845   1.938   7.187  0.00  0.00    +0.000 OA
ATOM     25  C   UNL     1      46.609   3.273   6.683  0.00  0.00    +0.000 C 
ENDBRANCH  21  22
ENDBRANCH  19  21
ENDBRANCH  14  15
ENDBRANCH   1  14
TORSDOF 6
ENDMDL
MODEL 3
REMARK VINA RESULT:    -6.784      2.207      3.718
REMARK INTER + INTRA:          -9.800
REMARK INTER:                  -9.200
REMARK INTRA:                  -0.600
REMARK UNBOUND:                -0.636
REMARK  Name = 
REMARK  7 active torsions:
REMARK  status: ('A' for Active; 'I' for Inactive)
REMARK    1  A    between atoms: C_1  and  C_2
REMARK    2  A    between atoms: C_5  and  C_6
REMARK    3  A    between atoms: C_6  and  O_7
REMARK    4  A    between atoms: O_7  and  C_8
REMARK    5  A    between atoms: C_12  and  O_13
REMARK    6  A    between atoms: O_13  and  C_14
REMARK    7  A    between atoms: C_20  and  C_21
REMARK                            x       y       z     vdW  Elec       q    Type
REMARK                         _______ _______ _______ _____ _____    ______ ____
ROOT
ATOM      1  C   UNL     1      44.488   5.128   9.554  0.00  0.00    +0.000 C 
ENDROOT
BRANCH   1   6
ATOM      2  C   UNL     1      46.687   0.183   7.514  0.00  0.00    +0.000 C 
ATOM      3  C   UNL     1      46.163   1.510   7.975  0.00  0.00    +0.000 A 
ATOM      4  C   UNL     1      45.306   1.562   9.070  0.00  0.00    +0.000 A 
ATOM      5  N   UNL     1      44.757   2.694   9.566  0.00  0.00    +0.000 NA
ATOM      6  C   UNL     1      45.068   3.861   8.958  0.00  0.00    +0.000 A 
ATOM      7  C   UNL     1      45.937   3.916   7.872  0.00  0.00    +0.000 A 
ATOM      8  C   UNL     1      46.477   2.730   7.359  0.00  0.00    +0.000 A 
BRANCH   8   9
ATOM      9  C   UNL     1      47.403   2.799   6.188  0.00  0.00    +0.000 C 
ATOM     10  N   UNL     1      48.745   2.800   6.445  0.00  0.00    +0.000 N 
ATOM     11  O   UNL     1      47.002   2.864   5.033  0.00  0.00    +0.000 OA
ATOM     12  H   UNL     1      49.141   2.925   7.364  0.00  0.00    +0.000 HD
ATOM     13  H   UNL     1      49.356   2.924   5.648  0.00  0.00    +0.000 HD
ENDBRANCH   8   9
ENDBRANCH   1   6
BRANCH   1  14
ATOM     14  O   UNL     1      44.249   4.933  10.950  0.00  0.00    +0.000 OA
BRANCH  14  15
ATOM     15  C   UNL     1      45.296   5.174  11.792  0.00  0.00    +0.000 A 
ATOM     16  C   UNL     1      45.621   4.431  12.925  0.00  0.00    +0.000 A 
ATOM     17  C   UNL     1      46.754   4.763  13.674  0.00  0.00    +0.000 A 
ATOM     18  C   UNL     1      47.563   5.841  13.299  0.00  0.00    +0.000 A 
ATOM     19  C   UNL     1      47.236   6.583  12.168  0.00  0.00    +0.000 A 
ATOM     20  C   UNL     1      46.117   6.235  11.411  0.00  0.00    +0.000 A 
BRANCH  19  21
ATOM     21  O   UNL     1      47.958   7.644  11.686  0.00  0.00    +0.000 OA
BRANCH  21  22
ATOM     22  C   UNL     1      47.840   8.924  12.343  0.00  0.00    +0.000 C 
ATOM     23  C   UNL     1      46.470   9.616  12.353  0.00  0.00    +0.000 C 
ATOM     24  O   UNL     1      47.004  10.801  11.719  0.00  0.00    +0.000 OA
ATOM     25  C   UNL     1      48.264  10.130  11.491  0.00  0.00    +0.000 C 
ENDBRANCH  21  22
ENDBRANCH  19  21
ENDBRANCH  14  15
ENDBRANCH   1  14
TORSDOF 6
ENDMDL
MODEL 4
REMARK VINA RESULT:    -6.479      3.326      8.295
REMARK INTER + INTRA:          -9.387
REMARK INTER:                  -8.865
REMARK INTRA:                  -0.523
REMARK UNBOUND:                -0.636
REMARK  Name = 
REMARK  7 active torsions:
REMARK  status: ('A' for Active; 'I' for Inactive)
REMARK    1  A    between atoms: C_1  and  C_2
REMARK    2  A    between atoms: C_5  and  C_6
REMARK    3  A    between atoms: C_6  and  O_7
REMARK    4  A    between atoms: O_7  and  C_8
REMARK    5  A    between atoms: C_12  and  O_13
REMARK    6  A    between atoms: O_13  and  C_14
REMARK    7  A    between atoms: C_20  and  C_21
REMARK                            x       y       z     vdW  Elec       q    Type
REMARK                         _______ _______ _______ _____ _____    ______ ____
ROOT
ATOM      1  C   UNL     1      46.712   4.571  14.037  0.00  0.00    +0.000 C 
ENDROOT
BRANCH   1   6
ATOM      2  C   UNL     1      48.768   4.290  19.436  0.00  0.00    +0.000 C 
ATOM      3  C   UNL     1      48.288   4.438  18.024  0.00  0.00    +0.000 A 
ATOM      4  C   UNL     1      47.378   3.519  17.512  0.00  0.00    +0.000 A 
ATOM      5  N   UNL     1      46.888   3.539  16.252  0.00  0.00    +0.000 NA
ATOM      6  C   UNL     1      47.307   4.529  15.431  0.00  0.00    +0.000 A 
ATOM      7  C   UNL     1      48.195   5.512  15.858  0.00  0.00    +0.000 A 
ATOM      8  C   UNL     1      48.709   5.459  17.160  0.00  0.00    +0.000 A 
BRANCH   8   9
ATOM      9  C   UNL     1      49.667   6.516  17.606  0.00  0.00    +0.000 C 
ATOM     10  N   UNL     1      50.994   6.310  17.353  0.00  0.00    +0.000 N 
ATOM     11  O   UNL     1      49.306   7.531  18.188  0.00  0.00    +0.000 OA
ATOM     12  H   UNL     1      51.377   5.431  17.041  0.00  0.00    +0.000 HD
ATOM     13  H   UNL     1      51.636   6.998  17.728  0.00  0.00    +0.000 HD
ENDBRANCH   8   9
ENDBRANCH   1   6
BRANCH   1  14
ATOM     14  O   UNL     1      45.326   4.224  14.100  0.00  0.00    +0.000 OA
BRANCH  14  15
ATOM     15  C   UNL     1      44.567   4.530  13.008  0.00  0.00    +0.000 A 
ATOM     16  C   UNL     1      43.251   4.989  13.030  0.00  0.00    +0.000 A 
ATOM     17  C   UNL     1      42.606   5.310  11.832  0.00  0.00    +0.000 A 
ATOM     18  C   UNL     1      43.268   5.168  10.607  0.00  0.00    +0.000 A 
ATOM     19  C   UNL     1      44.581   4.707  10.588  0.00  0.00    +0.000 A 
ATOM     20  C   UNL     1      45.229   4.409  11.786  0.00  0.00    +0.000 A 
BRANCH  19  21
ATOM     21  O   UNL     1      45.342   4.547   9.458  0.00  0.00    +0.000 OA
BRANCH  21  22
ATOM     22  C   UNL     1      45.027   3.467   8.552  0.00  0.00    +0.000 C 
ATOM     23  C   UNL     1      44.761   2.075   9.140  0.00  0.00    +0.000 C 
ATOM     24  O   UNL     1      45.809   1.479   8.340  0.00  0.00    +0.000 OA
ATOM     25  C   UNL     1      46.246   2.788   7.909  0.00  0.00    +0.000 C 
ENDBRANCH  21  22
ENDBRANCH  19  21
ENDBRANCH  14  15
ENDBRANCH   1  14
TORSDOF 6
ENDMDL
MODEL 5
REMARK VINA RESULT:    -6.363      3.203      7.442
REMARK INTER + INTRA:          -9.231
REMARK INTER:                  -8.477
REMARK INTRA:                  -0.754
REMARK UNBOUND:                -0.636
REMARK  Name = 
REMARK  7 active torsions:
REMARK  status: ('A' for Active; 'I' for Inactive)
REMARK    1  A    between atoms: C_1  and  C_2
REMARK    2  A    between atoms: C_5  and  C_6
REMARK    3  A    between atoms: C_6  and  O_7
REMARK    4  A    between atoms: O_7  and  C_8
REMARK    5  A    between atoms: C_12  and  O_13
REMARK    6  A    between atoms: O_13  and  C_14
REMARK    7  A    between atoms: C_20  and  C_21
REMARK                            x       y       z     vdW  Elec       q    Type
REMARK                         _______ _______ _______ _____ _____    ______ ____
ROOT
ATOM      1  C   UNL     1      47.002   4.344  13.808  0.00  0.00    +0.000 C 
ENDROOT
BRANCH   1   6
ATOM      2  C   UNL     1      49.109   9.622  14.884  0.00  0.00    +0.000 C 
ATOM      3  C   UNL     1      48.518   8.291  14.532  0.00  0.00    +0.000 A 
ATOM      4  C   UNL     1      48.826   7.180  15.310  0.00  0.00    +0.000 A 
ATOM      5  N   UNL     1      48.370   5.927  15.082  0.00  0.00    +0.000 NA
ATOM      6  C   UNL     1      47.548   5.742  14.024  0.00  0.00    +0.000 A 
ATOM      7  C   UNL     1      47.159   6.795  13.201  0.00  0.00    +0.000 A 
ATOM      8  C   UNL     1      47.662   8.080  13.441  0.00  0.00    +0.000 A 
BRANCH   8   9
ATOM      9  C   UNL     1      47.244   9.203  12.547  0.00  0.00    +0.000 C 
ATOM     10  N   UNL     1      46.003   9.739  12.747  0.00  0.00    +0.000 N 
ATOM     11  O   UNL     1      47.962   9.638  11.655  0.00  0.00    +0.000 OA
ATOM     12  H   UNL     1      45.299   9.322  13.337  0.00  0.00    +0.000 HD
ATOM     13  H   UNL     1      45.707  10.446  12.085  0.00  0.00    +0.000 HD
ENDBRANCH   8   9
ENDBRANCH   1   6
BRANCH   1  14
ATOM     14  O   UNL     1      45.608   4.323  14.123  0.00  0.00    +0.000 OA
BRANCH  14  15
ATOM     15  C   UNL     1      44.740   4.358  13.070  0.00  0.00    +0.000 A 
ATOM     16  C   UNL     1      43.535   5.056  13.028  0.00  0.00    +0.000 A 
ATOM     17  C   UNL     1      42.764   5.041  11.861  0.00  0.00    +0.000 A 
ATOM     18  C   UNL     1      43.187   4.325  10.737  0.00  0.00    +0.000 A 
ATOM     19  C   UNL     1      44.390   3.626  10.783  0.00  0.00    +0.000 A 
ATOM     20  C   UNL     1      45.168   3.662  11.940  0.00  0.00    +0.000 A 
BRANCH  19  21
ATOM     21  O   UNL     1      44.924   2.907   9.744  0.00  0.00    +0.000 OA
BRANCH  21  22
ATOM     22  C   UNL     1      45.081   3.550   8.460  0.00  0.00    +0.000 C 
ATOM     23  C   UNL     1      46.173   3.031   7.514  0.00  0.00    +0.000 C 
ATOM     24  O   UNL     1      46.796   4.334   7.433  0.00  0.00    +0.000 OA
ATOM     25  C   UNL     1      45.929   4.831   8.479  0.00  0.00    +0.000 C 
ENDBRANCH  21  22
ENDBRANCH  19  21
ENDBRANCH  14  15
ENDBRANCH   1  14
TORSDOF 6
ENDMDL
MODEL 6
REMARK VINA RESULT:    -6.265      2.599      3.997
REMARK INTER + INTRA:          -9.098
REMARK INTER:                  -8.418
REMARK INTRA:                  -0.679
REMARK UNBOUND:                -0.636
REMARK  Name = 
REMARK  7 active torsions:
REMARK  status: ('A' for Active; 'I' for Inactive)
REMARK    1  A    between atoms: C_1  and  C_2
REMARK    2  A    between atoms: C_5  and  C_6
REMARK    3  A    between atoms: C_6  and  O_7
REMARK    4  A    between atoms: O_7  and  C_8
REMARK    5  A    between atoms: C_12  and  O_13
REMARK    6  A    between atoms: O_13  and  C_14
REMARK    7  A    between atoms: C_20  and  C_21
REMARK                            x       y       z     vdW  Elec       q    Type
REMARK                         _______ _______ _______ _____ _____    ______ ____
ROOT
ATOM      1  C   UNL     1      45.717   7.749  12.337  0.00  0.00    +0.000 C 
ENDROOT
BRANCH   1   6
ATOM      2  C   UNL     1      43.297   2.516  11.890  0.00  0.00    +0.000 C 
ATOM      3  C   UNL     1      43.952   3.863  11.917  0.00  0.00    +0.000 A 
ATOM      4  C   UNL     1      43.893   4.627  13.078  0.00  0.00    +0.000 A 
ATOM      5  N   UNL     1      44.429   5.861  13.217  0.00  0.00    +0.000 NA
ATOM      6  C   UNL     1      45.076   6.388  12.153  0.00  0.00    +0.000 A 
ATOM      7  C   UNL     1      45.212   5.691  10.956  0.00  0.00    +0.000 A 
ATOM      8  C   UNL     1      44.629   4.424  10.825  0.00  0.00    +0.000 A 
BRANCH   8   9
ATOM      9  C   UNL     1      44.775   3.687   9.532  0.00  0.00    +0.000 C 
ATOM     10  N   UNL     1      44.149   4.209   8.435  0.00  0.00    +0.000 N 
ATOM     11  O   UNL     1      45.414   2.647   9.435  0.00  0.00    +0.000 OA
ATOM     12  H   UNL     1      43.471   4.954   8.477  0.00  0.00    +0.000 HD
ATOM     13  H   UNL     1      44.195   3.659   7.587  0.00  0.00    +0.000 HD
ENDBRANCH   8   9
ENDBRANCH   1   6
BRANCH   1  14
ATOM     14  O   UNL     1      47.139   7.613  12.317  0.00  0.00    +0.000 OA
BRANCH  14  15
ATOM     15  C   UNL     1      47.788   7.772  13.508  0.00  0.00    +0.000 A 
ATOM     16  C   UNL     1      48.158   8.987  14.080  0.00  0.00    +0.000 A 
ATOM     17  C   UNL     1      48.779   9.005  15.334  0.00  0.00    +0.000 A 
ATOM     18  C   UNL     1      49.039   7.812  16.016  0.00  0.00    +0.000 A 
ATOM     19  C   UNL     1      48.670   6.599  15.440  0.00  0.00    +0.000 A 
ATOM     20  C   UNL     1      48.031   6.586  14.201  0.00  0.00    +0.000 A 
BRANCH  19  21
ATOM     21  O   UNL     1      48.850   5.368  16.016  0.00  0.00    +0.000 OA
BRANCH  21  22
ATOM     22  C   UNL     1      47.709   4.495  16.165  0.00  0.00    +0.000 C 
ATOM     23  C   UNL     1      47.082   4.344  17.558  0.00  0.00    +0.000 C 
ATOM     24  O   UNL     1      47.268   2.910  17.545  0.00  0.00    +0.000 OA
ATOM     25  C   UNL     1      48.052   3.007  16.334  0.00  0.00    +0.000 C 
ENDBRANCH  21  22
ENDBRANCH  19  21
ENDBRANCH  14  15
ENDBRANCH   1  14
TORSDOF 6
ENDMDL
MODEL 7
REMARK VINA RESULT:    -6.242      3.228      7.570
REMARK INTER + INTRA:          -9.067
REMARK INTER:                  -8.507
REMARK INTRA:                  -0.560
REMARK UNBOUND:                -0.636
REMARK  Name = 
REMARK  7 active torsions:
REMARK  status: ('A' for Active; 'I' for Inactive)
REMARK    1  A    between atoms: C_1  and  C_2
REMARK    2  A    between atoms: C_5  and  C_6
REMARK    3  A    between atoms: C_6  and  O_7
REMARK    4  A    between atoms: O_7  and  C_8
REMARK    5  A    between atoms: C_12  and  O_13
REMARK    6  A    between atoms: O_13  and  C_14
REMARK    7  A    between atoms: C_20  and  C_21
REMARK                            x       y       z     vdW  Elec       q    Type
REMARK                         _______ _______ _______ _____ _____    ______ ____
ROOT
ATOM      1  C   UNL     1      46.166   6.895  10.956  0.00  0.00    +0.000 C 
ENDROOT
BRANCH   1   6
ATOM      2  C   UNL     1      50.170   7.192  15.119  0.00  0.00    +0.000 C 
ATOM      3  C   UNL     1      49.194   7.156  13.982  0.00  0.00    +0.000 A 
ATOM      4  C   UNL     1      47.935   6.598  14.181  0.00  0.00    +0.000 A 
ATOM      5  N   UNL     1      46.979   6.493  13.231  0.00  0.00    +0.000 NA
ATOM      6  C   UNL     1      47.264   6.971  11.998  0.00  0.00    +0.000 A 
ATOM      7  C   UNL     1      48.485   7.572  11.707  0.00  0.00    +0.000 A 
ATOM      8  C   UNL     1      49.470   7.650  12.699  0.00  0.00    +0.000 A 
BRANCH   8   9
ATOM      9  C   UNL     1      50.781   8.290  12.374  0.00  0.00    +0.000 C 
ATOM     10  N   UNL     1      51.659   7.575  11.609  0.00  0.00    +0.000 N 
ATOM     11  O   UNL     1      51.087   9.406  12.773  0.00  0.00    +0.000 OA
ATOM     12  H   UNL     1      51.549   6.596  11.395  0.00  0.00    +0.000 HD
ATOM     13  H   UNL     1      52.570   7.991  11.461  0.00  0.00    +0.000 HD
ENDBRANCH   8   9
ENDBRANCH   1   6
BRANCH   1  14
ATOM     14  O   UNL     1      45.141   6.007  11.406  0.00  0.00    +0.000 OA
BRANCH  14  15
ATOM     15  C   UNL     1      44.963   4.859  10.689  0.00  0.00    +0.000 A 
ATOM     16  C   UNL     1      44.181   3.771  11.070  0.00  0.00    +0.000 A 
ATOM     17  C   UNL     1      44.050   2.674  10.212  0.00  0.00    +0.000 A 
ATOM     18  C   UNL     1      44.704   2.656   8.975  0.00  0.00    +0.000 A 
ATOM     19  C   UNL     1      45.486   3.744   8.598  0.00  0.00    +0.000 A 
ATOM     20  C   UNL     1      45.597   4.845   9.447  0.00  0.00    +0.000 A 
BRANCH  19  21
ATOM     21  O   UNL     1      46.157   3.856   7.408  0.00  0.00    +0.000 OA
BRANCH  21  22
ATOM     22  C   UNL     1      46.421   2.662   6.640  0.00  0.00    +0.000 C 
ATOM     23  C   UNL     1      47.555   1.735   7.099  0.00  0.00    +0.000 C 
ATOM     24  O   UNL     1      48.225   1.835   5.821  0.00  0.00    +0.000 OA
ATOM     25  C   UNL     1      47.307   2.871   5.403  0.00  0.00    +0.000 C 
ENDBRANCH  21  22
ENDBRANCH  19  21
ENDBRANCH  14  15
ENDBRANCH   1  14
TORSDOF 6
ENDMDL
MODEL 8
REMARK VINA RESULT:    -6.157      4.429      8.053
REMARK INTER + INTRA:          -8.953
REMARK INTER:                  -8.349
REMARK INTRA:                  -0.604
REMARK UNBOUND:                -0.636
REMARK  Name = 
REMARK  7 active torsions:
REMARK  status: ('A' for Active; 'I' for Inactive)
REMARK    1  A    between atoms: C_1  and  C_2
REMARK    2  A    between atoms: C_5  and  C_6
REMARK    3  A    between atoms: C_6  and  O_7
REMARK    4  A    between atoms: O_7  and  C_8
REMARK    5  A    between atoms: C_12  and  O_13
REMARK    6  A    between atoms: O_13  and  C_14
REMARK    7  A    between atoms: C_20  and  C_21
REMARK                            x       y       z     vdW  Elec       q    Type
REMARK                         _______ _______ _______ _____ _____    ______ ____
ROOT
ATOM      1  C   UNL     1      49.252   7.213  13.977  0.00  0.00    +0.000 C 
ENDROOT
BRANCH   1   6
ATOM      2  C   UNL     1      50.045   4.616  19.083  0.00  0.00    +0.000 C 
ATOM      3  C   UNL     1      49.749   5.268  17.767  0.00  0.00    +0.000 A 
ATOM      4  C   UNL     1      50.783   5.865  17.053  0.00  0.00    +0.000 A 
ATOM      5  N   UNL     1      50.636   6.497  15.867  0.00  0.00    +0.000 NA
ATOM      6  C   UNL     1      49.395   6.547  15.331  0.00  0.00    +0.000 A 
ATOM      7  C   UNL     1      48.300   5.956  15.955  0.00  0.00    +0.000 A 
ATOM      8  C   UNL     1      48.470   5.327  17.195  0.00  0.00    +0.000 A 
BRANCH   8   9
ATOM      9  C   UNL     1      47.286   4.701  17.861  0.00  0.00    +0.000 C 
ATOM     10  N   UNL     1      46.608   5.455  18.777  0.00  0.00    +0.000 N 
ATOM     11  O   UNL     1      46.923   3.557  17.622  0.00  0.00    +0.000 OA
ATOM     12  H   UNL     1      46.949   6.329  19.149  0.00  0.00    +0.000 HD
ATOM     13  H   UNL     1      45.857   4.992  19.273  0.00  0.00    +0.000 HD
ENDBRANCH   8   9
ENDBRANCH   1   6
BRANCH   1  14
ATOM     14  O   UNL     1      48.504   6.363  13.105  0.00  0.00    +0.000 OA
BRANCH  14  15
ATOM     15  C   UNL     1      47.283   6.821  12.700  0.00  0.00    +0.000 A 
ATOM     16  C   UNL     1      46.790   8.110  12.889  0.00  0.00    +0.000 A 
ATOM     17  C   UNL     1      45.535   8.457  12.378  0.00  0.00    +0.000 A 
ATOM     18  C   UNL     1      44.766   7.518  11.684  0.00  0.00    +0.000 A 
ATOM     19  C   UNL     1      45.260   6.230  11.498  0.00  0.00    +0.000 A 
ATOM     20  C   UNL     1      46.521   5.894  11.989  0.00  0.00    +0.000 A 
BRANCH  19  21
ATOM     21  O   UNL     1      44.614   5.229  10.817  0.00  0.00    +0.000 OA
BRANCH  21  22
ATOM     22  C   UNL     1      43.574   4.487  11.490  0.00  0.00    +0.000 C 
ATOM     23  C   UNL     1      43.286   4.806  12.964  0.00  0.00    +0.000 C 
ATOM     24  O   UNL     1      43.523   3.436  13.362  0.00  0.00    +0.000 OA
ATOM     25  C   UNL     1      44.007   3.118  12.037  0.00  0.00    +0.000 C 
ENDBRANCH  21  22
ENDBRANCH  19  21
ENDBRANCH  14  15
ENDBRANCH   1  14
TORSDOF 6
ENDMDL
MODEL 9
REMARK VINA RESULT:    -6.146      4.056      6.138
REMARK INTER + INTRA:          -8.938
REMARK INTER:                  -8.377
REMARK INTRA:                  -0.562
REMARK UNBOUND:                -0.636
REMARK  Name = 
REMARK  7 active torsions:
REMARK  status: ('A' for Active; 'I' for Inactive)
REMARK    1  A    between atoms: C_1  and  C_2
REMARK    2  A    between atoms: C_5  and  C_6
REMARK    3  A    between atoms: C_6  and  O_7
REMARK    4  A    between atoms: O_7  and  C_8
REMARK    5  A    between atoms: C_12  and  O_13
REMARK    6  A    between atoms: O_13  and  C_14
REMARK    7  A    between atoms: C_20  and  C_21
REMARK                            x       y       z     vdW  Elec       q    Type
REMARK                         _______ _______ _______ _____ _____    ______ ____
ROOT
ATOM      1  C   UNL     1      47.029   3.783  14.065  0.00  0.00    +0.000 C 
ENDROOT
BRANCH   1   6
ATOM      2  C   UNL     1      44.604   8.324  11.429  0.00  0.00    +0.000 C 
ATOM      3  C   UNL     1      45.163   7.094  12.079  0.00  0.00    +0.000 A 
ATOM      4  C   UNL     1      46.337   7.187  12.819  0.00  0.00    +0.000 A 
ATOM      5  N   UNL     1      46.945   6.148  13.434  0.00  0.00    +0.000 NA
ATOM      6  C   UNL     1      46.367   4.930  13.329  0.00  0.00    +0.000 A 
ATOM      7  C   UNL     1      45.176   4.739  12.633  0.00  0.00    +0.000 A 
ATOM      8  C   UNL     1      44.575   5.825  11.983  0.00  0.00    +0.000 A 
BRANCH   8   9
ATOM      9  C   UNL     1      43.301   5.608  11.231  0.00  0.00    +0.000 C 
ATOM     10  N   UNL     1      42.146   6.058  11.806  0.00  0.00    +0.000 N 
ATOM     11  O   UNL     1      43.264   5.042  10.147  0.00  0.00    +0.000 OA
ATOM     12  H   UNL     1      42.080   6.371  12.763  0.00  0.00    +0.000 HD
ATOM     13  H   UNL     1      41.286   5.837  11.321  0.00  0.00    +0.000 HD
ENDBRANCH   8   9
ENDBRANCH   1   6
BRANCH   1  14
ATOM     14  O   UNL     1      46.631   3.805  15.438  0.00  0.00    +0.000 OA
BRANCH  14  15
ATOM     15  C   UNL     1      47.630   3.746  16.367  0.00  0.00    +0.000 A 
ATOM     16  C   UNL     1      48.463   2.654  16.602  0.00  0.00    +0.000 A 
ATOM     17  C   UNL     1      49.480   2.748  17.558  0.00  0.00    +0.000 A 
ATOM     18  C   UNL     1      49.665   3.928  18.286  0.00  0.00    +0.000 A 
ATOM     19  C   UNL     1      48.829   5.016  18.051  0.00  0.00    +0.000 A 
ATOM     20  C   UNL     1      47.831   4.926  17.082  0.00  0.00    +0.000 A 
BRANCH  19  21
ATOM     21  O   UNL     1      48.922   6.230  18.681  0.00  0.00    +0.000 OA
BRANCH  21  22
ATOM     22  C   UNL     1      47.714   6.865  19.155  0.00  0.00    +0.000 C 
ATOM     23  C   UNL     1      47.535   8.369  18.910  0.00  0.00    +0.000 C 
ATOM     24  O   UNL     1      47.368   8.633  20.322  0.00  0.00    +0.000 OA
ATOM     25  C   UNL     1      47.736   7.270  20.637  0.00  0.00    +0.000 C 
ENDBRANCH  21  22
ENDBRANCH  19  21
ENDBRANCH  14  15
ENDBRANCH   1  14
TORSDOF 6
ENDMDL
