MODEL 1
REMARK VINA RESULT:    -8.065      0.000      0.000
REMARK INTER + INTRA:         -12.223
REMARK INTER:                 -11.130
REMARK INTRA:                  -1.093
REMARK UNBOUND:                -1.093
REMARK  Name = 
REMARK  7 active torsions:
REMARK  status: ('A' for Active; 'I' for Inactive)
REMARK    1  A    between atoms: C_2  and  C_20
REMARK    2  A    between atoms: N_3  and  C_4
REMARK    3  A    between atoms: C_4  and  C_5
REMARK    4  A    between atoms: C_8  and  C_9
REMARK    5  A    between atoms: C_10  and  C_11
REMARK    6  A    between atoms: C_11  and  C_12
REMARK    7  A    between atoms: C_27  and  O_28
REMARK                            x       y       z     vdW  Elec       q    Type
REMARK                         _______ _______ _______ _____ _____    ______ ____
ROOT
ATOM      1  O   UNL     1      50.295   7.720  15.188  0.00  0.00    +0.000 OA
ATOM      2  C   UNL     1      49.275   7.460  15.820  0.00  0.00    +0.000 C 
ATOM      3  N   UNL     1      48.077   8.075  15.585  0.00  0.00    +0.000 N 
ATOM      4  H   UNL     1      47.249   7.733  16.058  0.00  0.00    +0.000 HD
ENDROOT
BRANCH   2   5
ATOM      5  C   UNL     1      49.272   6.491  16.909  0.00  0.00    +0.000 A 
ATOM      6  C   UNL     1      50.126   6.568  18.000  0.00  0.00    +0.000 A 
ATOM      7  N   UNL     1      49.759   5.593  18.887  0.00  0.00    +0.000 N 
ATOM      8  C   UNL     1      48.992   4.674  18.229  0.00  0.00    +0.000 A 
ATOM      9  N   UNL     1      48.715   3.437  18.667  0.00  0.00    +0.000 NA
ATOM     10  C   UNL     1      47.921   2.779  17.804  0.00  0.00    +0.000 A 
ATOM     11  N   UNL     1      47.286   3.274  16.722  0.00  0.00    +0.000 NA
ATOM     12  C   UNL     1      47.582   4.534  16.379  0.00  0.00    +0.000 A 
ATOM     13  C   UNL     1      48.541   5.270  17.062  0.00  0.00    +0.000 A 
ATOM     14  H   UNL     1      50.056   5.511  19.849  0.00  0.00    +0.000 HD
BRANCH  12  15
ATOM     15  O   UNL     1      46.855   5.034  15.337  0.00  0.00    +0.000 OA
ATOM     16  H   UNL     1      45.950   4.898  15.680  0.00  0.00    +0.000 HD
ENDBRANCH  12  15
ENDBRANCH   2   5
BRANCH   3  17
ATOM     17  C   UNL     1      47.914   8.917  14.427  0.00  0.00    +0.000 C 
BRANCH  17  18
ATOM     18  C   UNL     1      47.255   8.172  13.311  0.00  0.00    +0.000 A 
ATOM     19  C   UNL     1      45.885   8.267  13.075  0.00  0.00    +0.000 A 
ATOM     20  C   UNL     1      45.304   7.511  12.056  0.00  0.00    +0.000 A 
ATOM     21  C   UNL     1      46.145   6.673  11.322  0.00  0.00    +0.000 A 
ATOM     22  N   UNL     1      47.462   6.558  11.516  0.00  0.00    +0.000 NA
ATOM     23  C   UNL     1      47.996   7.313  12.507  0.00  0.00    +0.000 A 
BRANCH  21  24
ATOM     24  C   UNL     1      45.608   5.796  10.337  0.00  0.00    +0.000 C 
ATOM     25  C   UNL     1      45.100   4.948   9.485  0.00  0.00    +0.000 C 
BRANCH  25  26
ATOM     26  C   UNL     1      44.509   3.962   8.492  0.00  0.00    +0.000 C 
BRANCH  26  27
ATOM     27  C   UNL     1      45.573   3.034   7.980  0.00  0.00    +0.000 A 
ATOM     28  C   UNL     1      46.453   3.418   6.965  0.00  0.00    +0.000 A 
ATOM     29  C   UNL     1      47.396   2.513   6.488  0.00  0.00    +0.000 A 
ATOM     30  C   UNL     1      47.424   1.243   7.040  0.00  0.00    +0.000 A 
ATOM     31  N   UNL     1      46.585   0.830   8.014  0.00  0.00    +0.000 NA
ATOM     32  C   UNL     1      45.678   1.730   8.455  0.00  0.00    +0.000 A 
ENDBRANCH  26  27
ENDBRANCH  25  26
ENDBRANCH  21  24
ENDBRANCH  17  18
ENDBRANCH   3  17
TORSDOF 7
ENDMDL
MODEL 2
REMARK VINA RESULT:    -7.753      2.760      8.995
REMARK INTER + INTRA:         -11.793
REMARK INTER:                 -10.885
REMARK INTRA:                  -0.907
REMARK UNBOUND:                -1.093
REMARK  Name = 
REMARK  7 active torsions:
REMARK  status: ('A' for Active; 'I' for Inactive)
REMARK    1  A    between atoms: C_2  and  C_20
REMARK    2  A    between atoms: N_3  and  C_4
REMARK    3  A    between atoms: C_4  and  C_5
REMARK    4  A    between atoms: C_8  and  C_9
REMARK    5  A    between atoms: C_10  and  C_11
REMARK    6  A    between atoms: C_11  and  C_12
REMARK    7  A    between atoms: C_27  and  O_28
REMARK                            x       y       z     vdW  Elec       q    Type
REMARK                         _______ _______ _______ _____ _____    ______ ____
ROOT
ATOM      1  O   UNL     1      43.482   4.831   9.942  0.00  0.00    +0.000 OA
ATOM      2  C   UNL     1      44.638   4.427   9.841  0.00  0.00    +0.000 C 
ATOM      3  N   UNL     1      45.718   5.157  10.251  0.00  0.00    +0.000 N 
ATOM      4  H   UNL     1      46.633   4.721  10.250  0.00  0.00    +0.000 HD
ENDROOT
BRANCH   2   5
ATOM      5  C   UNL     1      44.952   3.139   9.237  0.00  0.00    +0.000 A 
ATOM      6  C   UNL     1      44.360   1.947   9.633  0.00  0.00    +0.000 A 
ATOM      7  N   UNL     1      44.773   0.969   8.770  0.00  0.00    +0.000 N 
ATOM      8  C   UNL     1      45.889   1.409   8.118  0.00  0.00    +0.000 A 
ATOM      9  N   UNL     1      46.752   0.634   7.444  0.00  0.00    +0.000 NA
ATOM     10  C   UNL     1      47.740   1.364   6.896  0.00  0.00    +0.000 A 
ATOM     11  N   UNL     1      47.831   2.707   6.818  0.00  0.00    +0.000 NA
ATOM     12  C   UNL     1      46.902   3.409   7.479  0.00  0.00    +0.000 A 
ATOM     13  C   UNL     1      45.935   2.787   8.258  0.00  0.00    +0.000 A 
ATOM     14  H   UNL     1      44.377   0.044   8.674  0.00  0.00    +0.000 HD
BRANCH  12  15
ATOM     15  O   UNL     1      46.968   4.761   7.304  0.00  0.00    +0.000 OA
ATOM     16  H   UNL     1      47.234   4.798   6.365  0.00  0.00    +0.000 HD
ENDBRANCH  12  15
ENDBRANCH   2   5
BRANCH   3  17
ATOM     17  C   UNL     1      45.526   6.361  11.019  0.00  0.00    +0.000 C 
BRANCH  17  18
ATOM     18  C   UNL     1      46.295   6.307  12.301  0.00  0.00    +0.000 A 
ATOM     19  C   UNL     1      47.270   7.252  12.611  0.00  0.00    +0.000 A 
ATOM     20  C   UNL     1      48.000   7.131  13.795  0.00  0.00    +0.000 A 
ATOM     21  C   UNL     1      47.713   6.037  14.614  0.00  0.00    +0.000 A 
ATOM     22  N   UNL     1      46.783   5.114  14.352  0.00  0.00    +0.000 NA
ATOM     23  C   UNL     1      46.086   5.267  13.200  0.00  0.00    +0.000 A 
BRANCH  21  24
ATOM     24  C   UNL     1      48.486   5.790  15.784  0.00  0.00    +0.000 C 
ATOM     25  C   UNL     1      49.205   5.501  16.833  0.00  0.00    +0.000 C 
BRANCH  25  26
ATOM     26  C   UNL     1      50.042   5.164  18.056  0.00  0.00    +0.000 C 
BRANCH  26  27
ATOM     27  C   UNL     1      50.696   3.823  17.890  0.00  0.00    +0.000 A 
ATOM     28  C   UNL     1      52.032   3.612  18.242  0.00  0.00    +0.000 A 
ATOM     29  C   UNL     1      52.614   2.365  18.032  0.00  0.00    +0.000 A 
ATOM     30  C   UNL     1      51.838   1.366  17.467  0.00  0.00    +0.000 A 
ATOM     31  N   UNL     1      50.548   1.533  17.104  0.00  0.00    +0.000 NA
ATOM     32  C   UNL     1      50.011   2.755  17.318  0.00  0.00    +0.000 A 
ENDBRANCH  26  27
ENDBRANCH  25  26
ENDBRANCH  21  24
ENDBRANCH  17  18
ENDBRANCH   3  17
TORSDOF 7
ENDMDL
MODEL 3
REMARK VINA RESULT:    -7.525      2.227      2.510
REMARK INTER + INTRA:         -11.477
REMARK INTER:                 -10.537
REMARK INTRA:                  -0.940
REMARK UNBOUND:                -1.093
REMARK  Name = 
REMARK  7 active torsions:
REMARK  status: ('A' for Active; 'I' for Inactive)
REMARK    1  A    between atoms: C_2  and  C_20
REMARK    2  A    between atoms: N_3  and  C_4
REMARK    3  A    between atoms: C_4  and  C_5
REMARK    4  A    between atoms: C_8  and  C_9
REMARK    5  A    between atoms: C_10  and  C_11
REMARK    6  A    between atoms: C_11  and  C_12
REMARK    7  A    between atoms: C_27  and  O_28
REMARK                            x       y       z     vdW  Elec       q    Type
REMARK                         _______ _______ _______ _____ _____    ______ ____
ROOT
ATOM      1  O   UNL     1      49.764   7.053  18.255  0.00  0.00    +0.000 OA
ATOM      2  C   UNL     1      50.132   6.161  17.496  0.00  0.00    +0.000 C 
ATOM      3  N   UNL     1      49.674   6.040  16.214  0.00  0.00    +0.000 N 
ATOM      4  H   UNL     1      50.103   5.356  15.601  0.00  0.00    +0.000 HD
ENDROOT
BRANCH   2   5
ATOM      5  C   UNL     1      51.069   5.128  17.920  0.00  0.00    +0.000 A 
ATOM      6  C   UNL     1      52.278   5.406  18.542  0.00  0.00    +0.000 A 
ATOM      7  N   UNL     1      52.832   4.216  18.928  0.00  0.00    +0.000 N 
ATOM      8  C   UNL     1      52.230   3.210  18.228  0.00  0.00    +0.000 A 
ATOM      9  N   UNL     1      52.706   1.963  18.093  0.00  0.00    +0.000 NA
ATOM     10  C   UNL     1      51.877   1.199  17.361  0.00  0.00    +0.000 A 
ATOM     11  N   UNL     1      50.631   1.499  16.940  0.00  0.00    +0.000 NA
ATOM     12  C   UNL     1      50.212   2.752  17.154  0.00  0.00    +0.000 A 
ATOM     13  C   UNL     1      51.041   3.712  17.722  0.00  0.00    +0.000 A 
ATOM     14  H   UNL     1      53.606   4.090  19.565  0.00  0.00    +0.000 HD
BRANCH  12  15
ATOM     15  O   UNL     1      48.917   2.996  16.800  0.00  0.00    +0.000 OA
ATOM     16  H   UNL     1      48.796   3.882  17.195  0.00  0.00    +0.000 HD
ENDBRANCH  12  15
ENDBRANCH   2   5
BRANCH   3  17
ATOM     17  C   UNL     1      48.885   7.095  15.627  0.00  0.00    +0.000 C 
BRANCH  17  18
ATOM     18  C   UNL     1      47.994   6.562  14.551  0.00  0.00    +0.000 A 
ATOM     19  C   UNL     1      47.348   5.334  14.677  0.00  0.00    +0.000 A 
ATOM     20  C   UNL     1      46.568   4.851  13.624  0.00  0.00    +0.000 A 
ATOM     21  C   UNL     1      46.487   5.639  12.475  0.00  0.00    +0.000 A 
ATOM     22  N   UNL     1      47.088   6.822  12.320  0.00  0.00    +0.000 NA
ATOM     23  C   UNL     1      47.830   7.266  13.363  0.00  0.00    +0.000 A 
BRANCH  21  24
ATOM     24  C   UNL     1      45.796   5.165  11.323  0.00  0.00    +0.000 C 
ATOM     25  C   UNL     1      45.202   4.674  10.271  0.00  0.00    +0.000 C 
BRANCH  25  26
ATOM     26  C   UNL     1      44.509   4.103   9.045  0.00  0.00    +0.000 C 
BRANCH  26  27
ATOM     27  C   UNL     1      45.412   3.136   8.336  0.00  0.00    +0.000 A 
ATOM     28  C   UNL     1      46.144   3.511   7.205  0.00  0.00    +0.000 A 
ATOM     29  C   UNL     1      46.936   2.572   6.552  0.00  0.00    +0.000 A 
ATOM     30  C   UNL     1      46.965   1.279   7.048  0.00  0.00    +0.000 A 
ATOM     31  N   UNL     1      46.267   0.875   8.130  0.00  0.00    +0.000 NA
ATOM     32  C   UNL     1      45.504   1.808   8.743  0.00  0.00    +0.000 A 
ENDBRANCH  26  27
ENDBRANCH  25  26
ENDBRANCH  21  24
ENDBRANCH  17  18
ENDBRANCH   3  17
TORSDOF 7
ENDMDL
MODEL 4
REMARK VINA RESULT:    -7.402      2.858      3.664
REMARK INTER + INTRA:         -11.308
REMARK INTER:                 -10.333
REMARK INTRA:                  -0.975
REMARK UNBOUND:                -1.093
REMARK  Name = 
REMARK  7 active torsions:
REMARK  status: ('A' for Active; 'I' for Inactive)
REMARK    1  A    between atoms: C_2  and  C_20
REMARK    2  A    between atoms: N_3  and  C_4
REMARK    3  A    between atoms: C_4  and  C_5
REMARK    4  A    between atoms: C_8  and  C_9
REMARK    5  A    between atoms: C_10  and  C_11
REMARK    6  A    between atoms: C_11  and  C_12
REMARK    7  A    between atoms: C_27  and  O_28
REMARK                            x       y       z     vdW  Elec       q    Type
REMARK                         _______ _______ _______ _____ _____    ______ ____
ROOT
ATOM      1  O   UNL     1      51.857   6.458  16.394  0.00  0.00    +0.000 OA
ATOM      2  C   UNL     1      51.384   5.672  17.210  0.00  0.00    +0.000 C 
ATOM      3  N   UNL     1      50.109   5.775  17.690  0.00  0.00    +0.000 N 
ATOM      4  H   UNL     1      49.740   5.029  18.268  0.00  0.00    +0.000 HD
ENDROOT
BRANCH   2   5
ATOM      5  C   UNL     1      52.169   4.576  17.765  0.00  0.00    +0.000 A 
ATOM      6  C   UNL     1      53.425   4.749  18.331  0.00  0.00    +0.000 A 
ATOM      7  N   UNL     1      53.807   3.553  18.873  0.00  0.00    +0.000 N 
ATOM      8  C   UNL     1      53.040   2.564  18.327  0.00  0.00    +0.000 A 
ATOM      9  N   UNL     1      53.320   1.253  18.363  0.00  0.00    +0.000 NA
ATOM     10  C   UNL     1      52.364   0.531  17.753  0.00  0.00    +0.000 A 
ATOM     11  N   UNL     1      51.164   0.956  17.306  0.00  0.00    +0.000 NA
ATOM     12  C   UNL     1      50.944   2.276  17.348  0.00  0.00    +0.000 A 
ATOM     13  C   UNL     1      51.924   3.167  17.767  0.00  0.00    +0.000 A 
ATOM     14  H   UNL     1      54.573   3.399  19.514  0.00  0.00    +0.000 HD
BRANCH  12  15
ATOM     15  O   UNL     1      49.690   2.663  16.976  0.00  0.00    +0.000 OA
ATOM     16  H   UNL     1      49.870   2.979  16.069  0.00  0.00    +0.000 HD
ENDBRANCH  12  15
ENDBRANCH   2   5
BRANCH   3  17
ATOM     17  C   UNL     1      49.185   6.704  17.089  0.00  0.00    +0.000 C 
BRANCH  17  18
ATOM     18  C   UNL     1      48.436   6.063  15.964  0.00  0.00    +0.000 A 
ATOM     19  C   UNL     1      48.443   6.601  14.679  0.00  0.00    +0.000 A 
ATOM     20  C   UNL     1      47.685   6.000  13.673  0.00  0.00    +0.000 A 
ATOM     21  C   UNL     1      46.936   4.874  14.023  0.00  0.00    +0.000 A 
ATOM     22  N   UNL     1      46.908   4.328  15.241  0.00  0.00    +0.000 NA
ATOM     23  C   UNL     1      47.662   4.931  16.192  0.00  0.00    +0.000 A 
BRANCH  21  24
ATOM     24  C   UNL     1      46.060   4.270  13.077  0.00  0.00    +0.000 C 
ATOM     25  C   UNL     1      45.307   3.672  12.196  0.00  0.00    +0.000 C 
BRANCH  25  26
ATOM     26  C   UNL     1      44.429   2.976  11.169  0.00  0.00    +0.000 C 
BRANCH  26  27
ATOM     27  C   UNL     1      45.008   3.132   9.792  0.00  0.00    +0.000 A 
ATOM     28  C   UNL     1      45.417   2.026   9.040  0.00  0.00    +0.000 A 
ATOM     29  C   UNL     1      45.989   2.217   7.786  0.00  0.00    +0.000 A 
ATOM     30  C   UNL     1      46.142   3.514   7.325  0.00  0.00    +0.000 A 
ATOM     31  N   UNL     1      45.770   4.607   8.024  0.00  0.00    +0.000 NA
ATOM     32  C   UNL     1      45.219   4.392   9.240  0.00  0.00    +0.000 A 
ENDBRANCH  26  27
ENDBRANCH  25  26
ENDBRANCH  21  24
ENDBRANCH  17  18
ENDBRANCH   3  17
TORSDOF 7
ENDMDL
MODEL 5
REMARK VINA RESULT:    -7.233      2.649      9.461
REMARK INTER + INTRA:         -11.075
REMARK INTER:                 -10.124
REMARK INTRA:                  -0.951
REMARK UNBOUND:                -1.093
REMARK  Name = 
REMARK  7 active torsions:
REMARK  status: ('A' for Active; 'I' for Inactive)
REMARK    1  A    between atoms: C_2  and  C_20
REMARK    2  A    between atoms: N_3  and  C_4
REMARK    3  A    between atoms: C_4  and  C_5
REMARK    4  A    between atoms: C_8  and  C_9
REMARK    5  A    between atoms: C_10  and  C_11
REMARK    6  A    between atoms: C_11  and  C_12
REMARK    7  A    between atoms: C_27  and  O_28
REMARK                            x       y       z     vdW  Elec       q    Type
REMARK                         _______ _______ _______ _____ _____    ______ ____
ROOT
ATOM      1  O   UNL     1      43.437   5.048  10.010  0.00  0.00    +0.000 OA
ATOM      2  C   UNL     1      44.586   4.631   9.899  0.00  0.00    +0.000 C 
ATOM      3  N   UNL     1      45.684   5.383  10.210  0.00  0.00    +0.000 N 
ATOM      4  H   UNL     1      46.597   4.943  10.210  0.00  0.00    +0.000 HD
ENDROOT
BRANCH   2   5
ATOM      5  C   UNL     1      44.873   3.297   9.386  0.00  0.00    +0.000 A 
ATOM      6  C   UNL     1      44.285   2.145   9.890  0.00  0.00    +0.000 A 
ATOM      7  N   UNL     1      44.665   1.099   9.094  0.00  0.00    +0.000 N 
ATOM      8  C   UNL     1      45.764   1.478   8.376  0.00  0.00    +0.000 A 
ATOM      9  N   UNL     1      46.601   0.646   7.739  0.00  0.00    +0.000 NA
ATOM     10  C   UNL     1      47.576   1.323   7.107  0.00  0.00    +0.000 A 
ATOM     11  N   UNL     1      47.674   2.655   6.922  0.00  0.00    +0.000 NA
ATOM     12  C   UNL     1      46.770   3.414   7.555  0.00  0.00    +0.000 A 
ATOM     13  C   UNL     1      45.823   2.862   8.409  0.00  0.00    +0.000 A 
ATOM     14  H   UNL     1      44.261   0.174   9.080  0.00  0.00    +0.000 HD
BRANCH  12  15
ATOM     15  O   UNL     1      46.840   4.748   7.275  0.00  0.00    +0.000 OA
ATOM     16  H   UNL     1      45.911   5.005   7.436  0.00  0.00    +0.000 HD
ENDBRANCH  12  15
ENDBRANCH   2   5
BRANCH   3  17
ATOM     17  C   UNL     1      45.525   6.645  10.888  0.00  0.00    +0.000 C 
BRANCH  17  18
ATOM     18  C   UNL     1      46.408   6.721  12.092  0.00  0.00    +0.000 A 
ATOM     19  C   UNL     1      47.035   7.908  12.467  0.00  0.00    +0.000 A 
ATOM     20  C   UNL     1      47.894   7.919  13.567  0.00  0.00    +0.000 A 
ATOM     21  C   UNL     1      48.090   6.710  14.238  0.00  0.00    +0.000 A 
ATOM     22  N   UNL     1      47.504   5.555  13.910  0.00  0.00    +0.000 NA
ATOM     23  C   UNL     1      46.669   5.581  12.843  0.00  0.00    +0.000 A 
BRANCH  21  24
ATOM     24  C   UNL     1      49.031   6.622  15.303  0.00  0.00    +0.000 C 
ATOM     25  C   UNL     1      49.858   6.591  16.311  0.00  0.00    +0.000 C 
BRANCH  25  26
ATOM     26  C   UNL     1      50.822   6.555  17.485  0.00  0.00    +0.000 C 
BRANCH  26  27
ATOM     27  C   UNL     1      50.151   5.976  18.697  0.00  0.00    +0.000 A 
ATOM     28  C   UNL     1      49.442   4.773  18.637  0.00  0.00    +0.000 A 
ATOM     29  C   UNL     1      48.798   4.293  19.773  0.00  0.00    +0.000 A 
ATOM     30  C   UNL     1      48.877   5.039  20.937  0.00  0.00    +0.000 A 
ATOM     31  N   UNL     1      49.543   6.210  21.033  0.00  0.00    +0.000 NA
ATOM     32  C   UNL     1      50.157   6.653  19.913  0.00  0.00    +0.000 A 
ENDBRANCH  26  27
ENDBRANCH  25  26
ENDBRANCH  21  24
ENDBRANCH  17  18
ENDBRANCH   3  17
TORSDOF 7
ENDMDL
MODEL 6
REMARK VINA RESULT:    -7.085      1.856      2.072
REMARK INTER + INTRA:         -10.871
REMARK INTER:                  -9.910
REMARK INTRA:                  -0.961
REMARK UNBOUND:                -1.093
REMARK  Name = 
REMARK  7 active torsions:
REMARK  status: ('A' for Active; 'I' for Inactive)
REMARK    1  A    between atoms: C_2  and  C_20
REMARK    2  A    between atoms: N_3  and  C_4
REMARK    3  A    between atoms: C_4  and  C_5
REMARK    4  A    between atoms: C_8  and  C_9
REMARK    5  A    between atoms: C_10  and  C_11
REMARK    6  A    between atoms: C_11  and  C_12
REMARK    7  A    between atoms: C_27  and  O_28
REMARK                            x       y       z     vdW  Elec       q    Type
REMARK                         _______ _______ _______ _____ _____    ______ ____
ROOT
ATOM      1  O   UNL     1      49.009  10.178  17.201  0.00  0.00    +0.000 OA
ATOM      2  C   UNL     1      48.349   9.142  17.226  0.00  0.00    +0.000 C 
ATOM      3  N   UNL     1      47.807   8.579  16.105  0.00  0.00    +0.000 N 
ATOM      4  H   UNL     1      47.376   7.664  16.175  0.00  0.00    +0.000 HD
ENDROOT
BRANCH   2   5
ATOM      5  C   UNL     1      48.060   8.445  18.473  0.00  0.00    +0.000 A 
ATOM      6  C   UNL     1      47.688   9.097  19.641  0.00  0.00    +0.000 A 
ATOM      7  N   UNL     1      47.358   8.143  20.564  0.00  0.00    +0.000 N 
ATOM      8  C   UNL     1      47.886   6.949  20.162  0.00  0.00    +0.000 A 
ATOM      9  N   UNL     1      48.048   5.869  20.941  0.00  0.00    +0.000 NA
ATOM     10  C   UNL     1      48.577   4.844  20.251  0.00  0.00    +0.000 A 
ATOM     11  N   UNL     1      48.772   4.755  18.919  0.00  0.00    +0.000 NA
ATOM     12  C   UNL     1      48.541   5.864  18.206  0.00  0.00    +0.000 A 
ATOM     13  C   UNL     1      48.183   7.061  18.813  0.00  0.00    +0.000 A 
ATOM     14  H   UNL     1      46.871   8.292  21.437  0.00  0.00    +0.000 HD
BRANCH  12  15
ATOM     15  O   UNL     1      48.658   5.715  16.854  0.00  0.00    +0.000 OA
ATOM     16  H   UNL     1      49.589   5.425  16.795  0.00  0.00    +0.000 HD
ENDBRANCH  12  15
ENDBRANCH   2   5
BRANCH   3  17
ATOM     17  C   UNL     1      48.168   9.075  14.801  0.00  0.00    +0.000 C 
BRANCH  17  18
ATOM     18  C   UNL     1      47.509   8.276  13.722  0.00  0.00    +0.000 A 
ATOM     19  C   UNL     1      46.600   8.851  12.837  0.00  0.00    +0.000 A 
ATOM     20  C   UNL     1      45.968   8.056  11.880  0.00  0.00    +0.000 A 
ATOM     21  C   UNL     1      46.280   6.695  11.872  0.00  0.00    +0.000 A 
ATOM     22  N   UNL     1      47.148   6.109  12.702  0.00  0.00    +0.000 NA
ATOM     23  C   UNL     1      47.751   6.911  13.612  0.00  0.00    +0.000 A 
BRANCH  21  24
ATOM     24  C   UNL     1      45.598   5.804  10.995  0.00  0.00    +0.000 C 
ATOM     25  C   UNL     1      45.033   4.956  10.182  0.00  0.00    +0.000 C 
BRANCH  25  26
ATOM     26  C   UNL     1      44.374   3.968   9.234  0.00  0.00    +0.000 C 
BRANCH  26  27
ATOM     27  C   UNL     1      45.413   3.146   8.527  0.00  0.00    +0.000 A 
ATOM     28  C   UNL     1      46.270   3.709   7.577  0.00  0.00    +0.000 A 
ATOM     29  C   UNL     1      47.190   2.904   6.913  0.00  0.00    +0.000 A 
ATOM     30  C   UNL     1      47.220   1.553   7.217  0.00  0.00    +0.000 A 
ATOM     31  N   UNL     1      46.404   0.970   8.121  0.00  0.00    +0.000 NA
ATOM     32  C   UNL     1      45.518   1.776   8.749  0.00  0.00    +0.000 A 
ENDBRANCH  26  27
ENDBRANCH  25  26
ENDBRANCH  21  24
ENDBRANCH  17  18
ENDBRANCH   3  17
TORSDOF 7
ENDMDL
MODEL 7
REMARK VINA RESULT:    -7.053      1.648      2.204
REMARK INTER + INTRA:         -10.826
REMARK INTER:                 -10.101
REMARK INTRA:                  -0.725
REMARK UNBOUND:                -1.093
REMARK  Name = 
REMARK  7 active torsions:
REMARK  status: ('A' for Active; 'I' for Inactive)
REMARK    1  A    between atoms: C_2  and  C_20
REMARK    2  A    between atoms: N_3  and  C_4
REMARK    3  A    between atoms: C_4  and  C_5
REMARK    4  A    between atoms: C_8  and  C_9
REMARK    5  A    between atoms: C_10  and  C_11
REMARK    6  A    between atoms: C_11  and  C_12
REMARK    7  A    between atoms: C_27  and  O_28
REMARK                            x       y       z     vdW  Elec       q    Type
REMARK                         _______ _______ _______ _____ _____    ______ ____
ROOT
ATOM      1  O   UNL     1      50.731   7.183  16.210  0.00  0.00    +0.000 OA
ATOM      2  C   UNL     1      49.649   6.886  16.709  0.00  0.00    +0.000 C 
ATOM      3  N   UNL     1      48.477   7.497  16.362  0.00  0.00    +0.000 N 
ATOM      4  H   UNL     1      47.605   7.127  16.722  0.00  0.00    +0.000 HD
ENDROOT
BRANCH   2   5
ATOM      5  C   UNL     1      49.535   5.871  17.749  0.00  0.00    +0.000 A 
ATOM      6  C   UNL     1      49.801   4.526  17.533  0.00  0.00    +0.000 A 
ATOM      7  N   UNL     1      49.736   3.888  18.741  0.00  0.00    +0.000 N 
ATOM      8  C   UNL     1      49.057   4.686  19.617  0.00  0.00    +0.000 A 
ATOM      9  N   UNL     1      48.521   4.285  20.780  0.00  0.00    +0.000 NA
ATOM     10  C   UNL     1      47.933   5.308  21.426  0.00  0.00    +0.000 A 
ATOM     11  N   UNL     1      47.988   6.621  21.121  0.00  0.00    +0.000 NA
ATOM     12  C   UNL     1      48.582   6.942  19.965  0.00  0.00    +0.000 A 
ATOM     13  C   UNL     1      49.059   5.970  19.095  0.00  0.00    +0.000 A 
ATOM     14  H   UNL     1      50.062   2.955  18.949  0.00  0.00    +0.000 HD
BRANCH  12  15
ATOM     15  O   UNL     1      48.703   8.281  19.732  0.00  0.00    +0.000 OA
ATOM     16  H   UNL     1      47.764   8.517  19.604  0.00  0.00    +0.000 HD
ENDBRANCH  12  15
ENDBRANCH   2   5
BRANCH   3  17
ATOM     17  C   UNL     1      48.435   8.386  15.228  0.00  0.00    +0.000 C 
BRANCH  17  18
ATOM     18  C   UNL     1      47.739   7.744  14.070  0.00  0.00    +0.000 A 
ATOM     19  C   UNL     1      46.853   8.454  13.263  0.00  0.00    +0.000 A 
ATOM     20  C   UNL     1      46.185   7.801  12.226  0.00  0.00    +0.000 A 
ATOM     21  C   UNL     1      46.439   6.438  12.062  0.00  0.00    +0.000 A 
ATOM     22  N   UNL     1      47.283   5.725  12.812  0.00  0.00    +0.000 NA
ATOM     23  C   UNL     1      47.922   6.392  13.804  0.00  0.00    +0.000 A 
BRANCH  21  24
ATOM     24  C   UNL     1      45.717   5.682  11.093  0.00  0.00    +0.000 C 
ATOM     25  C   UNL     1      45.109   4.947  10.205  0.00  0.00    +0.000 C 
BRANCH  25  26
ATOM     26  C   UNL     1      44.399   4.091   9.169  0.00  0.00    +0.000 C 
BRANCH  26  27
ATOM     27  C   UNL     1      45.375   3.170   8.494  0.00  0.00    +0.000 A 
ATOM     28  C   UNL     1      46.226   3.620   7.480  0.00  0.00    +0.000 A 
ATOM     29  C   UNL     1      47.084   2.725   6.849  0.00  0.00    +0.000 A 
ATOM     30  C   UNL     1      47.059   1.399   7.250  0.00  0.00    +0.000 A 
ATOM     31  N   UNL     1      46.246   0.923   8.217  0.00  0.00    +0.000 NA
ATOM     32  C   UNL     1      45.421   1.815   8.810  0.00  0.00    +0.000 A 
ENDBRANCH  26  27
ENDBRANCH  25  26
ENDBRANCH  21  24
ENDBRANCH  17  18
ENDBRANCH   3  17
TORSDOF 7
ENDMDL
MODEL 8
REMARK VINA RESULT:    -6.678      3.441      4.530
REMARK INTER + INTRA:         -10.309
REMARK INTER:                  -9.345
REMARK INTRA:                  -0.964
REMARK UNBOUND:                -1.093
REMARK  Name = 
REMARK  7 active torsions:
REMARK  status: ('A' for Active; 'I' for Inactive)
REMARK    1  A    between atoms: C_2  and  C_20
REMARK    2  A    between atoms: N_3  and  C_4
REMARK    3  A    between atoms: C_4  and  C_5
REMARK    4  A    between atoms: C_8  and  C_9
REMARK    5  A    between atoms: C_10  and  C_11
REMARK    6  A    between atoms: C_11  and  C_12
REMARK    7  A    between atoms: C_27  and  O_28
REMARK                            x       y       z     vdW  Elec       q    Type
REMARK                         _______ _______ _______ _____ _____    ______ ____
ROOT
ATOM      1  O   UNL     1      49.719   8.529  17.142  0.00  0.00    +0.000 OA
ATOM      2  C   UNL     1      48.683   8.306  17.762  0.00  0.00    +0.000 C 
ATOM      3  N   UNL     1      48.074   7.083  17.778  0.00  0.00    +0.000 N 
ATOM      4  H   UNL     1      47.289   6.933  18.402  0.00  0.00    +0.000 HD
ENDROOT
BRANCH   2   5
ATOM      5  C   UNL     1      47.994   9.352  18.508  0.00  0.00    +0.000 A 
ATOM      6  C   UNL     1      47.848  10.651  18.040  0.00  0.00    +0.000 A 
ATOM      7  N   UNL     1      47.037  11.321  18.914  0.00  0.00    +0.000 N 
ATOM      8  C   UNL     1      47.004  10.630  20.092  0.00  0.00    +0.000 A 
ATOM      9  N   UNL     1      46.587  11.119  21.269  0.00  0.00    +0.000 NA
ATOM     10  C   UNL     1      46.657  10.189  22.238  0.00  0.00    +0.000 A 
ATOM     11  N   UNL     1      46.915   8.872  22.104  0.00  0.00    +0.000 NA
ATOM     12  C   UNL     1      47.279   8.455  20.885  0.00  0.00    +0.000 A 
ATOM     13  C   UNL     1      47.446   9.343  19.829  0.00  0.00    +0.000 A 
ATOM     14  H   UNL     1      46.591  12.214  18.759  0.00  0.00    +0.000 HD
BRANCH  12  15
ATOM     15  O   UNL     1      47.443   7.106  20.762  0.00  0.00    +0.000 OA
ATOM     16  H   UNL     1      48.155   6.961  21.415  0.00  0.00    +0.000 HD
ENDBRANCH  12  15
ENDBRANCH   2   5
BRANCH   3  17
ATOM     17  C   UNL     1      48.748   5.934  17.228  0.00  0.00    +0.000 C 
BRANCH  17  18
ATOM     18  C   UNL     1      48.085   5.476  15.968  0.00  0.00    +0.000 A 
ATOM     19  C   UNL     1      48.113   6.243  14.805  0.00  0.00    +0.000 A 
ATOM     20  C   UNL     1      47.434   5.801  13.668  0.00  0.00    +0.000 A 
ATOM     21  C   UNL     1      46.741   4.593  13.767  0.00  0.00    +0.000 A 
ATOM     22  N   UNL     1      46.695   3.830  14.862  0.00  0.00    +0.000 NA
ATOM     23  C   UNL     1      47.372   4.283  15.944  0.00  0.00    +0.000 A 
BRANCH  21  24
ATOM     24  C   UNL     1      45.941   4.131  12.682  0.00  0.00    +0.000 C 
ATOM     25  C   UNL     1      45.201   3.649  11.723  0.00  0.00    +0.000 C 
BRANCH  25  26
ATOM     26  C   UNL     1      44.338   3.088  10.605  0.00  0.00    +0.000 C 
BRANCH  26  27
ATOM     27  C   UNL     1      45.111   3.046   9.318  0.00  0.00    +0.000 A 
ATOM     28  C   UNL     1      45.595   1.843   8.794  0.00  0.00    +0.000 A 
ATOM     29  C   UNL     1      46.344   1.853   7.621  0.00  0.00    +0.000 A 
ATOM     30  C   UNL     1      46.593   3.071   7.011  0.00  0.00    +0.000 A 
ATOM     31  N   UNL     1      46.152   4.253   7.490  0.00  0.00    +0.000 NA
ATOM     32  C   UNL     1      45.429   4.214   8.632  0.00  0.00    +0.000 A 
ENDBRANCH  26  27
ENDBRANCH  25  26
ENDBRANCH  21  24
ENDBRANCH  17  18
ENDBRANCH   3  17
TORSDOF 7
ENDMDL
MODEL 9
REMARK VINA RESULT:    -6.596      4.545      7.190
REMARK INTER + INTRA:         -10.195
REMARK INTER:                  -9.241
REMARK INTRA:                  -0.954
REMARK UNBOUND:                -1.093
REMARK  Name = 
REMARK  7 active torsions:
REMARK  status: ('A' for Active; 'I' for Inactive)
REMARK    1  A    between atoms: C_2  and  C_20
REMARK    2  A    between atoms: N_3  and  C_4
REMARK    3  A    between atoms: C_4  and  C_5
REMARK    4  A    between atoms: C_8  and  C_9
REMARK    5  A    between atoms: C_10  and  C_11
REMARK    6  A    between atoms: C_11  and  C_12
REMARK    7  A    between atoms: C_27  and  O_28
REMARK                            x       y       z     vdW  Elec       q    Type
REMARK                         _______ _______ _______ _____ _____    ______ ____
ROOT
ATOM      1  O   UNL     1      44.861   7.916  11.068  0.00  0.00    +0.000 OA
ATOM      2  C   UNL     1      44.947   7.058  11.943  0.00  0.00    +0.000 C 
ATOM      3  N   UNL     1      45.707   7.217  13.067  0.00  0.00    +0.000 N 
ATOM      4  H   UNL     1      45.642   6.525  13.805  0.00  0.00    +0.000 HD
ENDROOT
BRANCH   2   5
ATOM      5  C   UNL     1      44.265   5.775  11.831  0.00  0.00    +0.000 A 
ATOM      6  C   UNL     1      43.417   5.275  12.810  0.00  0.00    +0.000 A 
ATOM      7  N   UNL     1      42.844   4.133  12.323  0.00  0.00    +0.000 N 
ATOM      8  C   UNL     1      43.589   3.690  11.268  0.00  0.00    +0.000 A 
ATOM      9  N   UNL     1      43.536   2.457  10.741  0.00  0.00    +0.000 NA
ATOM     10  C   UNL     1      44.377   2.334   9.699  0.00  0.00    +0.000 A 
ATOM     11  N   UNL     1      45.074   3.307   9.078  0.00  0.00    +0.000 NA
ATOM     12  C   UNL     1      45.037   4.521   9.641  0.00  0.00    +0.000 A 
ATOM     13  C   UNL     1      44.370   4.751  10.838  0.00  0.00    +0.000 A 
ATOM     14  H   UNL     1      42.050   3.644  12.711  0.00  0.00    +0.000 HD
BRANCH  12  15
ATOM     15  O   UNL     1      45.676   5.502   8.939  0.00  0.00    +0.000 OA
ATOM     16  H   UNL     1      45.673   6.218   9.604  0.00  0.00    +0.000 HD
ENDBRANCH  12  15
ENDBRANCH   2   5
BRANCH   3  17
ATOM     17  C   UNL     1      46.283   8.502  13.373  0.00  0.00    +0.000 C 
BRANCH  17  18
ATOM     18  C   UNL     1      47.655   8.627  12.792  0.00  0.00    +0.000 A 
ATOM     19  C   UNL     1      48.003   9.686  11.957  0.00  0.00    +0.000 A 
ATOM     20  C   UNL     1      49.279   9.733  11.393  0.00  0.00    +0.000 A 
ATOM     21  C   UNL     1      50.151   8.685  11.696  0.00  0.00    +0.000 A 
ATOM     22  N   UNL     1      49.854   7.656  12.495  0.00  0.00    +0.000 NA
ATOM     23  C   UNL     1      48.611   7.646  13.033  0.00  0.00    +0.000 A 
BRANCH  21  24
ATOM     24  C   UNL     1      51.431   8.610  11.077  0.00  0.00    +0.000 C 
ATOM     25  C   UNL     1      52.572   8.537  10.449  0.00  0.00    +0.000 C 
BRANCH  25  26
ATOM     26  C   UNL     1      53.902   8.450   9.719  0.00  0.00    +0.000 C 
BRANCH  26  27
ATOM     27  C   UNL     1      53.945   7.225   8.852  0.00  0.00    +0.000 A 
ATOM     28  C   UNL     1      52.910   6.921   7.962  0.00  0.00    +0.000 A 
ATOM     29  C   UNL     1      52.968   5.753   7.208  0.00  0.00    +0.000 A 
ATOM     30  C   UNL     1      54.061   4.918   7.374  0.00  0.00    +0.000 A 
ATOM     31  N   UNL     1      55.075   5.171   8.229  0.00  0.00    +0.000 NA
ATOM     32  C   UNL     1      54.990   6.312   8.950  0.00  0.00    +0.000 A 
ENDBRANCH  26  27
ENDBRANCH  25  26
ENDBRANCH  21  24
ENDBRANCH  17  18
ENDBRANCH   3  17
TORSDOF 7
ENDMDL
