MODEL 1
REMARK VINA RESULT:    -8.260      0.000      0.000
REMARK INTER + INTRA:         -11.992
REMARK INTER:                 -11.157
REMARK INTRA:                  -0.835
REMARK UNBOUND:                -0.835
REMARK  Name = 
REMARK  6 active torsions:
REMARK  status: ('A' for Active; 'I' for Inactive)
REMARK    1  A    between atoms: C_2  and  C_4
REMARK    2  A    between atoms: C_7  and  O_8
REMARK    3  A    between atoms: O_8  and  C_9
REMARK    4  A    between atoms: C_9  and  C_10
REMARK    5  A    between atoms: C_10  and  C_11
REMARK    6  A    between atoms: C_15  and  C_16
REMARK                            x       y       z     vdW  Elec       q    Type
REMARK                         _______ _______ _______ _____ _____    ______ ____
ROOT
ATOM      1  C   UNL     1      45.112   6.546  12.590  0.00  0.00    +0.000 C 
ENDROOT
BRANCH   1   2
ATOM      2  O   UNL     1      46.471   6.099  12.502  0.00  0.00    +0.000 OA
BRANCH   2   6
ATOM      3  C   UNL     1      47.775   3.668  15.562  0.00  0.00    +0.000 A 
ATOM      4  C   UNL     1      47.910   5.038  15.744  0.00  0.00    +0.000 A 
ATOM      5  C   UNL     1      47.484   5.895  14.732  0.00  0.00    +0.000 A 
ATOM      6  C   UNL     1      46.929   5.369  13.566  0.00  0.00    +0.000 A 
ATOM      7  C   UNL     1      46.835   3.981  13.478  0.00  0.00    +0.000 A 
ATOM      8  N   UNL     1      47.244   3.110  14.438  0.00  0.00    +0.000 NA
BRANCH   3  10
ATOM      9  N   UNL     1      47.558   2.824  17.833  0.00  0.00    +0.000 N 
ATOM     10  C   UNL     1      48.234   2.745  16.647  0.00  0.00    +0.000 C 
ATOM     11  O   UNL     1      49.154   1.951  16.488  0.00  0.00    +0.000 OA
ATOM     12  H   UNL     1      47.796   2.181  18.573  0.00  0.00    +0.000 HD
ATOM     13  H   UNL     1      46.742   3.421  17.910  0.00  0.00    +0.000 HD
ENDBRANCH   3  10
ENDBRANCH   2   6
ENDBRANCH   1   2
BRANCH   1  14
ATOM     14  C   UNL     1      44.446   6.455  11.217  0.00  0.00    +0.000 C 
BRANCH  14  15
ATOM     15  C   UNL     1      44.354   5.032  10.735  0.00  0.00    +0.000 A 
ATOM     16  C   UNL     1      43.550   4.103  11.380  0.00  0.00    +0.000 A 
ATOM     17  N   UNL     1      43.448   2.811  11.014  0.00  0.00    +0.000 NA
ATOM     18  C   UNL     1      44.185   2.415   9.946  0.00  0.00    +0.000 A 
ATOM     19  C   UNL     1      45.045   3.239   9.217  0.00  0.00    +0.000 A 
ATOM     20  C   UNL     1      45.111   4.577   9.646  0.00  0.00    +0.000 A 
BRANCH  19  21
ATOM     21  C   UNL     1      45.856   2.739   8.091  0.00  0.00    +0.000 A 
ATOM     22  C   UNL     1      46.153   3.531   6.971  0.00  0.00    +0.000 A 
ATOM     23  C   UNL     1      46.980   3.052   5.956  0.00  0.00    +0.000 A 
ATOM     24  C   UNL     1      47.488   1.771   6.073  0.00  0.00    +0.000 A 
ATOM     25  N   UNL     1      47.214   0.955   7.109  0.00  0.00    +0.000 NA
ATOM     26  C   UNL     1      46.413   1.456   8.082  0.00  0.00    +0.000 A 
ENDBRANCH  19  21
ENDBRANCH  14  15
ENDBRANCH   1  14
TORSDOF 6
ENDMDL
MODEL 2
REMARK VINA RESULT:    -8.149      3.080      7.262
REMARK INTER + INTRA:         -11.842
REMARK INTER:                 -10.923
REMARK INTRA:                  -0.920
REMARK UNBOUND:                -0.835
REMARK  Name = 
REMARK  6 active torsions:
REMARK  status: ('A' for Active; 'I' for Inactive)
REMARK    1  A    between atoms: C_2  and  C_4
REMARK    2  A    between atoms: C_7  and  O_8
REMARK    3  A    between atoms: O_8  and  C_9
REMARK    4  A    between atoms: C_9  and  C_10
REMARK    5  A    between atoms: C_10  and  C_11
REMARK    6  A    between atoms: C_15  and  C_16
REMARK                            x       y       z     vdW  Elec       q    Type
REMARK                         _______ _______ _______ _____ _____    ______ ____
ROOT
ATOM      1  C   UNL     1      43.613   2.907  11.741  0.00  0.00    +0.000 C 
ENDROOT
BRANCH   1   2
ATOM      2  O   UNL     1      43.435   3.582  10.489  0.00  0.00    +0.000 OA
BRANCH   2   6
ATOM      3  C   UNL     1      46.355   2.667   7.731  0.00  0.00    +0.000 A 
ATOM      4  C   UNL     1      46.021   4.008   7.874  0.00  0.00    +0.000 A 
ATOM      5  C   UNL     1      45.037   4.359   8.794  0.00  0.00    +0.000 A 
ATOM      6  C   UNL     1      44.412   3.370   9.553  0.00  0.00    +0.000 A 
ATOM      7  C   UNL     1      44.816   2.054   9.338  0.00  0.00    +0.000 A 
ATOM      8  N   UNL     1      45.767   1.667   8.447  0.00  0.00    +0.000 NA
BRANCH   3  10
ATOM      9  N   UNL     1      47.480   3.048   5.609  0.00  0.00    +0.000 N 
ATOM     10  C   UNL     1      47.411   2.285   6.741  0.00  0.00    +0.000 C 
ATOM     11  O   UNL     1      48.183   1.352   6.931  0.00  0.00    +0.000 OA
ATOM     12  H   UNL     1      48.213   2.862   4.940  0.00  0.00    +0.000 HD
ATOM     13  H   UNL     1      46.894   3.871   5.517  0.00  0.00    +0.000 HD
ENDBRANCH   3  10
ENDBRANCH   2   6
ENDBRANCH   1   2
BRANCH   1  14
ATOM     14  C   UNL     1      43.624   3.925  12.882  0.00  0.00    +0.000 C 
BRANCH  14  15
ATOM     15  C   UNL     1      44.918   4.692  12.933  0.00  0.00    +0.000 A 
ATOM     16  C   UNL     1      46.101   4.086  13.333  0.00  0.00    +0.000 A 
ATOM     17  N   UNL     1      47.282   4.726  13.424  0.00  0.00    +0.000 NA
ATOM     18  C   UNL     1      47.294   6.043  13.103  0.00  0.00    +0.000 A 
ATOM     19  C   UNL     1      46.177   6.780  12.701  0.00  0.00    +0.000 A 
ATOM     20  C   UNL     1      44.972   6.058  12.624  0.00  0.00    +0.000 A 
BRANCH  19  21
ATOM     21  C   UNL     1      46.244   8.224  12.407  0.00  0.00    +0.000 A 
ATOM     22  C   UNL     1      47.463   8.910  12.293  0.00  0.00    +0.000 A 
ATOM     23  C   UNL     1      47.492  10.260  11.947  0.00  0.00    +0.000 A 
ATOM     24  C   UNL     1      46.291  10.911  11.734  0.00  0.00    +0.000 A 
ATOM     25  N   UNL     1      45.090  10.312  11.859  0.00  0.00    +0.000 NA
ATOM     26  C   UNL     1      45.098   8.996  12.189  0.00  0.00    +0.000 A 
ENDBRANCH  19  21
ENDBRANCH  14  15
ENDBRANCH   1  14
TORSDOF 6
ENDMDL
MODEL 3
REMARK VINA RESULT:    -7.791      3.069      6.922
REMARK INTER + INTRA:         -11.359
REMARK INTER:                 -10.881
REMARK INTRA:                  -0.477
REMARK UNBOUND:                -0.835
REMARK  Name = 
REMARK  6 active torsions:
REMARK  status: ('A' for Active; 'I' for Inactive)
REMARK    1  A    between atoms: C_2  and  C_4
REMARK    2  A    between atoms: C_7  and  O_8
REMARK    3  A    between atoms: O_8  and  C_9
REMARK    4  A    between atoms: C_9  and  C_10
REMARK    5  A    between atoms: C_10  and  C_11
REMARK    6  A    between atoms: C_15  and  C_16
REMARK                            x       y       z     vdW  Elec       q    Type
REMARK                         _______ _______ _______ _____ _____    ______ ____
ROOT
ATOM      1  C   UNL     1      43.460   2.937  11.607  0.00  0.00    +0.000 C 
ENDROOT
BRANCH   1   2
ATOM      2  O   UNL     1      43.424   3.646  10.362  0.00  0.00    +0.000 OA
BRANCH   2   6
ATOM      3  C   UNL     1      46.361   2.404   7.754  0.00  0.00    +0.000 A 
ATOM      4  C   UNL     1      45.999   3.744   7.703  0.00  0.00    +0.000 A 
ATOM      5  C   UNL     1      45.008   4.204   8.567  0.00  0.00    +0.000 A 
ATOM      6  C   UNL     1      44.404   3.322   9.463  0.00  0.00    +0.000 A 
ATOM      7  C   UNL     1      44.837   1.997   9.438  0.00  0.00    +0.000 A 
ATOM      8  N   UNL     1      45.795   1.506   8.609  0.00  0.00    +0.000 NA
BRANCH   3  10
ATOM      9  N   UNL     1      48.439   2.780   6.548  0.00  0.00    +0.000 N 
ATOM     10  C   UNL     1      47.425   1.907   6.826  0.00  0.00    +0.000 C 
ATOM     11  O   UNL     1      47.403   0.779   6.346  0.00  0.00    +0.000 OA
ATOM     12  H   UNL     1      49.207   2.466   5.972  0.00  0.00    +0.000 HD
ATOM     13  H   UNL     1      48.485   3.671   7.029  0.00  0.00    +0.000 HD
ENDBRANCH   3  10
ENDBRANCH   2   6
ENDBRANCH   1   2
BRANCH   1  14
ATOM     14  C   UNL     1      43.442   3.930  12.770  0.00  0.00    +0.000 C 
BRANCH  14  15
ATOM     15  C   UNL     1      44.089   5.237  12.398  0.00  0.00    +0.000 A 
ATOM     16  C   UNL     1      43.403   6.201  11.672  0.00  0.00    +0.000 A 
ATOM     17  N   UNL     1      43.937   7.375  11.286  0.00  0.00    +0.000 NA
ATOM     18  C   UNL     1      45.225   7.610  11.638  0.00  0.00    +0.000 A 
ATOM     19  C   UNL     1      46.035   6.724  12.353  0.00  0.00    +0.000 A 
ATOM     20  C   UNL     1      45.423   5.514  12.728  0.00  0.00    +0.000 A 
BRANCH  19  21
ATOM     21  C   UNL     1      47.446   7.017  12.667  0.00  0.00    +0.000 A 
ATOM     22  C   UNL     1      48.273   7.744  11.797  0.00  0.00    +0.000 A 
ATOM     23  C   UNL     1      49.582   8.062  12.155  0.00  0.00    +0.000 A 
ATOM     24  C   UNL     1      50.051   7.631  13.382  0.00  0.00    +0.000 A 
ATOM     25  N   UNL     1      49.314   6.905  14.245  0.00  0.00    +0.000 NA
ATOM     26  C   UNL     1      48.042   6.619  13.869  0.00  0.00    +0.000 A 
ENDBRANCH  19  21
ENDBRANCH  14  15
ENDBRANCH   1  14
TORSDOF 6
ENDMDL
MODEL 4
REMARK VINA RESULT:    -7.705      2.436      7.588
REMARK INTER + INTRA:         -11.243
REMARK INTER:                 -10.523
REMARK INTRA:                  -0.720
REMARK UNBOUND:                -0.835
REMARK  Name = 
REMARK  6 active torsions:
REMARK  status: ('A' for Active; 'I' for Inactive)
REMARK    1  A    between atoms: C_2  and  C_4
REMARK    2  A    between atoms: C_7  and  O_8
REMARK    3  A    between atoms: O_8  and  C_9
REMARK    4  A    between atoms: C_9  and  C_10
REMARK    5  A    between atoms: C_10  and  C_11
REMARK    6  A    between atoms: C_15  and  C_16
REMARK                            x       y       z     vdW  Elec       q    Type
REMARK                         _______ _______ _______ _____ _____    ______ ____
ROOT
ATOM      1  C   UNL     1      43.584   3.386  11.621  0.00  0.00    +0.000 C 
ENDROOT
BRANCH   1   2
ATOM      2  O   UNL     1      43.437   3.828  10.265  0.00  0.00    +0.000 OA
BRANCH   2   6
ATOM      3  C   UNL     1      46.388   2.398   7.772  0.00  0.00    +0.000 A 
ATOM      4  C   UNL     1      46.062   3.744   7.656  0.00  0.00    +0.000 A 
ATOM      5  C   UNL     1      45.068   4.266   8.480  0.00  0.00    +0.000 A 
ATOM      6  C   UNL     1      44.425   3.440   9.401  0.00  0.00    +0.000 A 
ATOM      7  C   UNL     1      44.822   2.104   9.442  0.00  0.00    +0.000 A 
ATOM      8  N   UNL     1      45.783   1.553   8.653  0.00  0.00    +0.000 NA
BRANCH   3  10
ATOM      9  N   UNL     1      48.479   2.679   6.562  0.00  0.00    +0.000 N 
ATOM     10  C   UNL     1      47.455   1.833   6.887  0.00  0.00    +0.000 C 
ATOM     11  O   UNL     1      47.428   0.677   6.482  0.00  0.00    +0.000 OA
ATOM     12  H   UNL     1      49.249   2.323   6.014  0.00  0.00    +0.000 HD
ATOM     13  H   UNL     1      48.528   3.599   6.984  0.00  0.00    +0.000 HD
ENDBRANCH   3  10
ENDBRANCH   2   6
ENDBRANCH   1   2
BRANCH   1  14
ATOM     14  C   UNL     1      43.586   4.591  12.562  0.00  0.00    +0.000 C 
BRANCH  14  15
ATOM     15  C   UNL     1      44.981   5.090  12.828  0.00  0.00    +0.000 A 
ATOM     16  C   UNL     1      45.658   5.867  11.899  0.00  0.00    +0.000 A 
ATOM     17  N   UNL     1      46.915   6.319  12.067  0.00  0.00    +0.000 NA
ATOM     18  C   UNL     1      47.540   5.982  13.223  0.00  0.00    +0.000 A 
ATOM     19  C   UNL     1      46.983   5.196  14.235  0.00  0.00    +0.000 A 
ATOM     20  C   UNL     1      45.668   4.752  14.002  0.00  0.00    +0.000 A 
BRANCH  19  21
ATOM     21  C   UNL     1      47.729   4.824  15.451  0.00  0.00    +0.000 A 
ATOM     22  C   UNL     1      48.598   5.716  16.100  0.00  0.00    +0.000 A 
ATOM     23  C   UNL     1      49.235   5.357  17.286  0.00  0.00    +0.000 A 
ATOM     24  C   UNL     1      49.003   4.095  17.801  0.00  0.00    +0.000 A 
ATOM     25  N   UNL     1      48.205   3.186  17.207  0.00  0.00    +0.000 NA
ATOM     26  C   UNL     1      47.594   3.571  16.058  0.00  0.00    +0.000 A 
ENDBRANCH  19  21
ENDBRANCH  14  15
ENDBRANCH   1  14
TORSDOF 6
ENDMDL
MODEL 5
REMARK VINA RESULT:    -7.531      3.696      7.092
REMARK INTER + INTRA:         -11.007
REMARK INTER:                 -10.215
REMARK INTRA:                  -0.792
REMARK UNBOUND:                -0.835
REMARK  Name = 
REMARK  6 active torsions:
REMARK  status: ('A' for Active; 'I' for Inactive)
REMARK    1  A    between atoms: C_2  and  C_4
REMARK    2  A    between atoms: C_7  and  O_8
REMARK    3  A    between atoms: O_8  and  C_9
REMARK    4  A    between atoms: C_9  and  C_10
REMARK    5  A    between atoms: C_10  and  C_11
REMARK    6  A    between atoms: C_15  and  C_16
REMARK                            x       y       z     vdW  Elec       q    Type
REMARK                         _______ _______ _______ _____ _____    ______ ____
ROOT
ATOM      1  C   UNL     1      43.995   4.898  11.283  0.00  0.00    +0.000 C 
ENDROOT
BRANCH   1   2
ATOM      2  O   UNL     1      43.669   4.643   9.910  0.00  0.00    +0.000 OA
BRANCH   2   6
ATOM      3  C   UNL     1      46.190   2.000   8.004  0.00  0.00    +0.000 A 
ATOM      4  C   UNL     1      46.302   3.340   7.656  0.00  0.00    +0.000 A 
ATOM      5  C   UNL     1      45.466   4.266   8.276  0.00  0.00    +0.000 A 
ATOM      6  C   UNL     1      44.543   3.838   9.230  0.00  0.00    +0.000 A 
ATOM      7  C   UNL     1      44.507   2.473   9.511  0.00  0.00    +0.000 A 
ATOM      8  N   UNL     1      45.299   1.536   8.926  0.00  0.00    +0.000 NA
BRANCH   3  10
ATOM      9  N   UNL     1      46.846  -0.312   7.630  0.00  0.00    +0.000 N 
ATOM     10  C   UNL     1      47.085   1.002   7.338  0.00  0.00    +0.000 C 
ATOM     11  O   UNL     1      47.978   1.334   6.566  0.00  0.00    +0.000 OA
ATOM     12  H   UNL     1      47.389  -1.021   7.159  0.00  0.00    +0.000 HD
ATOM     13  H   UNL     1      46.045  -0.566   8.196  0.00  0.00    +0.000 HD
ENDBRANCH   3  10
ENDBRANCH   2   6
ENDBRANCH   1   2
BRANCH   1  14
ATOM     14  C   UNL     1      44.556   6.313  11.428  0.00  0.00    +0.000 C 
BRANCH  14  15
ATOM     15  C   UNL     1      45.954   6.305  11.987  0.00  0.00    +0.000 A 
ATOM     16  C   UNL     1      46.315   5.442  13.012  0.00  0.00    +0.000 A 
ATOM     17  N   UNL     1      47.539   5.406  13.572  0.00  0.00    +0.000 NA
ATOM     18  C   UNL     1      48.461   6.277  13.089  0.00  0.00    +0.000 A 
ATOM     19  C   UNL     1      48.229   7.208  12.073  0.00  0.00    +0.000 A 
ATOM     20  C   UNL     1      46.932   7.198  11.528  0.00  0.00    +0.000 A 
BRANCH  19  21
ATOM     21  C   UNL     1      49.259   8.160  11.621  0.00  0.00    +0.000 A 
ATOM     22  C   UNL     1      49.024   9.542  11.551  0.00  0.00    +0.000 A 
ATOM     23  C   UNL     1      50.041  10.423  11.184  0.00  0.00    +0.000 A 
ATOM     24  C   UNL     1      51.283   9.900  10.877  0.00  0.00    +0.000 A 
ATOM     25  N   UNL     1      51.559   8.582  10.897  0.00  0.00    +0.000 NA
ATOM     26  C   UNL     1      50.550   7.754  11.265  0.00  0.00    +0.000 A 
ENDBRANCH  19  21
ENDBRANCH  14  15
ENDBRANCH   1  14
TORSDOF 6
ENDMDL
MODEL 6
REMARK VINA RESULT:    -7.292      1.281      1.458
REMARK INTER + INTRA:         -10.684
REMARK INTER:                 -10.088
REMARK INTRA:                  -0.596
REMARK UNBOUND:                -0.835
REMARK  Name = 
REMARK  6 active torsions:
REMARK  status: ('A' for Active; 'I' for Inactive)
REMARK    1  A    between atoms: C_2  and  C_4
REMARK    2  A    between atoms: C_7  and  O_8
REMARK    3  A    between atoms: O_8  and  C_9
REMARK    4  A    between atoms: C_9  and  C_10
REMARK    5  A    between atoms: C_10  and  C_11
REMARK    6  A    between atoms: C_15  and  C_16
REMARK                            x       y       z     vdW  Elec       q    Type
REMARK                         _______ _______ _______ _____ _____    ______ ____
ROOT
ATOM      1  C   UNL     1      45.168   5.801  12.760  0.00  0.00    +0.000 C 
ENDROOT
BRANCH   1   2
ATOM      2  O   UNL     1      46.594   5.900  12.862  0.00  0.00    +0.000 OA
BRANCH   2   6
ATOM      3  C   UNL     1      48.400   4.862  16.416  0.00  0.00    +0.000 A 
ATOM      4  C   UNL     1      47.411   4.010  15.938  0.00  0.00    +0.000 A 
ATOM      5  C   UNL     1      46.774   4.327  14.741  0.00  0.00    +0.000 A 
ATOM      6  C   UNL     1      47.138   5.479  14.045  0.00  0.00    +0.000 A 
ATOM      7  C   UNL     1      48.141   6.268  14.604  0.00  0.00    +0.000 A 
ATOM      8  N   UNL     1      48.784   6.000  15.772  0.00  0.00    +0.000 NA
BRANCH   3  10
ATOM      9  N   UNL     1      48.706   5.253  18.796  0.00  0.00    +0.000 N 
ATOM     10  C   UNL     1      49.085   4.525  17.703  0.00  0.00    +0.000 C 
ATOM     11  O   UNL     1      49.930   3.641  17.785  0.00  0.00    +0.000 OA
ATOM     12  H   UNL     1      49.101   5.021  19.696  0.00  0.00    +0.000 HD
ATOM     13  H   UNL     1      47.940   5.913  18.723  0.00  0.00    +0.000 HD
ENDBRANCH   3  10
ENDBRANCH   2   6
ENDBRANCH   1   2
BRANCH   1  14
ATOM     14  C   UNL     1      44.739   5.954  11.300  0.00  0.00    +0.000 C 
BRANCH  14  15
ATOM     15  C   UNL     1      44.620   4.622  10.610  0.00  0.00    +0.000 A 
ATOM     16  C   UNL     1      43.759   3.640  11.083  0.00  0.00    +0.000 A 
ATOM     17  N   UNL     1      43.629   2.421  10.526  0.00  0.00    +0.000 NA
ATOM     18  C   UNL     1      44.395   2.157   9.439  0.00  0.00    +0.000 A 
ATOM     19  C   UNL     1      45.312   3.044   8.869  0.00  0.00    +0.000 A 
ATOM     20  C   UNL     1      45.404   4.302   9.494  0.00  0.00    +0.000 A 
BRANCH  19  21
ATOM     21  C   UNL     1      46.151   2.683   7.712  0.00  0.00    +0.000 A 
ATOM     22  C   UNL     1      46.253   3.500   6.575  0.00  0.00    +0.000 A 
ATOM     23  C   UNL     1      47.109   3.163   5.528  0.00  0.00    +0.000 A 
ATOM     24  C   UNL     1      47.843   1.995   5.629  0.00  0.00    +0.000 A 
ATOM     25  N   UNL     1      47.764   1.157   6.680  0.00  0.00    +0.000 NA
ATOM     26  C   UNL     1      46.928   1.520   7.686  0.00  0.00    +0.000 A 
ENDBRANCH  19  21
ENDBRANCH  14  15
ENDBRANCH   1  14
TORSDOF 6
ENDMDL
MODEL 7
REMARK VINA RESULT:    -7.004      1.764      2.232
REMARK INTER + INTRA:         -10.295
REMARK INTER:                  -9.670
REMARK INTRA:                  -0.624
REMARK UNBOUND:                -0.835
REMARK  Name = 
REMARK  6 active torsions:
REMARK  status: ('A' for Active; 'I' for Inactive)
REMARK    1  A    between atoms: C_2  and  C_4
REMARK    2  A    between atoms: C_7  and  O_8
REMARK    3  A    between atoms: O_8  and  C_9
REMARK    4  A    between atoms: C_9  and  C_10
REMARK    5  A    between atoms: C_10  and  C_11
REMARK    6  A    between atoms: C_15  and  C_16
REMARK                            x       y       z     vdW  Elec       q    Type
REMARK                         _______ _______ _______ _____ _____    ______ ____
ROOT
ATOM      1  C   UNL     1      46.707   4.990  13.588  0.00  0.00    +0.000 C 
ENDROOT
BRANCH   1   2
ATOM      2  O   UNL     1      46.861   3.859  14.455  0.00  0.00    +0.000 OA
BRANCH   2   6
ATOM      3  C   UNL     1      48.674   4.325  18.125  0.00  0.00    +0.000 A 
ATOM      4  C   UNL     1      48.511   5.468  17.352  0.00  0.00    +0.000 A 
ATOM      5  C   UNL     1      47.905   5.353  16.103  0.00  0.00    +0.000 A 
ATOM      6  C   UNL     1      47.471   4.106  15.655  0.00  0.00    +0.000 A 
ATOM      7  C   UNL     1      47.678   3.019  16.503  0.00  0.00    +0.000 A 
ATOM      8  N   UNL     1      48.270   3.086  17.725  0.00  0.00    +0.000 NA
BRANCH   3  10
ATOM      9  N   UNL     1      48.625   3.942  20.526  0.00  0.00    +0.000 N 
ATOM     10  C   UNL     1      49.327   4.445  19.466  0.00  0.00    +0.000 C 
ATOM     11  O   UNL     1      50.432   4.953  19.615  0.00  0.00    +0.000 OA
ATOM     12  H   UNL     1      49.052   3.950  21.441  0.00  0.00    +0.000 HD
ATOM     13  H   UNL     1      47.756   3.443  20.366  0.00  0.00    +0.000 HD
ENDBRANCH   3  10
ENDBRANCH   2   6
ENDBRANCH   1   2
BRANCH   1  14
ATOM     14  C   UNL     1      45.225   5.218  13.291  0.00  0.00    +0.000 C 
BRANCH  14  15
ATOM     15  C   UNL     1      44.699   4.231  12.284  0.00  0.00    +0.000 A 
ATOM     16  C   UNL     1      43.579   3.455  12.551  0.00  0.00    +0.000 A 
ATOM     17  N   UNL     1      43.079   2.537  11.703  0.00  0.00    +0.000 NA
ATOM     18  C   UNL     1      43.724   2.376  10.521  0.00  0.00    +0.000 A 
ATOM     19  C   UNL     1      44.868   3.077  10.131  0.00  0.00    +0.000 A 
ATOM     20  C   UNL     1      45.345   4.022  11.057  0.00  0.00    +0.000 A 
BRANCH  19  21
ATOM     21  C   UNL     1      45.553   2.825   8.849  0.00  0.00    +0.000 A 
ATOM     22  C   UNL     1      45.832   3.852   7.934  0.00  0.00    +0.000 A 
ATOM     23  C   UNL     1      46.541   3.592   6.762  0.00  0.00    +0.000 A 
ATOM     24  C   UNL     1      46.950   2.294   6.516  0.00  0.00    +0.000 A 
ATOM     25  N   UNL     1      46.685   1.263   7.342  0.00  0.00    +0.000 NA
ATOM     26  C   UNL     1      46.000   1.553   8.477  0.00  0.00    +0.000 A 
ENDBRANCH  19  21
ENDBRANCH  14  15
ENDBRANCH   1  14
TORSDOF 6
ENDMDL
MODEL 8
REMARK VINA RESULT:    -6.969      3.407      4.356
REMARK INTER + INTRA:         -10.248
REMARK INTER:                  -9.503
REMARK INTRA:                  -0.744
REMARK UNBOUND:                -0.835
REMARK  Name = 
REMARK  6 active torsions:
REMARK  status: ('A' for Active; 'I' for Inactive)
REMARK    1  A    between atoms: C_2  and  C_4
REMARK    2  A    between atoms: C_7  and  O_8
REMARK    3  A    between atoms: O_8  and  C_9
REMARK    4  A    between atoms: C_9  and  C_10
REMARK    5  A    between atoms: C_10  and  C_11
REMARK    6  A    between atoms: C_15  and  C_16
REMARK                            x       y       z     vdW  Elec       q    Type
REMARK                         _______ _______ _______ _____ _____    ______ ____
ROOT
ATOM      1  C   UNL     1      44.908   6.700  12.583  0.00  0.00    +0.000 C 
ENDROOT
BRANCH   1   2
ATOM      2  O   UNL     1      45.347   8.065  12.583  0.00  0.00    +0.000 OA
BRANCH   2   6
ATOM      3  C   UNL     1      49.264   8.952  11.665  0.00  0.00    +0.000 A 
ATOM      4  C   UNL     1      48.898   7.612  11.637  0.00  0.00    +0.000 A 
ATOM      5  C   UNL     1      47.583   7.269  11.943  0.00  0.00    +0.000 A 
ATOM      6  C   UNL     1      46.664   8.267  12.266  0.00  0.00    +0.000 A 
ATOM      7  C   UNL     1      47.127   9.581  12.266  0.00  0.00    +0.000 A 
ATOM      8  N   UNL     1      48.402   9.959  11.980  0.00  0.00    +0.000 NA
BRANCH   3  10
ATOM      9  N   UNL     1      50.884  10.612  10.932  0.00  0.00    +0.000 N 
ATOM     10  C   UNL     1      50.677   9.323  11.338  0.00  0.00    +0.000 C 
ATOM     11  O   UNL     1      51.604   8.528  11.437  0.00  0.00    +0.000 OA
ATOM     12  H   UNL     1      51.828  10.921  10.756  0.00  0.00    +0.000 HD
ATOM     13  H   UNL     1      50.118  11.276  10.948  0.00  0.00    +0.000 HD
ENDBRANCH   3  10
ENDBRANCH   2   6
ENDBRANCH   1   2
BRANCH   1  14
ATOM     14  C   UNL     1      43.955   6.462  11.412  0.00  0.00    +0.000 C 
BRANCH  14  15
ATOM     15  C   UNL     1      43.981   5.028  10.954  0.00  0.00    +0.000 A 
ATOM     16  C   UNL     1      43.256   4.046  11.615  0.00  0.00    +0.000 A 
ATOM     17  N   UNL     1      43.261   2.745  11.270  0.00  0.00    +0.000 NA
ATOM     18  C   UNL     1      44.029   2.393  10.209  0.00  0.00    +0.000 A 
ATOM     19  C   UNL     1      44.820   3.273   9.465  0.00  0.00    +0.000 A 
ATOM     20  C   UNL     1      44.774   4.619   9.873  0.00  0.00    +0.000 A 
BRANCH  19  21
ATOM     21  C   UNL     1      45.671   2.823   8.349  0.00  0.00    +0.000 A 
ATOM     22  C   UNL     1      46.064   3.683   7.312  0.00  0.00    +0.000 A 
ATOM     23  C   UNL     1      46.925   3.245   6.307  0.00  0.00    +0.000 A 
ATOM     24  C   UNL     1      47.370   1.936   6.349  0.00  0.00    +0.000 A 
ATOM     25  N   UNL     1      47.003   1.057   7.301  0.00  0.00    +0.000 NA
ATOM     26  C   UNL     1      46.171   1.519   8.267  0.00  0.00    +0.000 A 
ENDBRANCH  19  21
ENDBRANCH  14  15
ENDBRANCH   1  14
TORSDOF 6
ENDMDL
MODEL 9
REMARK VINA RESULT:    -6.627      2.319      3.822
REMARK INTER + INTRA:          -9.786
REMARK INTER:                  -8.752
REMARK INTRA:                  -1.034
REMARK UNBOUND:                -0.835
REMARK  Name = 
REMARK  6 active torsions:
REMARK  status: ('A' for Active; 'I' for Inactive)
REMARK    1  A    between atoms: C_2  and  C_4
REMARK    2  A    between atoms: C_7  and  O_8
REMARK    3  A    between atoms: O_8  and  C_9
REMARK    4  A    between atoms: C_9  and  C_10
REMARK    5  A    between atoms: C_10  and  C_11
REMARK    6  A    between atoms: C_15  and  C_16
REMARK                            x       y       z     vdW  Elec       q    Type
REMARK                         _______ _______ _______ _____ _____    ______ ____
ROOT
ATOM      1  C   UNL     1      49.500   7.288  13.026  0.00  0.00    +0.000 C 
ENDROOT
BRANCH   1   2
ATOM      2  O   UNL     1      49.369   7.526  14.434  0.00  0.00    +0.000 OA
BRANCH   2   6
ATOM      3  C   UNL     1      47.998   4.476  16.840  0.00  0.00    +0.000 A 
ATOM      4  C   UNL     1      47.351   4.659  15.624  0.00  0.00    +0.000 A 
ATOM      5  C   UNL     1      47.783   5.681  14.782  0.00  0.00    +0.000 A 
ATOM      6  C   UNL     1      48.850   6.493  15.167  0.00  0.00    +0.000 A 
ATOM      7  C   UNL     1      49.433   6.230  16.405  0.00  0.00    +0.000 A 
ATOM      8  N   UNL     1      49.040   5.248  17.259  0.00  0.00    +0.000 NA
BRANCH   3  10
ATOM      9  N   UNL     1      48.294   3.160  18.864  0.00  0.00    +0.000 N 
ATOM     10  C   UNL     1      47.535   3.379  17.748  0.00  0.00    +0.000 C 
ATOM     11  O   UNL     1      46.529   2.718  17.519  0.00  0.00    +0.000 OA
ATOM     12  H   UNL     1      47.987   2.468  19.532  0.00  0.00    +0.000 HD
ATOM     13  H   UNL     1      49.067   3.779  19.080  0.00  0.00    +0.000 HD
ENDBRANCH   3  10
ENDBRANCH   2   6
ENDBRANCH   1   2
BRANCH   1  14
ATOM     14  C   UNL     1      48.764   8.378  12.246  0.00  0.00    +0.000 C 
BRANCH  14  15
ATOM     15  C   UNL     1      47.330   8.005  11.983  0.00  0.00    +0.000 A 
ATOM     16  C   UNL     1      46.285   8.819  12.398  0.00  0.00    +0.000 A 
ATOM     17  N   UNL     1      44.984   8.527  12.216  0.00  0.00    +0.000 NA
ATOM     18  C   UNL     1      44.698   7.359  11.588  0.00  0.00    +0.000 A 
ATOM     19  C   UNL     1      45.648   6.441  11.133  0.00  0.00    +0.000 A 
ATOM     20  C   UNL     1      46.991   6.801  11.351  0.00  0.00    +0.000 A 
BRANCH  19  21
ATOM     21  C   UNL     1      45.275   5.165  10.496  0.00  0.00    +0.000 A 
ATOM     22  C   UNL     1      45.587   4.875   9.158  0.00  0.00    +0.000 A 
ATOM     23  C   UNL     1      45.281   3.632   8.606  0.00  0.00    +0.000 A 
ATOM     24  C   UNL     1      44.647   2.697   9.404  0.00  0.00    +0.000 A 
ATOM     25  N   UNL     1      44.296   2.929  10.684  0.00  0.00    +0.000 NA
ATOM     26  C   UNL     1      44.616   4.145  11.192  0.00  0.00    +0.000 A 
ENDBRANCH  19  21
ENDBRANCH  14  15
ENDBRANCH   1  14
TORSDOF 6
ENDMDL
