MODEL 1
REMARK VINA RESULT:    -7.669      0.000      0.000
REMARK INTER + INTRA:         -12.134
REMARK INTER:                 -11.256
REMARK INTRA:                  -0.878
REMARK UNBOUND:                -0.878
REMARK  Name = 
REMARK  9 active torsions:
REMARK  status: ('A' for Active; 'I' for Inactive)
REMARK    1  A    between atoms: C_1  and  N_2
REMARK    2  A    between atoms: N_2  and  C_3
REMARK    3  A    between atoms: N_2  and  C_19
REMARK    4  A    between atoms: C_3  and  C_4
REMARK    5  A    between atoms: C_7  and  C_8
REMARK    6  A    between atoms: C_8  and  N_9
REMARK    7  A    between atoms: N_9  and  C_10
REMARK    8  A    between atoms: C_10  and  C_11
REMARK    9  A    between atoms: C_19  and  C_20
REMARK                            x       y       z     vdW  Elec       q    Type
REMARK                         _______ _______ _______ _____ _____    ______ ____
ROOT
ATOM      1  C   UNL     1      47.150   5.895  12.901  0.00  0.00    +0.000 A 
ATOM      2  C   UNL     1      46.283   4.884  13.340  0.00  0.00    +0.000 A 
ATOM      3  C   UNL     1      45.172   4.517  12.582  0.00  0.00    +0.000 A 
ATOM      4  C   UNL     1      44.875   5.181  11.385  0.00  0.00    +0.000 A 
ATOM      5  C   UNL     1      45.729   6.206  10.954  0.00  0.00    +0.000 A 
ATOM      6  C   UNL     1      46.860   6.554  11.699  0.00  0.00    +0.000 A 
ENDROOT
BRANCH   1   7
ATOM      7  C   UNL     1      48.387   6.239  13.704  0.00  0.00    +0.000 C 
BRANCH   7   9
ATOM      8  C   UNL     1      48.340   8.393  14.841  0.00  0.00    +0.000 C 
ATOM      9  N   UNL     1      48.112   6.947  14.976  0.00  0.00    +0.000 NA
BRANCH   9  10
ATOM     10  C   UNL     1      49.001   6.394  16.026  0.00  0.00    +0.000 C 
BRANCH  10  11
ATOM     11  C   UNL     1      48.572   5.052  16.585  0.00  0.00    +0.000 A 
ATOM     12  C   UNL     1      47.227   4.761  16.788  0.00  0.00    +0.000 A 
ATOM     13  N   UNL     1      46.795   3.570  17.275  0.00  0.00    +0.000 NA
ATOM     14  C   UNL     1      47.769   2.679  17.561  0.00  0.00    +0.000 A 
ATOM     15  C   UNL     1      49.111   2.961  17.373  0.00  0.00    +0.000 A 
ATOM     16  N   UNL     1      49.543   4.144  16.881  0.00  0.00    +0.000 NA
ENDBRANCH  10  11
ENDBRANCH   9  10
ENDBRANCH   7   9
ENDBRANCH   1   7
BRANCH   4  17
ATOM     17  C   UNL     1      43.662   4.786  10.575  0.00  0.00    +0.000 C 
BRANCH  17  18
ATOM     18  N   UNL     1      44.068   4.276   9.267  0.00  0.00    +0.000 NA
ATOM     19  H   UNL     1      44.904   4.774   8.967  0.00  0.00    +0.000 HD
BRANCH  18  20
ATOM     20  C   UNL     1      44.382   2.844   9.323  0.00  0.00    +0.000 C 
BRANCH  20  21
ATOM     21  C   UNL     1      45.521   2.487   8.382  0.00  0.00    +0.000 A 
ATOM     22  C   UNL     1      46.068   3.458   7.547  0.00  0.00    +0.000 A 
ATOM     23  C   UNL     1      47.129   3.113   6.716  0.00  0.00    +0.000 A 
ATOM     24  C   UNL     1      47.610   1.810   6.734  0.00  0.00    +0.000 A 
ATOM     25  C   UNL     1      47.007   0.901   7.591  0.00  0.00    +0.000 A 
ATOM     26  N   UNL     1      45.978   1.209   8.414  0.00  0.00    +0.000 NA
ENDBRANCH  20  21
ENDBRANCH  18  20
ENDBRANCH  17  18
ENDBRANCH   4  17
TORSDOF 8
ENDMDL
MODEL 2
REMARK VINA RESULT:    -6.756      1.457      8.443
REMARK INTER + INTRA:         -10.793
REMARK INTER:                  -9.857
REMARK INTRA:                  -0.936
REMARK UNBOUND:                -0.878
REMARK  Name = 
REMARK  9 active torsions:
REMARK  status: ('A' for Active; 'I' for Inactive)
REMARK    1  A    between atoms: C_1  and  N_2
REMARK    2  A    between atoms: N_2  and  C_3
REMARK    3  A    between atoms: N_2  and  C_19
REMARK    4  A    between atoms: C_3  and  C_4
REMARK    5  A    between atoms: C_7  and  C_8
REMARK    6  A    between atoms: C_8  and  N_9
REMARK    7  A    between atoms: N_9  and  C_10
REMARK    8  A    between atoms: C_10  and  C_11
REMARK    9  A    between atoms: C_19  and  C_20
REMARK                            x       y       z     vdW  Elec       q    Type
REMARK                         _______ _______ _______ _____ _____    ______ ____
ROOT
ATOM      1  C   UNL     1      45.965   4.680  12.702  0.00  0.00    +0.000 A 
ATOM      2  C   UNL     1      46.339   5.791  11.933  0.00  0.00    +0.000 A 
ATOM      3  C   UNL     1      47.294   6.694  12.400  0.00  0.00    +0.000 A 
ATOM      4  C   UNL     1      47.867   6.532  13.668  0.00  0.00    +0.000 A 
ATOM      5  C   UNL     1      47.480   5.434  14.447  0.00  0.00    +0.000 A 
ATOM      6  C   UNL     1      46.545   4.511  13.967  0.00  0.00    +0.000 A 
ENDROOT
BRANCH   1   7
ATOM      7  C   UNL     1      44.974   3.673  12.155  0.00  0.00    +0.000 C 
BRANCH   7   9
ATOM      8  C   UNL     1      42.870   4.648  11.408  0.00  0.00    +0.000 C 
ATOM      9  N   UNL     1      44.192   4.156  10.994  0.00  0.00    +0.000 NA
BRANCH   9  10
ATOM     10  C   UNL     1      44.034   3.038  10.032  0.00  0.00    +0.000 C 
BRANCH  10  11
ATOM     11  C   UNL     1      45.102   2.959   8.961  0.00  0.00    +0.000 A 
ATOM     12  C   UNL     1      45.494   4.096   8.260  0.00  0.00    +0.000 A 
ATOM     13  N   UNL     1      46.454   4.077   7.301  0.00  0.00    +0.000 NA
ATOM     14  C   UNL     1      47.003   2.866   7.061  0.00  0.00    +0.000 A 
ATOM     15  C   UNL     1      46.613   1.727   7.745  0.00  0.00    +0.000 A 
ATOM     16  N   UNL     1      45.663   1.745   8.706  0.00  0.00    +0.000 NA
ENDBRANCH  10  11
ENDBRANCH   9  10
ENDBRANCH   7   9
ENDBRANCH   1   7
BRANCH   4  17
ATOM     17  C   UNL     1      48.892   7.522  14.172  0.00  0.00    +0.000 C 
BRANCH  17  18
ATOM     18  N   UNL     1      50.014   6.822  14.794  0.00  0.00    +0.000 NA
ATOM     19  H   UNL     1      50.868   7.063  14.294  0.00  0.00    +0.000 HD
BRANCH  18  20
ATOM     20  C   UNL     1      50.179   7.214  16.198  0.00  0.00    +0.000 C 
BRANCH  20  21
ATOM     21  C   UNL     1      49.699   6.123  17.141  0.00  0.00    +0.000 A 
ATOM     22  C   UNL     1      48.834   6.434  18.187  0.00  0.00    +0.000 A 
ATOM     23  C   UNL     1      48.387   5.412  19.018  0.00  0.00    +0.000 A 
ATOM     24  C   UNL     1      48.820   4.111  18.791  0.00  0.00    +0.000 A 
ATOM     25  C   UNL     1      49.685   3.887  17.731  0.00  0.00    +0.000 A 
ATOM     26  N   UNL     1      50.133   4.858  16.902  0.00  0.00    +0.000 NA
ENDBRANCH  20  21
ENDBRANCH  18  20
ENDBRANCH  17  18
ENDBRANCH   4  17
TORSDOF 8
ENDMDL
MODEL 3
REMARK VINA RESULT:    -6.657      3.058      5.217
REMARK INTER + INTRA:         -10.648
REMARK INTER:                  -9.858
REMARK INTRA:                  -0.790
REMARK UNBOUND:                -0.878
REMARK  Name = 
REMARK  9 active torsions:
REMARK  status: ('A' for Active; 'I' for Inactive)
REMARK    1  A    between atoms: C_1  and  N_2
REMARK    2  A    between atoms: N_2  and  C_3
REMARK    3  A    between atoms: N_2  and  C_19
REMARK    4  A    between atoms: C_3  and  C_4
REMARK    5  A    between atoms: C_7  and  C_8
REMARK    6  A    between atoms: C_8  and  N_9
REMARK    7  A    between atoms: N_9  and  C_10
REMARK    8  A    between atoms: C_10  and  C_11
REMARK    9  A    between atoms: C_19  and  C_20
REMARK                            x       y       z     vdW  Elec       q    Type
REMARK                         _______ _______ _______ _____ _____    ______ ____
ROOT
ATOM      1  C   UNL     1      46.578   6.458  12.849  0.00  0.00    +0.000 A 
ATOM      2  C   UNL     1      46.679   5.190  13.439  0.00  0.00    +0.000 A 
ATOM      3  C   UNL     1      45.845   4.147  13.036  0.00  0.00    +0.000 A 
ATOM      4  C   UNL     1      44.859   4.358  12.064  0.00  0.00    +0.000 A 
ATOM      5  C   UNL     1      44.743   5.630  11.487  0.00  0.00    +0.000 A 
ATOM      6  C   UNL     1      45.599   6.668  11.868  0.00  0.00    +0.000 A 
ENDROOT
BRANCH   1   7
ATOM      7  C   UNL     1      47.532   7.564  13.251  0.00  0.00    +0.000 C 
BRANCH   7   9
ATOM      8  C   UNL     1      49.296   8.393  11.789  0.00  0.00    +0.000 C 
ATOM      9  N   UNL     1      47.877   8.501  12.157  0.00  0.00    +0.000 NA
BRANCH   9  10
ATOM     10  C   UNL     1      47.577   9.883  12.606  0.00  0.00    +0.000 C 
BRANCH  10  11
ATOM     11  C   UNL     1      46.619  10.651  11.718  0.00  0.00    +0.000 A 
ATOM     12  C   UNL     1      45.244  10.462  11.821  0.00  0.00    +0.000 A 
ATOM     13  N   UNL     1      44.348  11.135  11.056  0.00  0.00    +0.000 NA
ATOM     14  C   UNL     1      44.885  12.003  10.171  0.00  0.00    +0.000 A 
ATOM     15  C   UNL     1      46.252  12.192  10.053  0.00  0.00    +0.000 A 
ATOM     16  N   UNL     1      47.146  11.528  10.819  0.00  0.00    +0.000 NA
ENDBRANCH  10  11
ENDBRANCH   9  10
ENDBRANCH   7   9
ENDBRANCH   1   7
BRANCH   4  17
ATOM     17  C   UNL     1      43.951   3.226  11.642  0.00  0.00    +0.000 C 
BRANCH  17  18
ATOM     18  N   UNL     1      44.620   2.376  10.658  0.00  0.00    +0.000 NA
ATOM     19  H   UNL     1      44.247   1.431  10.736  0.00  0.00    +0.000 HD
BRANCH  18  20
ATOM     20  C   UNL     1      44.383   2.851   9.290  0.00  0.00    +0.000 C 
BRANCH  20  21
ATOM     21  C   UNL     1      45.530   2.479   8.366  0.00  0.00    +0.000 A 
ATOM     22  C   UNL     1      46.095   3.441   7.531  0.00  0.00    +0.000 A 
ATOM     23  C   UNL     1      47.163   3.082   6.716  0.00  0.00    +0.000 A 
ATOM     24  C   UNL     1      47.634   1.775   6.747  0.00  0.00    +0.000 A 
ATOM     25  C   UNL     1      47.013   0.877   7.602  0.00  0.00    +0.000 A 
ATOM     26  N   UNL     1      45.977   1.197   8.410  0.00  0.00    +0.000 NA
ENDBRANCH  20  21
ENDBRANCH  18  20
ENDBRANCH  17  18
ENDBRANCH   4  17
TORSDOF 8
ENDMDL
MODEL 4
REMARK VINA RESULT:    -6.621      1.415      1.999
REMARK INTER + INTRA:         -10.596
REMARK INTER:                  -9.758
REMARK INTRA:                  -0.838
REMARK UNBOUND:                -0.878
REMARK  Name = 
REMARK  9 active torsions:
REMARK  status: ('A' for Active; 'I' for Inactive)
REMARK    1  A    between atoms: C_1  and  N_2
REMARK    2  A    between atoms: N_2  and  C_3
REMARK    3  A    between atoms: N_2  and  C_19
REMARK    4  A    between atoms: C_3  and  C_4
REMARK    5  A    between atoms: C_7  and  C_8
REMARK    6  A    between atoms: C_8  and  N_9
REMARK    7  A    between atoms: N_9  and  C_10
REMARK    8  A    between atoms: C_10  and  C_11
REMARK    9  A    between atoms: C_19  and  C_20
REMARK                            x       y       z     vdW  Elec       q    Type
REMARK                         _______ _______ _______ _____ _____    ______ ____
ROOT
ATOM      1  C   UNL     1      48.247   6.632  13.317  0.00  0.00    +0.000 A 
ATOM      2  C   UNL     1      47.812   7.074  12.059  0.00  0.00    +0.000 A 
ATOM      3  C   UNL     1      46.647   6.566  11.487  0.00  0.00    +0.000 A 
ATOM      4  C   UNL     1      45.909   5.570  12.139  0.00  0.00    +0.000 A 
ATOM      5  C   UNL     1      46.352   5.111  13.387  0.00  0.00    +0.000 A 
ATOM      6  C   UNL     1      47.504   5.643  13.975  0.00  0.00    +0.000 A 
ENDROOT
BRANCH   1   7
ATOM      7  C   UNL     1      49.479   7.239  13.954  0.00  0.00    +0.000 C 
BRANCH   7   9
ATOM      8  C   UNL     1      49.487   9.518  14.816  0.00  0.00    +0.000 C 
ATOM      9  N   UNL     1      49.199   8.109  15.120  0.00  0.00    +0.000 NA
BRANCH   9  10
ATOM     10  C   UNL     1      50.037   7.658  16.258  0.00  0.00    +0.000 C 
BRANCH  10  11
ATOM     11  C   UNL     1      49.498   6.461  17.014  0.00  0.00    +0.000 A 
ATOM     12  C   UNL     1      48.433   6.597  17.900  0.00  0.00    +0.000 A 
ATOM     13  N   UNL     1      47.910   5.553  18.591  0.00  0.00    +0.000 NA
ATOM     14  C   UNL     1      48.504   4.360  18.367  0.00  0.00    +0.000 A 
ATOM     15  C   UNL     1      49.570   4.215  17.495  0.00  0.00    +0.000 A 
ATOM     16  N   UNL     1      50.088   5.252  16.801  0.00  0.00    +0.000 NA
ENDBRANCH  10  11
ENDBRANCH   9  10
ENDBRANCH   7   9
ENDBRANCH   1   7
BRANCH   4  17
ATOM     17  C   UNL     1      44.653   5.015  11.506  0.00  0.00    +0.000 C 
BRANCH  17  18
ATOM     18  N   UNL     1      44.639   5.294  10.072  0.00  0.00    +0.000 NA
ATOM     19  H   UNL     1      45.593   5.477   9.765  0.00  0.00    +0.000 HD
BRANCH  18  20
ATOM     20  C   UNL     1      44.123   4.153   9.309  0.00  0.00    +0.000 C 
BRANCH  20  21
ATOM     21  C   UNL     1      45.234   3.437   8.559  0.00  0.00    +0.000 A 
ATOM     22  C   UNL     1      45.440   2.073   8.750  0.00  0.00    +0.000 A 
ATOM     23  C   UNL     1      46.445   1.435   8.030  0.00  0.00    +0.000 A 
ATOM     24  C   UNL     1      47.222   2.174   7.147  0.00  0.00    +0.000 A 
ATOM     25  C   UNL     1      46.956   3.529   7.018  0.00  0.00    +0.000 A 
ATOM     26  N   UNL     1      45.983   4.176   7.700  0.00  0.00    +0.000 NA
ENDBRANCH  20  21
ENDBRANCH  18  20
ENDBRANCH  17  18
ENDBRANCH   4  17
TORSDOF 8
ENDMDL
MODEL 5
REMARK VINA RESULT:    -6.374      2.994      4.566
REMARK INTER + INTRA:         -10.233
REMARK INTER:                  -9.524
REMARK INTRA:                  -0.709
REMARK UNBOUND:                -0.878
REMARK  Name = 
REMARK  9 active torsions:
REMARK  status: ('A' for Active; 'I' for Inactive)
REMARK    1  A    between atoms: C_1  and  N_2
REMARK    2  A    between atoms: N_2  and  C_3
REMARK    3  A    between atoms: N_2  and  C_19
REMARK    4  A    between atoms: C_3  and  C_4
REMARK    5  A    between atoms: C_7  and  C_8
REMARK    6  A    between atoms: C_8  and  N_9
REMARK    7  A    between atoms: N_9  and  C_10
REMARK    8  A    between atoms: C_10  and  C_11
REMARK    9  A    between atoms: C_19  and  C_20
REMARK                            x       y       z     vdW  Elec       q    Type
REMARK                         _______ _______ _______ _____ _____    ______ ____
ROOT
ATOM      1  C   UNL     1      46.650   7.502  12.444  0.00  0.00    +0.000 A 
ATOM      2  C   UNL     1      46.843   6.117  12.335  0.00  0.00    +0.000 A 
ATOM      3  C   UNL     1      45.875   5.306  11.743  0.00  0.00    +0.000 A 
ATOM      4  C   UNL     1      44.671   5.854  11.284  0.00  0.00    +0.000 A 
ATOM      5  C   UNL     1      44.467   7.235  11.410  0.00  0.00    +0.000 A 
ATOM      6  C   UNL     1      45.450   8.054  11.976  0.00  0.00    +0.000 A 
ENDROOT
BRANCH   1   7
ATOM      7  C   UNL     1      47.737   8.379  13.032  0.00  0.00    +0.000 C 
BRANCH   7   9
ATOM      8  C   UNL     1      49.830   7.642  14.037  0.00  0.00    +0.000 C 
ATOM      9  N   UNL     1      49.114   7.896  12.778  0.00  0.00    +0.000 NA
BRANCH   9  10
ATOM     10  C   UNL     1      49.837   8.922  11.987  0.00  0.00    +0.000 C 
BRANCH  10  11
ATOM     11  C   UNL     1      51.172   8.476  11.428  0.00  0.00    +0.000 A 
ATOM     12  C   UNL     1      52.348   9.135  11.776  0.00  0.00    +0.000 A 
ATOM     13  N   UNL     1      53.567   8.764  11.310  0.00  0.00    +0.000 NA
ATOM     14  C   UNL     1      53.564   7.707  10.469  0.00  0.00    +0.000 A 
ATOM     15  C   UNL     1      52.400   7.050  10.108  0.00  0.00    +0.000 A 
ATOM     16  N   UNL     1      51.185   7.413  10.577  0.00  0.00    +0.000 NA
ENDBRANCH  10  11
ENDBRANCH   9  10
ENDBRANCH   7   9
ENDBRANCH   1   7
BRANCH   4  17
ATOM     17  C   UNL     1      43.622   4.967  10.655  0.00  0.00    +0.000 C 
BRANCH  17  18
ATOM     18  N   UNL     1      44.098   4.442   9.377  0.00  0.00    +0.000 NA
ATOM     19  H   UNL     1      44.959   4.926   9.125  0.00  0.00    +0.000 HD
BRANCH  18  20
ATOM     20  C   UNL     1      44.387   3.006   9.460  0.00  0.00    +0.000 C 
BRANCH  20  21
ATOM     21  C   UNL     1      45.472   2.599   8.478  0.00  0.00    +0.000 A 
ATOM     22  C   UNL     1      46.010   3.538   7.601  0.00  0.00    +0.000 A 
ATOM     23  C   UNL     1      47.023   3.146   6.731  0.00  0.00    +0.000 A 
ATOM     24  C   UNL     1      47.466   1.829   6.752  0.00  0.00    +0.000 A 
ATOM     25  C   UNL     1      46.874   0.955   7.651  0.00  0.00    +0.000 A 
ATOM     26  N   UNL     1      45.892   1.307   8.513  0.00  0.00    +0.000 NA
ENDBRANCH  20  21
ENDBRANCH  18  20
ENDBRANCH  17  18
ENDBRANCH   4  17
TORSDOF 8
ENDMDL
MODEL 6
REMARK VINA RESULT:    -6.310      3.553      7.598
REMARK INTER + INTRA:         -10.138
REMARK INTER:                  -9.304
REMARK INTRA:                  -0.834
REMARK UNBOUND:                -0.878
REMARK  Name = 
REMARK  9 active torsions:
REMARK  status: ('A' for Active; 'I' for Inactive)
REMARK    1  A    between atoms: C_1  and  N_2
REMARK    2  A    between atoms: N_2  and  C_3
REMARK    3  A    between atoms: N_2  and  C_19
REMARK    4  A    between atoms: C_3  and  C_4
REMARK    5  A    between atoms: C_7  and  C_8
REMARK    6  A    between atoms: C_8  and  N_9
REMARK    7  A    between atoms: N_9  and  C_10
REMARK    8  A    between atoms: C_10  and  C_11
REMARK    9  A    between atoms: C_19  and  C_20
REMARK                            x       y       z     vdW  Elec       q    Type
REMARK                         _______ _______ _______ _____ _____    ______ ____
ROOT
ATOM      1  C   UNL     1      46.055   5.193  12.625  0.00  0.00    +0.000 A 
ATOM      2  C   UNL     1      46.376   6.128  11.630  0.00  0.00    +0.000 A 
ATOM      3  C   UNL     1      47.433   7.021  11.804  0.00  0.00    +0.000 A 
ATOM      4  C   UNL     1      48.168   7.032  12.996  0.00  0.00    +0.000 A 
ATOM      5  C   UNL     1      47.837   6.112  14.000  0.00  0.00    +0.000 A 
ATOM      6  C   UNL     1      46.796   5.196  13.814  0.00  0.00    +0.000 A 
ENDROOT
BRANCH   1   7
ATOM      7  C   UNL     1      44.946   4.188  12.397  0.00  0.00    +0.000 C 
BRANCH   7   9
ATOM      8  C   UNL     1      42.759   4.931  11.622  0.00  0.00    +0.000 C 
ATOM      9  N   UNL     1      44.096   4.474  11.217  0.00  0.00    +0.000 NA
BRANCH   9  10
ATOM     10  C   UNL     1      43.980   3.237  10.407  0.00  0.00    +0.000 C 
BRANCH  10  11
ATOM     11  C   UNL     1      44.960   3.133   9.255  0.00  0.00    +0.000 A 
ATOM     12  C   UNL     1      45.326   4.261   8.526  0.00  0.00    +0.000 A 
ATOM     13  N   UNL     1      46.207   4.218   7.495  0.00  0.00    +0.000 NA
ATOM     14  C   UNL     1      46.704   2.994   7.214  0.00  0.00    +0.000 A 
ATOM     15  C   UNL     1      46.340   1.864   7.926  0.00  0.00    +0.000 A 
ATOM     16  N   UNL     1      45.468   1.905   8.958  0.00  0.00    +0.000 NA
ENDBRANCH  10  11
ENDBRANCH   9  10
ENDBRANCH   7   9
ENDBRANCH   1   7
BRANCH   4  17
ATOM     17  C   UNL     1      49.304   8.011  13.181  0.00  0.00    +0.000 C 
BRANCH  17  18
ATOM     18  N   UNL     1      50.459   7.610  12.380  0.00  0.00    +0.000 NA
ATOM     19  H   UNL     1      50.129   7.080  11.574  0.00  0.00    +0.000 HD
BRANCH  18  20
ATOM     20  C   UNL     1      51.201   8.776  11.888  0.00  0.00    +0.000 C 
BRANCH  20  21
ATOM     21  C   UNL     1      51.980   8.448  10.625  0.00  0.00    +0.000 A 
ATOM     22  C   UNL     1      51.851   7.195  10.030  0.00  0.00    +0.000 A 
ATOM     23  C   UNL     1      52.552   6.930   8.858  0.00  0.00    +0.000 A 
ATOM     24  C   UNL     1      53.369   7.915   8.316  0.00  0.00    +0.000 A 
ATOM     25  C   UNL     1      53.446   9.134   8.973  0.00  0.00    +0.000 A 
ATOM     26  N   UNL     1      52.773   9.423  10.110  0.00  0.00    +0.000 NA
ENDBRANCH  20  21
ENDBRANCH  18  20
ENDBRANCH  17  18
ENDBRANCH   4  17
TORSDOF 8
ENDMDL
MODEL 7
REMARK VINA RESULT:    -6.282      1.836      2.433
REMARK INTER + INTRA:         -10.098
REMARK INTER:                  -9.527
REMARK INTRA:                  -0.571
REMARK UNBOUND:                -0.878
REMARK  Name = 
REMARK  9 active torsions:
REMARK  status: ('A' for Active; 'I' for Inactive)
REMARK    1  A    between atoms: C_1  and  N_2
REMARK    2  A    between atoms: N_2  and  C_3
REMARK    3  A    between atoms: N_2  and  C_19
REMARK    4  A    between atoms: C_3  and  C_4
REMARK    5  A    between atoms: C_7  and  C_8
REMARK    6  A    between atoms: C_8  and  N_9
REMARK    7  A    between atoms: N_9  and  C_10
REMARK    8  A    between atoms: C_10  and  C_11
REMARK    9  A    between atoms: C_19  and  C_20
REMARK                            x       y       z     vdW  Elec       q    Type
REMARK                         _______ _______ _______ _____ _____    ______ ____
ROOT
ATOM      1  C   UNL     1      48.053   6.462  13.636  0.00  0.00    +0.000 A 
ATOM      2  C   UNL     1      47.764   7.016  12.381  0.00  0.00    +0.000 A 
ATOM      3  C   UNL     1      46.689   6.547  11.624  0.00  0.00    +0.000 A 
ATOM      4  C   UNL     1      45.903   5.483  12.086  0.00  0.00    +0.000 A 
ATOM      5  C   UNL     1      46.203   4.915  13.331  0.00  0.00    +0.000 A 
ATOM      6  C   UNL     1      47.261   5.405  14.104  0.00  0.00    +0.000 A 
ENDROOT
BRANCH   1   7
ATOM      7  C   UNL     1      49.183   7.023  14.474  0.00  0.00    +0.000 C 
BRANCH   7   9
ATOM      8  C   UNL     1      49.014   8.584  16.337  0.00  0.00    +0.000 C 
ATOM      9  N   UNL     1      48.856   7.187  15.910  0.00  0.00    +0.000 NA
BRANCH   9  10
ATOM     10  C   UNL     1      49.756   6.314  16.702  0.00  0.00    +0.000 C 
BRANCH  10  11
ATOM     11  C   UNL     1      49.241   5.944  18.078  0.00  0.00    +0.000 A 
ATOM     12  C   UNL     1      50.109   5.493  19.068  0.00  0.00    +0.000 A 
ATOM     13  N   UNL     1      49.695   5.161  20.317  0.00  0.00    +0.000 NA
ATOM     14  C   UNL     1      48.369   5.290  20.536  0.00  0.00    +0.000 A 
ATOM     15  C   UNL     1      47.494   5.729  19.556  0.00  0.00    +0.000 A 
ATOM     16  N   UNL     1      47.905   6.067  18.314  0.00  0.00    +0.000 NA
ENDBRANCH  10  11
ENDBRANCH   9  10
ENDBRANCH   7   9
ENDBRANCH   1   7
BRANCH   4  17
ATOM     17  C   UNL     1      44.749   4.974  11.255  0.00  0.00    +0.000 C 
BRANCH  17  18
ATOM     18  N   UNL     1      44.974   5.259   9.839  0.00  0.00    +0.000 NA
ATOM     19  H   UNL     1      45.978   5.266   9.663  0.00  0.00    +0.000 HD
BRANCH  18  20
ATOM     20  C   UNL     1      44.365   4.235   8.982  0.00  0.00    +0.000 C 
BRANCH  20  21
ATOM     21  C   UNL     1      45.420   3.371   8.313  0.00  0.00    +0.000 A 
ATOM     22  C   UNL     1      45.519   2.018   8.629  0.00  0.00    +0.000 A 
ATOM     23  C   UNL     1      46.474   1.242   7.980  0.00  0.00    +0.000 A 
ATOM     24  C   UNL     1      47.310   1.835   7.042  0.00  0.00    +0.000 A 
ATOM     25  C   UNL     1      47.150   3.189   6.788  0.00  0.00    +0.000 A 
ATOM     26  N   UNL     1      46.228   3.968   7.398  0.00  0.00    +0.000 NA
ENDBRANCH  20  21
ENDBRANCH  18  20
ENDBRANCH  17  18
ENDBRANCH   4  17
TORSDOF 8
ENDMDL
MODEL 8
REMARK VINA RESULT:    -6.255      2.993      7.968
REMARK INTER + INTRA:         -10.058
REMARK INTER:                  -9.033
REMARK INTRA:                  -1.025
REMARK UNBOUND:                -0.878
REMARK  Name = 
REMARK  9 active torsions:
REMARK  status: ('A' for Active; 'I' for Inactive)
REMARK    1  A    between atoms: C_1  and  N_2
REMARK    2  A    between atoms: N_2  and  C_3
REMARK    3  A    between atoms: N_2  and  C_19
REMARK    4  A    between atoms: C_3  and  C_4
REMARK    5  A    between atoms: C_7  and  C_8
REMARK    6  A    between atoms: C_8  and  N_9
REMARK    7  A    between atoms: N_9  and  C_10
REMARK    8  A    between atoms: C_10  and  C_11
REMARK    9  A    between atoms: C_19  and  C_20
REMARK                            x       y       z     vdW  Elec       q    Type
REMARK                         _______ _______ _______ _____ _____    ______ ____
ROOT
ATOM      1  C   UNL     1      46.093   5.000  12.472  0.00  0.00    +0.000 A 
ATOM      2  C   UNL     1      46.202   6.076  11.580  0.00  0.00    +0.000 A 
ATOM      3  C   UNL     1      47.125   7.097  11.802  0.00  0.00    +0.000 A 
ATOM      4  C   UNL     1      47.933   7.091  12.947  0.00  0.00    +0.000 A 
ATOM      5  C   UNL     1      47.812   6.026  13.851  0.00  0.00    +0.000 A 
ATOM      6  C   UNL     1      46.908   4.986  13.612  0.00  0.00    +0.000 A 
ENDROOT
BRANCH   1   7
ATOM      7  C   UNL     1      45.131   3.866  12.184  0.00  0.00    +0.000 C 
BRANCH   7   9
ATOM      8  C   UNL     1      42.882   4.449  11.452  0.00  0.00    +0.000 C 
ATOM      9  N   UNL     1      44.243   4.099  11.022  0.00  0.00    +0.000 NA
BRANCH   9  10
ATOM     10  C   UNL     1      44.208   2.866  10.198  0.00  0.00    +0.000 C 
BRANCH  10  11
ATOM     11  C   UNL     1      45.184   2.843   9.039  0.00  0.00    +0.000 A 
ATOM     12  C   UNL     1      45.502   4.011   8.351  0.00  0.00    +0.000 A 
ATOM     13  N   UNL     1      46.378   4.041   7.315  0.00  0.00    +0.000 NA
ATOM     14  C   UNL     1      46.920   2.849   6.986  0.00  0.00    +0.000 A 
ATOM     15  C   UNL     1      46.605   1.679   7.657  0.00  0.00    +0.000 A 
ATOM     16  N   UNL     1      45.738   1.648   8.694  0.00  0.00    +0.000 NA
ENDBRANCH  10  11
ENDBRANCH   9  10
ENDBRANCH   7   9
ENDBRANCH   1   7
BRANCH   4  17
ATOM     17  C   UNL     1      48.922   8.207  13.187  0.00  0.00    +0.000 C 
BRANCH  17  18
ATOM     18  N   UNL     1      49.167   8.946  11.950  0.00  0.00    +0.000 NA
ATOM     19  H   UNL     1      48.487   8.650  11.252  0.00  0.00    +0.000 HD
BRANCH  18  20
ATOM     20  C   UNL     1      49.018  10.392  12.151  0.00  0.00    +0.000 C 
BRANCH  20  21
ATOM     21  C   UNL     1      47.793  10.930  11.430  0.00  0.00    +0.000 A 
ATOM     22  C   UNL     1      46.518  10.639  11.906  0.00  0.00    +0.000 A 
ATOM     23  C   UNL     1      45.414  11.168  11.246  0.00  0.00    +0.000 A 
ATOM     24  C   UNL     1      45.610  11.965  10.125  0.00  0.00    +0.000 A 
ATOM     25  C   UNL     1      46.912  12.204   9.712  0.00  0.00    +0.000 A 
ATOM     26  N   UNL     1      48.005  11.708  10.337  0.00  0.00    +0.000 NA
ENDBRANCH  20  21
ENDBRANCH  18  20
ENDBRANCH  17  18
ENDBRANCH   4  17
TORSDOF 8
ENDMDL
MODEL 9
REMARK VINA RESULT:    -6.206      2.080      2.901
REMARK INTER + INTRA:          -9.985
REMARK INTER:                  -8.998
REMARK INTRA:                  -0.988
REMARK UNBOUND:                -0.878
REMARK  Name = 
REMARK  9 active torsions:
REMARK  status: ('A' for Active; 'I' for Inactive)
REMARK    1  A    between atoms: C_1  and  N_2
REMARK    2  A    between atoms: N_2  and  C_3
REMARK    3  A    between atoms: N_2  and  C_19
REMARK    4  A    between atoms: C_3  and  C_4
REMARK    5  A    between atoms: C_7  and  C_8
REMARK    6  A    between atoms: C_8  and  N_9
REMARK    7  A    between atoms: N_9  and  C_10
REMARK    8  A    between atoms: C_10  and  C_11
REMARK    9  A    between atoms: C_19  and  C_20
REMARK                            x       y       z     vdW  Elec       q    Type
REMARK                         _______ _______ _______ _____ _____    ______ ____
ROOT
ATOM      1  C   UNL     1      47.065   6.506  13.186  0.00  0.00    +0.000 A 
ATOM      2  C   UNL     1      45.990   7.137  12.543  0.00  0.00    +0.000 A 
ATOM      3  C   UNL     1      44.739   6.524  12.477  0.00  0.00    +0.000 A 
ATOM      4  C   UNL     1      44.542   5.246  13.013  0.00  0.00    +0.000 A 
ATOM      5  C   UNL     1      45.620   4.604  13.638  0.00  0.00    +0.000 A 
ATOM      6  C   UNL     1      46.867   5.230  13.733  0.00  0.00    +0.000 A 
ENDROOT
BRANCH   1   7
ATOM      7  C   UNL     1      48.400   7.209  13.306  0.00  0.00    +0.000 C 
BRANCH   7   9
ATOM      8  C   UNL     1      48.343   8.762  15.183  0.00  0.00    +0.000 C 
ATOM      9  N   UNL     1      48.833   7.463  14.700  0.00  0.00    +0.000 NA
BRANCH   9  10
ATOM     10  C   UNL     1      50.316   7.436  14.747  0.00  0.00    +0.000 C 
BRANCH  10  11
ATOM     11  C   UNL     1      50.906   6.963  16.060  0.00  0.00    +0.000 A 
ATOM     12  C   UNL     1      51.802   7.759  16.768  0.00  0.00    +0.000 A 
ATOM     13  N   UNL     1      52.347   7.382  17.952  0.00  0.00    +0.000 NA
ATOM     14  C   UNL     1      51.965   6.166  18.399  0.00  0.00    +0.000 A 
ATOM     15  C   UNL     1      51.082   5.362  17.699  0.00  0.00    +0.000 A 
ATOM     16  N   UNL     1      50.532   5.738  16.523  0.00  0.00    +0.000 NA
ENDBRANCH  10  11
ENDBRANCH   9  10
ENDBRANCH   7   9
ENDBRANCH   1   7
BRANCH   4  17
ATOM     17  C   UNL     1      43.186   4.584  12.926  0.00  0.00    +0.000 C 
BRANCH  17  18
ATOM     18  N   UNL     1      42.910   4.166  11.553  0.00  0.00    +0.000 NA
ATOM     19  H   UNL     1      43.234   4.895  10.918  0.00  0.00    +0.000 HD
BRANCH  18  20
ATOM     20  C   UNL     1      43.613   2.923  11.219  0.00  0.00    +0.000 C 
BRANCH  20  21
ATOM     21  C   UNL     1      44.473   3.086   9.977  0.00  0.00    +0.000 A 
ATOM     22  C   UNL     1      44.826   4.358   9.533  0.00  0.00    +0.000 A 
ATOM     23  C   UNL     1      45.638   4.479   8.410  0.00  0.00    +0.000 A 
ATOM     24  C   UNL     1      46.069   3.332   7.755  0.00  0.00    +0.000 A 
ATOM     25  C   UNL     1      45.668   2.103   8.258  0.00  0.00    +0.000 A 
ATOM     26  N   UNL     1      44.884   1.953   9.350  0.00  0.00    +0.000 NA
ENDBRANCH  20  21
ENDBRANCH  18  20
ENDBRANCH  17  18
ENDBRANCH   4  17
TORSDOF 8
ENDMDL
