MODEL 1
REMARK VINA RESULT:    -7.680      0.000      0.000
REMARK INTER + INTRA:         -11.302
REMARK INTER:                 -10.373
REMARK INTRA:                  -0.929
REMARK UNBOUND:                -0.929
REMARK  Name = 
REMARK  8 active torsions:
REMARK  status: ('A' for Active; 'I' for Inactive)
REMARK    1  A    between atoms: C_1  and  N_2
REMARK    2  A    between atoms: N_2  and  C_3
REMARK    3  A    between atoms: C_3  and  C_4
REMARK    4  A    between atoms: C_7  and  C_8
REMARK    5  A    between atoms: C_8  and  C_9
REMARK    6  A    between atoms: C_9  and  N_10
REMARK    7  A    between atoms: C_19  and  C_21
REMARK    8  A    between atoms: N_23  and  C_24
REMARK                            x       y       z     vdW  Elec       q    Type
REMARK                         _______ _______ _______ _____ _____    ______ ____
ROOT
ATOM      1  C   UNL     1      47.504   6.325  13.009  0.00  0.00    +0.000 A 
ATOM      2  C   UNL     1      47.092   6.851  11.781  0.00  0.00    +0.000 A 
ATOM      3  C   UNL     1      45.880   6.437  11.231  0.00  0.00    +0.000 A 
ATOM      4  C   UNL     1      45.088   5.509  11.906  0.00  0.00    +0.000 A 
ATOM      5  C   UNL     1      45.582   5.037  13.120  0.00  0.00    +0.000 A 
ATOM      6  N   UNL     1      46.756   5.421  13.689  0.00  0.00    +0.000 NA
ENDROOT
BRANCH   1   7
ATOM      7  C   UNL     1      48.798   6.783  13.644  0.00  0.00    +0.000 C 
BRANCH   7   9
ATOM      8  C   UNL     1      48.043   8.886  14.747  0.00  0.00    +0.000 C 
ATOM      9  N   UNL     1      48.591   7.558  14.874  0.00  0.00    +0.000 N 
ATOM     10  C   UNL     1      49.055   6.998  16.050  0.00  0.00    +0.000 C 
ATOM     11  O   UNL     1      49.562   5.868  16.017  0.00  0.00    +0.000 OA
BRANCH  10  12
ATOM     12  C   UNL     1      48.893   7.652  17.377  0.00  0.00    +0.000 A 
ATOM     13  N   UNL     1      49.845   8.559  17.690  0.00  0.00    +0.000 NA
ATOM     14  N   UNL     1      50.446   7.920  18.704  0.00  0.00    +0.000 N 
ATOM     15  C   UNL     1      51.861   7.659  18.567  0.00  0.00    +0.000 C 
ATOM     16  C   UNL     1      49.524   7.231  19.462  0.00  0.00    +0.000 A 
ATOM     17  C   UNL     1      49.592   6.623  20.704  0.00  0.00    +0.000 A 
ATOM     18  N   UNL     1      48.479   6.038  21.201  0.00  0.00    +0.000 NA
ATOM     19  C   UNL     1      47.353   6.031  20.455  0.00  0.00    +0.000 A 
ATOM     20  C   UNL     1      47.257   6.518  19.155  0.00  0.00    +0.000 A 
ATOM     21  C   UNL     1      48.397   7.141  18.629  0.00  0.00    +0.000 A 
ENDBRANCH  10  12
ENDBRANCH   7   9
ENDBRANCH   1   7
BRANCH   4  22
ATOM     22  C   UNL     1      43.753   5.004  11.407  0.00  0.00    +0.000 C 
BRANCH  22  23
ATOM     23  C   UNL     1      43.819   3.820  10.431  0.00  0.00    +0.000 C 
BRANCH  23  24
ATOM     24  N   UNL     1      44.107   4.265   9.075  0.00  0.00    +0.000 N 
ATOM     25  C   UNL     1      45.099   3.500   8.459  0.00  0.00    +0.000 A 
ATOM     26  N   UNL     1      45.239   2.203   8.775  0.00  0.00    +0.000 NA
ATOM     27  C   UNL     1      46.220   1.520   8.162  0.00  0.00    +0.000 A 
ATOM     28  C   UNL     1      47.063   2.082   7.239  0.00  0.00    +0.000 A 
ATOM     29  C   UNL     1      46.837   3.409   6.975  0.00  0.00    +0.000 A 
ATOM     30  N   UNL     1      45.875   4.142   7.571  0.00  0.00    +0.000 NA
ATOM     31  H   UNL     1      44.410   5.228   8.972  0.00  0.00    +0.000 HD
ENDBRANCH  23  24
ENDBRANCH  22  23
ENDBRANCH   4  22
TORSDOF 6
ENDMDL
MODEL 2
REMARK VINA RESULT:    -7.414      2.014      2.900
REMARK INTER + INTRA:         -10.944
REMARK INTER:                 -10.421
REMARK INTRA:                  -0.522
REMARK UNBOUND:                -0.929
REMARK  Name = 
REMARK  8 active torsions:
REMARK  status: ('A' for Active; 'I' for Inactive)
REMARK    1  A    between atoms: C_1  and  N_2
REMARK    2  A    between atoms: N_2  and  C_3
REMARK    3  A    between atoms: C_3  and  C_4
REMARK    4  A    between atoms: C_7  and  C_8
REMARK    5  A    between atoms: C_8  and  C_9
REMARK    6  A    between atoms: C_9  and  N_10
REMARK    7  A    between atoms: C_19  and  C_21
REMARK    8  A    between atoms: N_23  and  C_24
REMARK                            x       y       z     vdW  Elec       q    Type
REMARK                         _______ _______ _______ _____ _____    ______ ____
ROOT
ATOM      1  C   UNL     1      47.282   4.615  15.126  0.00  0.00    +0.000 A 
ATOM      2  C   UNL     1      47.764   5.847  14.676  0.00  0.00    +0.000 A 
ATOM      3  C   UNL     1      47.301   6.363  13.467  0.00  0.00    +0.000 A 
ATOM      4  C   UNL     1      46.363   5.653  12.719  0.00  0.00    +0.000 A 
ATOM      5  C   UNL     1      45.945   4.432  13.244  0.00  0.00    +0.000 A 
ATOM      6  N   UNL     1      46.370   3.900  14.421  0.00  0.00    +0.000 NA
ENDROOT
BRANCH   1   7
ATOM      7  C   UNL     1      47.742   4.048  16.451  0.00  0.00    +0.000 C 
BRANCH   7   9
ATOM      8  C   UNL     1      49.838   5.275  17.007  0.00  0.00    +0.000 C 
ATOM      9  N   UNL     1      48.444   5.033  17.284  0.00  0.00    +0.000 N 
ATOM     10  C   UNL     1      47.742   5.561  18.352  0.00  0.00    +0.000 C 
ATOM     11  O   UNL     1      46.560   5.227  18.517  0.00  0.00    +0.000 OA
BRANCH  10  12
ATOM     12  C   UNL     1      48.311   6.589  19.266  0.00  0.00    +0.000 A 
ATOM     13  N   UNL     1      48.903   6.101  20.379  0.00  0.00    +0.000 NA
ATOM     14  N   UNL     1      48.051   6.553  21.310  0.00  0.00    +0.000 N 
ATOM     15  C   UNL     1      47.433   5.567  22.166  0.00  0.00    +0.000 C 
ATOM     16  C   UNL     1      47.577   7.802  20.972  0.00  0.00    +0.000 A 
ATOM     17  C   UNL     1      46.879   8.767  21.679  0.00  0.00    +0.000 A 
ATOM     18  N   UNL     1      46.577   9.930  21.061  0.00  0.00    +0.000 NA
ATOM     19  C   UNL     1      46.928  10.097  19.768  0.00  0.00    +0.000 A 
ATOM     20  C   UNL     1      47.522   9.121  18.973  0.00  0.00    +0.000 A 
ATOM     21  C   UNL     1      47.856   7.913  19.601  0.00  0.00    +0.000 A 
ENDBRANCH  10  12
ENDBRANCH   7   9
ENDBRANCH   1   7
BRANCH   4  22
ATOM     22  C   UNL     1      45.786   6.126  11.404  0.00  0.00    +0.000 C 
BRANCH  22  23
ATOM     23  C   UNL     1      45.020   5.065  10.601  0.00  0.00    +0.000 C 
BRANCH  23  24
ATOM     24  N   UNL     1      45.231   5.227   9.169  0.00  0.00    +0.000 N 
ATOM     25  C   UNL     1      45.712   4.065   8.564  0.00  0.00    +0.000 A 
ATOM     26  N   UNL     1      45.371   2.862   9.051  0.00  0.00    +0.000 NA
ATOM     27  C   UNL     1      45.877   1.780   8.438  0.00  0.00    +0.000 A 
ATOM     28  C   UNL     1      46.706   1.853   7.349  0.00  0.00    +0.000 A 
ATOM     29  C   UNL     1      46.993   3.124   6.919  0.00  0.00    +0.000 A 
ATOM     30  N   UNL     1      46.521   4.241   7.506  0.00  0.00    +0.000 NA
ATOM     31  H   UNL     1      45.873   5.961   8.890  0.00  0.00    +0.000 HD
ENDBRANCH  23  24
ENDBRANCH  22  23
ENDBRANCH   4  22
TORSDOF 6
ENDMDL
MODEL 3
REMARK VINA RESULT:    -7.305      1.602      2.043
REMARK INTER + INTRA:         -10.796
REMARK INTER:                 -10.071
REMARK INTRA:                  -0.725
REMARK UNBOUND:                -0.929
REMARK  Name = 
REMARK  8 active torsions:
REMARK  status: ('A' for Active; 'I' for Inactive)
REMARK    1  A    between atoms: C_1  and  N_2
REMARK    2  A    between atoms: N_2  and  C_3
REMARK    3  A    between atoms: C_3  and  C_4
REMARK    4  A    between atoms: C_7  and  C_8
REMARK    5  A    between atoms: C_8  and  C_9
REMARK    6  A    between atoms: C_9  and  N_10
REMARK    7  A    between atoms: C_19  and  C_21
REMARK    8  A    between atoms: N_23  and  C_24
REMARK                            x       y       z     vdW  Elec       q    Type
REMARK                         _______ _______ _______ _____ _____    ______ ____
ROOT
ATOM      1  C   UNL     1      47.025   4.121  14.127  0.00  0.00    +0.000 A 
ATOM      2  C   UNL     1      46.786   5.484  13.932  0.00  0.00    +0.000 A 
ATOM      3  C   UNL     1      45.842   5.885  12.989  0.00  0.00    +0.000 A 
ATOM      4  C   UNL     1      45.143   4.932  12.252  0.00  0.00    +0.000 A 
ATOM      5  C   UNL     1      45.451   3.597  12.511  0.00  0.00    +0.000 A 
ATOM      6  N   UNL     1      46.361   3.169  13.426  0.00  0.00    +0.000 NA
ENDROOT
BRANCH   1   7
ATOM      7  C   UNL     1      48.020   3.657  15.168  0.00  0.00    +0.000 C 
BRANCH   7   9
ATOM      8  C   UNL     1      46.751   3.866  17.303  0.00  0.00    +0.000 C 
ATOM      9  N   UNL     1      47.838   4.315  16.469  0.00  0.00    +0.000 N 
ATOM     10  C   UNL     1      48.652   5.399  16.739  0.00  0.00    +0.000 C 
ATOM     11  O   UNL     1      49.515   5.723  15.910  0.00  0.00    +0.000 OA
BRANCH  10  12
ATOM     12  C   UNL     1      48.604   6.148  18.025  0.00  0.00    +0.000 A 
ATOM     13  N   UNL     1      48.632   7.494  17.905  0.00  0.00    +0.000 NA
ATOM     14  N   UNL     1      49.831   7.748  18.450  0.00  0.00    +0.000 N 
ATOM     15  C   UNL     1      50.789   8.448  17.625  0.00  0.00    +0.000 C 
ATOM     16  C   UNL     1      50.079   6.895  19.504  0.00  0.00    +0.000 A 
ATOM     17  C   UNL     1      51.033   6.891  20.507  0.00  0.00    +0.000 A 
ATOM     18  N   UNL     1      50.994   5.907  21.434  0.00  0.00    +0.000 NA
ATOM     19  C   UNL     1      50.055   4.944  21.329  0.00  0.00    +0.000 A 
ATOM     20  C   UNL     1      49.147   4.828  20.280  0.00  0.00    +0.000 A 
ATOM     21  C   UNL     1      49.163   5.846  19.316  0.00  0.00    +0.000 A 
ENDBRANCH  10  12
ENDBRANCH   7   9
ENDBRANCH   1   7
BRANCH   4  22
ATOM     22  C   UNL     1      44.090   5.256  11.217  0.00  0.00    +0.000 C 
BRANCH  22  23
ATOM     23  C   UNL     1      43.731   4.110  10.259  0.00  0.00    +0.000 C 
BRANCH  23  24
ATOM     24  N   UNL     1      44.102   4.428   8.887  0.00  0.00    +0.000 N 
ATOM     25  C   UNL     1      45.073   3.563   8.380  0.00  0.00    +0.000 A 
ATOM     26  N   UNL     1      45.126   2.290   8.803  0.00  0.00    +0.000 NA
ATOM     27  C   UNL     1      46.091   1.509   8.293  0.00  0.00    +0.000 A 
ATOM     28  C   UNL     1      47.003   1.948   7.369  0.00  0.00    +0.000 A 
ATOM     29  C   UNL     1      46.866   3.260   6.992  0.00  0.00    +0.000 A 
ATOM     30  N   UNL     1      45.922   4.088   7.483  0.00  0.00    +0.000 NA
ATOM     31  H   UNL     1      44.463   5.362   8.724  0.00  0.00    +0.000 HD
ENDBRANCH  23  24
ENDBRANCH  22  23
ENDBRANCH   4  22
TORSDOF 6
ENDMDL
MODEL 4
REMARK VINA RESULT:    -6.964      3.107      3.639
REMARK INTER + INTRA:         -10.335
REMARK INTER:                  -9.694
REMARK INTRA:                  -0.641
REMARK UNBOUND:                -0.929
REMARK  Name = 
REMARK  8 active torsions:
REMARK  status: ('A' for Active; 'I' for Inactive)
REMARK    1  A    between atoms: C_1  and  N_2
REMARK    2  A    between atoms: N_2  and  C_3
REMARK    3  A    between atoms: C_3  and  C_4
REMARK    4  A    between atoms: C_7  and  C_8
REMARK    5  A    between atoms: C_8  and  C_9
REMARK    6  A    between atoms: C_9  and  N_10
REMARK    7  A    between atoms: C_19  and  C_21
REMARK    8  A    between atoms: N_23  and  C_24
REMARK                            x       y       z     vdW  Elec       q    Type
REMARK                         _______ _______ _______ _____ _____    ______ ____
ROOT
ATOM      1  C   UNL     1      48.870   7.443  14.379  0.00  0.00    +0.000 A 
ATOM      2  C   UNL     1      47.971   8.513  14.348  0.00  0.00    +0.000 A 
ATOM      3  C   UNL     1      46.824   8.421  13.562  0.00  0.00    +0.000 A 
ATOM      4  C   UNL     1      46.578   7.268  12.820  0.00  0.00    +0.000 A 
ATOM      5  C   UNL     1      47.531   6.255  12.909  0.00  0.00    +0.000 A 
ATOM      6  N   UNL     1      48.658   6.308  13.668  0.00  0.00    +0.000 NA
ENDROOT
BRANCH   1   7
ATOM      7  C   UNL     1      50.105   7.504  15.250  0.00  0.00    +0.000 C 
BRANCH   7   9
ATOM      8  C   UNL     1      48.828   6.221  16.962  0.00  0.00    +0.000 C 
ATOM      9  N   UNL     1      50.093   6.514  16.334  0.00  0.00    +0.000 N 
ATOM     10  C   UNL     1      51.319   6.030  16.752  0.00  0.00    +0.000 C 
ATOM     11  O   UNL     1      52.343   6.406  16.165  0.00  0.00    +0.000 OA
BRANCH  10  12
ATOM     12  C   UNL     1      51.463   5.003  17.820  0.00  0.00    +0.000 A 
ATOM     13  N   UNL     1      52.348   5.310  18.794  0.00  0.00    +0.000 NA
ATOM     14  N   UNL     1      53.285   4.382  18.554  0.00  0.00    +0.000 N 
ATOM     15  C   UNL     1      54.623   4.858  18.285  0.00  0.00    +0.000 C 
ATOM     16  C   UNL     1      52.708   3.197  18.153  0.00  0.00    +0.000 A 
ATOM     17  C   UNL     1      53.200   1.911  18.011  0.00  0.00    +0.000 A 
ATOM     18  N   UNL     1      52.354   0.934  17.615  0.00  0.00    +0.000 NA
ATOM     19  C   UNL     1      51.072   1.251  17.333  0.00  0.00    +0.000 A 
ATOM     20  C   UNL     1      50.551   2.541  17.341  0.00  0.00    +0.000 A 
ATOM     21  C   UNL     1      51.410   3.566  17.763  0.00  0.00    +0.000 A 
ENDBRANCH  10  12
ENDBRANCH   7   9
ENDBRANCH   1   7
BRANCH   4  22
ATOM     22  C   UNL     1      45.361   7.057  11.948  0.00  0.00    +0.000 C 
BRANCH  22  23
ATOM     23  C   UNL     1      45.259   5.679  11.278  0.00  0.00    +0.000 C 
BRANCH  23  24
ATOM     24  N   UNL     1      45.273   5.790   9.826  0.00  0.00    +0.000 N 
ATOM     25  C   UNL     1      45.484   4.563   9.196  0.00  0.00    +0.000 A 
ATOM     26  N   UNL     1      45.048   3.430   9.770  0.00  0.00    +0.000 NA
ATOM     27  C   UNL     1      45.292   2.278   9.126  0.00  0.00    +0.000 A 
ATOM     28  C   UNL     1      45.950   2.213   7.925  0.00  0.00    +0.000 A 
ATOM     29  C   UNL     1      46.351   3.421   7.414  0.00  0.00    +0.000 A 
ATOM     30  N   UNL     1      46.141   4.604   8.026  0.00  0.00    +0.000 NA
ATOM     31  H   UNL     1      45.966   6.417   9.431  0.00  0.00    +0.000 HD
ENDBRANCH  23  24
ENDBRANCH  22  23
ENDBRANCH   4  22
TORSDOF 6
ENDMDL
MODEL 5
REMARK VINA RESULT:    -6.726      2.959      3.726
REMARK INTER + INTRA:         -10.014
REMARK INTER:                  -9.635
REMARK INTRA:                  -0.379
REMARK UNBOUND:                -0.929
REMARK  Name = 
REMARK  8 active torsions:
REMARK  status: ('A' for Active; 'I' for Inactive)
REMARK    1  A    between atoms: C_1  and  N_2
REMARK    2  A    between atoms: N_2  and  C_3
REMARK    3  A    between atoms: C_3  and  C_4
REMARK    4  A    between atoms: C_7  and  C_8
REMARK    5  A    between atoms: C_8  and  C_9
REMARK    6  A    between atoms: C_9  and  N_10
REMARK    7  A    between atoms: C_19  and  C_21
REMARK    8  A    between atoms: N_23  and  C_24
REMARK                            x       y       z     vdW  Elec       q    Type
REMARK                         _______ _______ _______ _____ _____    ______ ____
ROOT
ATOM      1  C   UNL     1      47.639   4.622  15.834  0.00  0.00    +0.000 A 
ATOM      2  C   UNL     1      48.128   5.886  15.492  0.00  0.00    +0.000 A 
ATOM      3  C   UNL     1      47.844   6.413  14.233  0.00  0.00    +0.000 A 
ATOM      4  C   UNL     1      47.075   5.683  13.329  0.00  0.00    +0.000 A 
ATOM      5  C   UNL     1      46.635   4.431  13.755  0.00  0.00    +0.000 A 
ATOM      6  N   UNL     1      46.888   3.888  14.975  0.00  0.00    +0.000 NA
ENDROOT
BRANCH   1   7
ATOM      7  C   UNL     1      47.904   4.042  17.205  0.00  0.00    +0.000 C 
BRANCH   7   9
ATOM      8  C   UNL     1      48.742   5.919  18.612  0.00  0.00    +0.000 C 
ATOM      9  N   UNL     1      49.020   4.697  17.900  0.00  0.00    +0.000 N 
ATOM     10  C   UNL     1      50.277   4.153  17.713  0.00  0.00    +0.000 C 
ATOM     11  O   UNL     1      50.391   3.128  17.027  0.00  0.00    +0.000 OA
BRANCH  10  12
ATOM     12  C   UNL     1      51.498   4.690  18.374  0.00  0.00    +0.000 A 
ATOM     13  N   UNL     1      52.625   4.630  17.630  0.00  0.00    +0.000 NA
ATOM     14  N   UNL     1      53.320   3.728  18.339  0.00  0.00    +0.000 N 
ATOM     15  C   UNL     1      53.744   2.535  17.642  0.00  0.00    +0.000 C 
ATOM     16  C   UNL     1      53.095   3.889  19.689  0.00  0.00    +0.000 A 
ATOM     17  C   UNL     1      53.724   3.385  20.814  0.00  0.00    +0.000 A 
ATOM     18  N   UNL     1      53.273   3.763  22.032  0.00  0.00    +0.000 NA
ATOM     19  C   UNL     1      52.205   4.585  22.110  0.00  0.00    +0.000 A 
ATOM     20  C   UNL     1      51.461   5.027  21.021  0.00  0.00    +0.000 A 
ATOM     21  C   UNL     1      51.921   4.657  19.749  0.00  0.00    +0.000 A 
ENDBRANCH  10  12
ENDBRANCH   7   9
ENDBRANCH   1   7
BRANCH   4  22
ATOM     22  C   UNL     1      46.696   6.165  11.947  0.00  0.00    +0.000 C 
BRANCH  22  23
ATOM     23  C   UNL     1      45.334   5.680  11.429  0.00  0.00    +0.000 C 
BRANCH  23  24
ATOM     24  N   UNL     1      45.236   5.815   9.983  0.00  0.00    +0.000 N 
ATOM     25  C   UNL     1      45.425   4.603   9.317  0.00  0.00    +0.000 A 
ATOM     26  N   UNL     1      45.058   3.451   9.901  0.00  0.00    +0.000 NA
ATOM     27  C   UNL     1      45.279   2.315   9.221  0.00  0.00    +0.000 A 
ATOM     28  C   UNL     1      45.845   2.285   7.973  0.00  0.00    +0.000 A 
ATOM     29  C   UNL     1      46.179   3.510   7.454  0.00  0.00    +0.000 A 
ATOM     30  N   UNL     1      45.990   4.678   8.101  0.00  0.00    +0.000 NA
ATOM     31  H   UNL     1      45.882   6.464   9.547  0.00  0.00    +0.000 HD
ENDBRANCH  23  24
ENDBRANCH  22  23
ENDBRANCH   4  22
TORSDOF 6
ENDMDL
MODEL 6
REMARK VINA RESULT:    -6.670      4.263      8.674
REMARK INTER + INTRA:          -9.938
REMARK INTER:                  -8.983
REMARK INTRA:                  -0.956
REMARK UNBOUND:                -0.929
REMARK  Name = 
REMARK  8 active torsions:
REMARK  status: ('A' for Active; 'I' for Inactive)
REMARK    1  A    between atoms: C_1  and  N_2
REMARK    2  A    between atoms: N_2  and  C_3
REMARK    3  A    between atoms: C_3  and  C_4
REMARK    4  A    between atoms: C_7  and  C_8
REMARK    5  A    between atoms: C_8  and  C_9
REMARK    6  A    between atoms: C_9  and  N_10
REMARK    7  A    between atoms: C_19  and  C_21
REMARK    8  A    between atoms: N_23  and  C_24
REMARK                            x       y       z     vdW  Elec       q    Type
REMARK                         _______ _______ _______ _____ _____    ______ ____
ROOT
ATOM      1  C   UNL     1      47.930   8.280  12.660  0.00  0.00    +0.000 A 
ATOM      2  C   UNL     1      48.773   7.519  11.844  0.00  0.00    +0.000 A 
ATOM      3  C   UNL     1      49.980   8.064  11.411  0.00  0.00    +0.000 A 
ATOM      4  C   UNL     1      50.341   9.354  11.793  0.00  0.00    +0.000 A 
ATOM      5  C   UNL     1      49.436  10.039  12.603  0.00  0.00    +0.000 A 
ATOM      6  N   UNL     1      48.253   9.539  13.049  0.00  0.00    +0.000 NA
ENDROOT
BRANCH   1   7
ATOM      7  C   UNL     1      46.630   7.701  13.172  0.00  0.00    +0.000 C 
BRANCH   7   9
ATOM      8  C   UNL     1      44.967   8.283  11.411  0.00  0.00    +0.000 C 
ATOM      9  N   UNL     1      45.730   7.269  12.095  0.00  0.00    +0.000 N 
ATOM     10  C   UNL     1      45.593   5.907  11.905  0.00  0.00    +0.000 C 
ATOM     11  O   UNL     1      46.266   5.133  12.602  0.00  0.00    +0.000 OA
BRANCH  10  12
ATOM     12  C   UNL     1      44.740   5.320  10.836  0.00  0.00    +0.000 A 
ATOM     13  N   UNL     1      43.549   4.837  11.254  0.00  0.00    +0.000 NA
ATOM     14  N   UNL     1      43.743   3.528  11.039  0.00  0.00    +0.000 N 
ATOM     15  C   UNL     1      43.602   2.650  12.178  0.00  0.00    +0.000 C 
ATOM     16  C   UNL     1      44.487   3.326   9.897  0.00  0.00    +0.000 A 
ATOM     17  C   UNL     1      44.759   2.200   9.138  0.00  0.00    +0.000 A 
ATOM     18  N   UNL     1      45.519   2.336   8.028  0.00  0.00    +0.000 NA
ATOM     19  C   UNL     1      46.020   3.552   7.720  0.00  0.00    +0.000 A 
ATOM     20  C   UNL     1      45.881   4.691   8.507  0.00  0.00    +0.000 A 
ATOM     21  C   UNL     1      45.084   4.573   9.654  0.00  0.00    +0.000 A 
ENDBRANCH  10  12
ENDBRANCH   7   9
ENDBRANCH   1   7
BRANCH   4  22
ATOM     22  C   UNL     1      51.631  10.034  11.392  0.00  0.00    +0.000 C 
BRANCH  22  23
ATOM     23  C   UNL     1      52.237   9.566  10.061  0.00  0.00    +0.000 C 
BRANCH  23  24
ATOM     24  N   UNL     1      53.285   8.577  10.273  0.00  0.00    +0.000 N 
ATOM     25  C   UNL     1      53.295   7.587   9.289  0.00  0.00    +0.000 A 
ATOM     26  N   UNL     1      52.903   7.879   8.039  0.00  0.00    +0.000 NA
ATOM     27  C   UNL     1      52.918   6.884   7.138  0.00  0.00    +0.000 A 
ATOM     28  C   UNL     1      53.319   5.607   7.436  0.00  0.00    +0.000 A 
ATOM     29  C   UNL     1      53.710   5.407   8.736  0.00  0.00    +0.000 A 
ATOM     30  N   UNL     1      53.701   6.368   9.680  0.00  0.00    +0.000 NA
ATOM     31  H   UNL     1      53.259   8.077  11.156  0.00  0.00    +0.000 HD
ENDBRANCH  23  24
ENDBRANCH  22  23
ENDBRANCH   4  22
TORSDOF 6
ENDMDL
MODEL 7
REMARK VINA RESULT:    -6.654      1.939      3.351
REMARK INTER + INTRA:          -9.918
REMARK INTER:                  -9.138
REMARK INTRA:                  -0.780
REMARK UNBOUND:                -0.929
REMARK  Name = 
REMARK  8 active torsions:
REMARK  status: ('A' for Active; 'I' for Inactive)
REMARK    1  A    between atoms: C_1  and  N_2
REMARK    2  A    between atoms: N_2  and  C_3
REMARK    3  A    between atoms: C_3  and  C_4
REMARK    4  A    between atoms: C_7  and  C_8
REMARK    5  A    between atoms: C_8  and  C_9
REMARK    6  A    between atoms: C_9  and  N_10
REMARK    7  A    between atoms: C_19  and  C_21
REMARK    8  A    between atoms: N_23  and  C_24
REMARK                            x       y       z     vdW  Elec       q    Type
REMARK                         _______ _______ _______ _____ _____    ______ ____
ROOT
ATOM      1  C   UNL     1      47.322   4.461  15.593  0.00  0.00    +0.000 A 
ATOM      2  C   UNL     1      48.027   5.641  15.336  0.00  0.00    +0.000 A 
ATOM      3  C   UNL     1      47.869   6.279  14.107  0.00  0.00    +0.000 A 
ATOM      4  C   UNL     1      47.013   5.743  13.148  0.00  0.00    +0.000 A 
ATOM      5  C   UNL     1      46.356   4.562  13.490  0.00  0.00    +0.000 A 
ATOM      6  N   UNL     1      46.481   3.915  14.679  0.00  0.00    +0.000 NA
ENDROOT
BRANCH   1   7
ATOM      7  C   UNL     1      47.448   3.767  16.930  0.00  0.00    +0.000 C 
BRANCH   7   9
ATOM      8  C   UNL     1      49.857   3.731  17.567  0.00  0.00    +0.000 C 
ATOM      9  N   UNL     1      48.544   4.297  17.752  0.00  0.00    +0.000 N 
ATOM     10  C   UNL     1      48.203   5.215  18.728  0.00  0.00    +0.000 C 
ATOM     11  O   UNL     1      47.023   5.579  18.823  0.00  0.00    +0.000 OA
BRANCH  10  12
ATOM     12  C   UNL     1      49.207   5.860  19.618  0.00  0.00    +0.000 A 
ATOM     13  N   UNL     1      48.863   5.917  20.924  0.00  0.00    +0.000 NA
ATOM     14  N   UNL     1      48.715   7.242  21.065  0.00  0.00    +0.000 N 
ATOM     15  C   UNL     1      47.427   7.711  21.523  0.00  0.00    +0.000 C 
ATOM     16  C   UNL     1      49.648   7.921  20.312  0.00  0.00    +0.000 A 
ATOM     17  C   UNL     1      50.055   9.244  20.287  0.00  0.00    +0.000 A 
ATOM     18  N   UNL     1      51.039   9.603  19.432  0.00  0.00    +0.000 NA
ATOM     19  C   UNL     1      51.562   8.672  18.605  0.00  0.00    +0.000 A 
ATOM     20  C   UNL     1      51.112   7.359  18.501  0.00  0.00    +0.000 A 
ATOM     21  C   UNL     1      50.102   6.964  19.390  0.00  0.00    +0.000 A 
ENDBRANCH  10  12
ENDBRANCH   7   9
ENDBRANCH   1   7
BRANCH   4  22
ATOM     22  C   UNL     1      46.758   6.360  11.791  0.00  0.00    +0.000 C 
BRANCH  22  23
ATOM     23  C   UNL     1      45.346   6.152  11.226  0.00  0.00    +0.000 C 
BRANCH  23  24
ATOM     24  N   UNL     1      45.369   6.000   9.778  0.00  0.00    +0.000 N 
ATOM     25  C   UNL     1      45.353   4.662   9.379  0.00  0.00    +0.000 A 
ATOM     26  N   UNL     1      44.727   3.744  10.131  0.00  0.00    +0.000 NA
ATOM     27  C   UNL     1      44.759   2.471   9.706  0.00  0.00    +0.000 A 
ATOM     28  C   UNL     1      45.386   2.079   8.552  0.00  0.00    +0.000 A 
ATOM     29  C   UNL     1      45.991   3.088   7.846  0.00  0.00    +0.000 A 
ATOM     30  N   UNL     1      45.999   4.379   8.236  0.00  0.00    +0.000 NA
ATOM     31  H   UNL     1      46.160   6.415   9.295  0.00  0.00    +0.000 HD
ENDBRANCH  23  24
ENDBRANCH  22  23
ENDBRANCH   4  22
TORSDOF 6
ENDMDL
MODEL 8
REMARK VINA RESULT:    -6.560      1.913      2.652
REMARK INTER + INTRA:          -9.791
REMARK INTER:                  -8.965
REMARK INTRA:                  -0.826
REMARK UNBOUND:                -0.929
REMARK  Name = 
REMARK  8 active torsions:
REMARK  status: ('A' for Active; 'I' for Inactive)
REMARK    1  A    between atoms: C_1  and  N_2
REMARK    2  A    between atoms: N_2  and  C_3
REMARK    3  A    between atoms: C_3  and  C_4
REMARK    4  A    between atoms: C_7  and  C_8
REMARK    5  A    between atoms: C_8  and  C_9
REMARK    6  A    between atoms: C_9  and  N_10
REMARK    7  A    between atoms: C_19  and  C_21
REMARK    8  A    between atoms: N_23  and  C_24
REMARK                            x       y       z     vdW  Elec       q    Type
REMARK                         _______ _______ _______ _____ _____    ______ ____
ROOT
ATOM      1  C   UNL     1      46.743   7.189  12.132  0.00  0.00    +0.000 A 
ATOM      2  C   UNL     1      45.476   7.594  11.701  0.00  0.00    +0.000 A 
ATOM      3  C   UNL     1      44.443   6.660  11.641  0.00  0.00    +0.000 A 
ATOM      4  C   UNL     1      44.676   5.337  12.012  0.00  0.00    +0.000 A 
ATOM      5  C   UNL     1      45.971   5.025  12.423  0.00  0.00    +0.000 A 
ATOM      6  N   UNL     1      47.001   5.909  12.498  0.00  0.00    +0.000 NA
ENDROOT
BRANCH   1   7
ATOM      7  C   UNL     1      47.873   8.189  12.238  0.00  0.00    +0.000 C 
BRANCH   7   9
ATOM      8  C   UNL     1      47.642   8.784  14.647  0.00  0.00    +0.000 C 
ATOM      9  N   UNL     1      48.458   8.253  13.584  0.00  0.00    +0.000 N 
ATOM     10  C   UNL     1      49.793   7.912  13.700  0.00  0.00    +0.000 C 
ATOM     11  O   UNL     1      50.403   7.523  12.694  0.00  0.00    +0.000 OA
BRANCH  10  12
ATOM     12  C   UNL     1      50.516   7.901  15.002  0.00  0.00    +0.000 A 
ATOM     13  N   UNL     1      50.636   6.685  15.579  0.00  0.00    +0.000 NA
ATOM     14  N   UNL     1      49.854   6.862  16.654  0.00  0.00    +0.000 N 
ATOM     15  C   UNL     1      48.745   5.950  16.814  0.00  0.00    +0.000 C 
ATOM     16  C   UNL     1      49.976   8.147  17.139  0.00  0.00    +0.000 A 
ATOM     17  C   UNL     1      49.575   8.748  18.320  0.00  0.00    +0.000 A 
ATOM     18  N   UNL     1      49.875  10.052  18.516  0.00  0.00    +0.000 NA
ATOM     19  C   UNL     1      50.517  10.732  17.543  0.00  0.00    +0.000 A 
ATOM     20  C   UNL     1      50.838  10.215  16.291  0.00  0.00    +0.000 A 
ATOM     21  C   UNL     1      50.548   8.861  16.074  0.00  0.00    +0.000 A 
ENDBRANCH  10  12
ENDBRANCH   7   9
ENDBRANCH   1   7
BRANCH   4  22
ATOM     22  C   UNL     1      43.626   4.249  11.998  0.00  0.00    +0.000 C 
BRANCH  22  23
ATOM     23  C   UNL     1      43.732   3.245  10.841  0.00  0.00    +0.000 C 
BRANCH  23  24
ATOM     24  N   UNL     1      43.889   3.922   9.561  0.00  0.00    +0.000 N 
ATOM     25  C   UNL     1      44.923   3.385   8.793  0.00  0.00    +0.000 A 
ATOM     26  N   UNL     1      45.228   2.082   8.894  0.00  0.00    +0.000 NA
ATOM     27  C   UNL     1      46.242   1.625   8.143  0.00  0.00    +0.000 A 
ATOM     28  C   UNL     1      46.960   2.418   7.286  0.00  0.00    +0.000 A 
ATOM     29  C   UNL     1      46.571   3.733   7.245  0.00  0.00    +0.000 A 
ATOM     30  N   UNL     1      45.568   4.244   7.987  0.00  0.00    +0.000 NA
ATOM     31  H   UNL     1      44.073   4.920   9.600  0.00  0.00    +0.000 HD
ENDBRANCH  23  24
ENDBRANCH  22  23
ENDBRANCH   4  22
TORSDOF 6
ENDMDL
MODEL 9
REMARK VINA RESULT:    -6.325      1.462      2.311
REMARK INTER + INTRA:          -9.473
REMARK INTER:                  -8.873
REMARK INTRA:                  -0.600
REMARK UNBOUND:                -0.929
REMARK  Name = 
REMARK  8 active torsions:
REMARK  status: ('A' for Active; 'I' for Inactive)
REMARK    1  A    between atoms: C_1  and  N_2
REMARK    2  A    between atoms: N_2  and  C_3
REMARK    3  A    between atoms: C_3  and  C_4
REMARK    4  A    between atoms: C_7  and  C_8
REMARK    5  A    between atoms: C_8  and  C_9
REMARK    6  A    between atoms: C_9  and  N_10
REMARK    7  A    between atoms: C_19  and  C_21
REMARK    8  A    between atoms: N_23  and  C_24
REMARK                            x       y       z     vdW  Elec       q    Type
REMARK                         _______ _______ _______ _____ _____    ______ ____
ROOT
ATOM      1  C   UNL     1      48.397   7.715  14.093  0.00  0.00    +0.000 A 
ATOM      2  C   UNL     1      47.407   8.676  13.866  0.00  0.00    +0.000 A 
ATOM      3  C   UNL     1      46.290   8.341  13.103  0.00  0.00    +0.000 A 
ATOM      4  C   UNL     1      46.165   7.057  12.576  0.00  0.00    +0.000 A 
ATOM      5  C   UNL     1      47.203   6.168  12.850  0.00  0.00    +0.000 A 
ATOM      6  N   UNL     1      48.303   6.457  13.593  0.00  0.00    +0.000 NA
ENDROOT
BRANCH   1   7
ATOM      7  C   UNL     1      49.602   8.042  14.946  0.00  0.00    +0.000 C 
BRANCH   7   9
ATOM      8  C   UNL     1      48.560   8.564  17.149  0.00  0.00    +0.000 C 
ATOM      9  N   UNL     1      49.411   7.705  16.363  0.00  0.00    +0.000 N 
ATOM     10  C   UNL     1      50.164   6.658  16.862  0.00  0.00    +0.000 C 
ATOM     11  O   UNL     1      50.906   6.032  16.093  0.00  0.00    +0.000 OA
BRANCH  10  12
ATOM     12  C   UNL     1      50.058   6.184  18.270  0.00  0.00    +0.000 A 
ATOM     13  N   UNL     1      49.340   5.052  18.440  0.00  0.00    +0.000 NA
ATOM     14  N   UNL     1      48.293   5.543  19.118  0.00  0.00    +0.000 N 
ATOM     15  C   UNL     1      46.985   5.342  18.537  0.00  0.00    +0.000 C 
ATOM     16  C   UNL     1      48.694   6.537  19.984  0.00  0.00    +0.000 A 
ATOM     17  C   UNL     1      48.064   7.181  21.035  0.00  0.00    +0.000 A 
ATOM     18  N   UNL     1      48.752   8.116  21.727  0.00  0.00    +0.000 NA
ATOM     19  C   UNL     1      50.012   8.419  21.348  0.00  0.00    +0.000 A 
ATOM     20  C   UNL     1      50.654   7.894  20.230  0.00  0.00    +0.000 A 
ATOM     21  C   UNL     1      49.961   6.912  19.508  0.00  0.00    +0.000 A 
ENDBRANCH  10  12
ENDBRANCH   7   9
ENDBRANCH   1   7
BRANCH   4  22
ATOM     22  C   UNL     1      44.991   6.585  11.747  0.00  0.00    +0.000 C 
BRANCH  22  23
ATOM     23  C   UNL     1      45.208   5.270  10.984  0.00  0.00    +0.000 C 
BRANCH  23  24
ATOM     24  N   UNL     1      45.291   5.496   9.548  0.00  0.00    +0.000 N 
ATOM     25  C   UNL     1      45.668   4.351   8.846  0.00  0.00    +0.000 A 
ATOM     26  N   UNL     1      45.327   3.137   9.307  0.00  0.00    +0.000 NA
ATOM     27  C   UNL     1      45.731   2.071   8.599  0.00  0.00    +0.000 A 
ATOM     28  C   UNL     1      46.458   2.170   7.441  0.00  0.00    +0.000 A 
ATOM     29  C   UNL     1      46.752   3.450   7.044  0.00  0.00    +0.000 A 
ATOM     30  N   UNL     1      46.381   4.552   7.725  0.00  0.00    +0.000 NA
ATOM     31  H   UNL     1      45.932   6.222   9.243  0.00  0.00    +0.000 HD
ENDBRANCH  23  24
ENDBRANCH  22  23
ENDBRANCH   4  22
TORSDOF 6
ENDMDL
