MODEL 1
REMARK VINA RESULT:    -7.711      0.000      0.000
REMARK INTER + INTRA:         -10.121
REMARK INTER:                  -9.514
REMARK INTRA:                  -0.607
REMARK UNBOUND:                -0.607
REMARK  Name = 
REMARK  4 active torsions:
REMARK  status: ('A' for Active; 'I' for Inactive)
REMARK    1  A    between atoms: C_4  and  O_5
REMARK    2  A    between atoms: O_5  and  C_6
REMARK    3  A    between atoms: C_6  and  C_7
REMARK    4  A    between atoms: C_11  and  N_12
REMARK                            x       y       z     vdW  Elec       q    Type
REMARK                         _______ _______ _______ _____ _____    ______ ____
ROOT
ATOM      1  C   UNL     1      44.689   4.014  10.956  0.00  0.00    +0.000 A 
ATOM      2  C   UNL     1      44.356   3.485  12.198  0.00  0.00    +0.000 A 
ATOM      3  N   UNL     1      44.686   4.055  13.372  0.00  0.00    +0.000 NA
ATOM      4  C   UNL     1      45.383   5.214  13.294  0.00  0.00    +0.000 A 
ATOM      5  C   UNL     1      45.788   5.850  12.114  0.00  0.00    +0.000 A 
ATOM      6  C   UNL     1      45.442   5.199  10.928  0.00  0.00    +0.000 A 
ENDROOT
BRANCH   5   7
ATOM      7  N   UNL     1      46.488   7.054  12.172  0.00  0.00    +0.000 N 
ATOM      8  C   UNL     1      45.903   8.223  12.831  0.00  0.00    +0.000 C 
ATOM      9  C   UNL     1      46.540   9.477  12.223  0.00  0.00    +0.000 C 
ATOM     10  C   UNL     1      48.070   9.435  12.282  0.00  0.00    +0.000 C 
ATOM     11  C   UNL     1      48.621   8.121  11.725  0.00  0.00    +0.000 C 
ATOM     12  C   UNL     1      47.937   6.919  12.371  0.00  0.00    +0.000 C 
ENDBRANCH   5   7
BRANCH   1  13
ATOM     13  C   UNL     1      44.206   3.354   9.694  0.00  0.00    +0.000 C 
BRANCH  13  14
ATOM     14  O   UNL     1      44.847   2.091   9.520  0.00  0.00    +0.000 OA
BRANCH  14  18
ATOM     15  C   UNL     1      47.373   2.182   6.271  0.00  0.00    +0.000 A 
ATOM     16  C   UNL     1      46.611   3.304   6.584  0.00  0.00    +0.000 A 
ATOM     17  C   UNL     1      45.759   3.266   7.685  0.00  0.00    +0.000 A 
ATOM     18  C   UNL     1      45.703   2.101   8.433  0.00  0.00    +0.000 A 
ATOM     19  N   UNL     1      46.433   0.999   8.151  0.00  0.00    +0.000 NA
ATOM     20  C   UNL     1      47.250   1.065   7.078  0.00  0.00    +0.000 A 
ENDBRANCH  14  18
ENDBRANCH  13  14
ENDBRANCH   1  13
TORSDOF 4
ENDMDL
MODEL 2
REMARK VINA RESULT:    -7.357      1.787      6.241
REMARK INTER + INTRA:          -9.684
REMARK INTER:                  -8.899
REMARK INTRA:                  -0.785
REMARK UNBOUND:                -0.607
REMARK  Name = 
REMARK  4 active torsions:
REMARK  status: ('A' for Active; 'I' for Inactive)
REMARK    1  A    between atoms: C_4  and  O_5
REMARK    2  A    between atoms: O_5  and  C_6
REMARK    3  A    between atoms: C_6  and  C_7
REMARK    4  A    between atoms: C_11  and  N_12
REMARK                            x       y       z     vdW  Elec       q    Type
REMARK                         _______ _______ _______ _____ _____    ______ ____
ROOT
ATOM      1  C   UNL     1      43.997   5.039  11.074  0.00  0.00    +0.000 A 
ATOM      2  C   UNL     1      43.241   4.081  11.741  0.00  0.00    +0.000 A 
ATOM      3  N   UNL     1      43.225   2.775  11.415  0.00  0.00    +0.000 NA
ATOM      4  C   UNL     1      44.009   2.414  10.370  0.00  0.00    +0.000 A 
ATOM      5  C   UNL     1      44.812   3.274   9.611  0.00  0.00    +0.000 A 
ATOM      6  C   UNL     1      44.767   4.621   9.977  0.00  0.00    +0.000 A 
ENDROOT
BRANCH   5   7
ATOM      7  N   UNL     1      45.588   2.770   8.570  0.00  0.00    +0.000 N 
ATOM      8  C   UNL     1      45.711   1.326   8.365  0.00  0.00    +0.000 C 
ATOM      9  C   UNL     1      47.032   1.062   7.633  0.00  0.00    +0.000 C 
ATOM     10  C   UNL     1      47.152   1.881   6.345  0.00  0.00    +0.000 C 
ATOM     11  C   UNL     1      46.856   3.362   6.587  0.00  0.00    +0.000 C 
ATOM     12  C   UNL     1      45.532   3.547   7.324  0.00  0.00    +0.000 C 
ENDBRANCH   5   7
BRANCH   1  13
ATOM     13  C   UNL     1      44.019   6.462  11.560  0.00  0.00    +0.000 C 
BRANCH  13  14
ATOM     14  O   UNL     1      44.613   6.534  12.856  0.00  0.00    +0.000 OA
BRANCH  14  18
ATOM     15  C   UNL     1      48.692   7.016  12.586  0.00  0.00    +0.000 A 
ATOM     16  C   UNL     1      47.846   7.936  11.973  0.00  0.00    +0.000 A 
ATOM     17  C   UNL     1      46.467   7.767  12.068  0.00  0.00    +0.000 A 
ATOM     18  C   UNL     1      45.986   6.678  12.778  0.00  0.00    +0.000 A 
ATOM     19  N   UNL     1      46.786   5.772  13.384  0.00  0.00    +0.000 NA
ATOM     20  C   UNL     1      48.118   5.962  13.274  0.00  0.00    +0.000 A 
ENDBRANCH  14  18
ENDBRANCH  13  14
ENDBRANCH   1  13
TORSDOF 4
ENDMDL
MODEL 3
REMARK VINA RESULT:    -7.270      1.786      6.545
REMARK INTER + INTRA:          -9.577
REMARK INTER:                  -8.887
REMARK INTRA:                  -0.690
REMARK UNBOUND:                -0.607
REMARK  Name = 
REMARK  4 active torsions:
REMARK  status: ('A' for Active; 'I' for Inactive)
REMARK    1  A    between atoms: C_4  and  O_5
REMARK    2  A    between atoms: O_5  and  C_6
REMARK    3  A    between atoms: C_6  and  C_7
REMARK    4  A    between atoms: C_11  and  N_12
REMARK                            x       y       z     vdW  Elec       q    Type
REMARK                         _______ _______ _______ _____ _____    ______ ____
ROOT
ATOM      1  C   UNL     1      44.100   5.118  11.031  0.00  0.00    +0.000 A 
ATOM      2  C   UNL     1      43.305   4.192  11.697  0.00  0.00    +0.000 A 
ATOM      3  N   UNL     1      43.249   2.884  11.382  0.00  0.00    +0.000 NA
ATOM      4  C   UNL     1      44.032   2.487  10.350  0.00  0.00    +0.000 A 
ATOM      5  C   UNL     1      44.872   3.313   9.592  0.00  0.00    +0.000 A 
ATOM      6  C   UNL     1      44.867   4.664   9.945  0.00  0.00    +0.000 A 
ENDROOT
BRANCH   5   7
ATOM      7  N   UNL     1      45.642   2.774   8.564  0.00  0.00    +0.000 N 
ATOM      8  C   UNL     1      45.700   1.326   8.359  0.00  0.00    +0.000 C 
ATOM      9  C   UNL     1      47.019   1.001   7.650  0.00  0.00    +0.000 C 
ATOM     10  C   UNL     1      47.202   1.814   6.366  0.00  0.00    +0.000 C 
ATOM     11  C   UNL     1      46.972   3.307   6.606  0.00  0.00    +0.000 C 
ATOM     12  C   UNL     1      45.645   3.554   7.318  0.00  0.00    +0.000 C 
ENDBRANCH   5   7
BRANCH   1  13
ATOM     13  C   UNL     1      44.164   6.544  11.504  0.00  0.00    +0.000 C 
BRANCH  13  14
ATOM     14  O   UNL     1      44.986   6.642  12.667  0.00  0.00    +0.000 OA
BRANCH  14  18
ATOM     15  C   UNL     1      48.296   8.993  11.989  0.00  0.00    +0.000 A 
ATOM     16  C   UNL     1      48.355   7.627  11.731  0.00  0.00    +0.000 A 
ATOM     17  C   UNL     1      47.232   6.837  11.962  0.00  0.00    +0.000 A 
ATOM     18  C   UNL     1      46.086   7.450  12.445  0.00  0.00    +0.000 A 
ATOM     19  N   UNL     1      46.002   8.775  12.702  0.00  0.00    +0.000 NA
ATOM     20  C   UNL     1      47.107   9.514  12.469  0.00  0.00    +0.000 A 
ENDBRANCH  14  18
ENDBRANCH  13  14
ENDBRANCH   1  13
TORSDOF 4
ENDMDL
MODEL 4
REMARK VINA RESULT:    -7.194      1.040      1.500
REMARK INTER + INTRA:          -9.483
REMARK INTER:                  -8.849
REMARK INTRA:                  -0.634
REMARK UNBOUND:                -0.607
REMARK  Name = 
REMARK  4 active torsions:
REMARK  status: ('A' for Active; 'I' for Inactive)
REMARK    1  A    between atoms: C_4  and  O_5
REMARK    2  A    between atoms: O_5  and  C_6
REMARK    3  A    between atoms: C_6  and  C_7
REMARK    4  A    between atoms: C_11  and  N_12
REMARK                            x       y       z     vdW  Elec       q    Type
REMARK                         _______ _______ _______ _____ _____    ______ ____
ROOT
ATOM      1  C   UNL     1      45.033   4.396  11.332  0.00  0.00    +0.000 A 
ATOM      2  C   UNL     1      45.079   3.470  12.369  0.00  0.00    +0.000 A 
ATOM      3  N   UNL     1      45.833   3.616  13.474  0.00  0.00    +0.000 NA
ATOM      4  C   UNL     1      46.575   4.747  13.542  0.00  0.00    +0.000 A 
ATOM      5  C   UNL     1      46.627   5.755  12.571  0.00  0.00    +0.000 A 
ATOM      6  C   UNL     1      45.846   5.536  11.434  0.00  0.00    +0.000 A 
ENDROOT
BRANCH   5   7
ATOM      7  N   UNL     1      47.420   6.882  12.772  0.00  0.00    +0.000 N 
ATOM      8  C   UNL     1      48.880   6.783  12.716  0.00  0.00    +0.000 C 
ATOM      9  C   UNL     1      49.464   7.926  13.554  0.00  0.00    +0.000 C 
ATOM     10  C   UNL     1      48.920   9.293  13.129  0.00  0.00    +0.000 C 
ATOM     11  C   UNL     1      47.392   9.292  13.049  0.00  0.00    +0.000 C 
ATOM     12  C   UNL     1      46.883   8.127  12.206  0.00  0.00    +0.000 C 
ENDBRANCH   5   7
BRANCH   1  13
ATOM     13  C   UNL     1      44.097   4.193  10.172  0.00  0.00    +0.000 C 
BRANCH  13  14
ATOM     14  O   UNL     1      44.131   2.832   9.743  0.00  0.00    +0.000 OA
BRANCH  14  18
ATOM     15  C   UNL     1      46.992   2.286   6.834  0.00  0.00    +0.000 A 
ATOM     16  C   UNL     1      46.324   3.504   6.926  0.00  0.00    +0.000 A 
ATOM     17  C   UNL     1      45.358   3.682   7.913  0.00  0.00    +0.000 A 
ATOM     18  C   UNL     1      45.096   2.628   8.774  0.00  0.00    +0.000 A 
ATOM     19  N   UNL     1      45.731   1.437   8.707  0.00  0.00    +0.000 NA
ATOM     20  C   UNL     1      46.662   1.293   7.740  0.00  0.00    +0.000 A 
ENDBRANCH  14  18
ENDBRANCH  13  14
ENDBRANCH   1  13
TORSDOF 4
ENDMDL
MODEL 5
REMARK VINA RESULT:    -6.932      2.545      6.808
REMARK INTER + INTRA:          -9.160
REMARK INTER:                  -8.612
REMARK INTRA:                  -0.548
REMARK UNBOUND:                -0.607
REMARK  Name = 
REMARK  4 active torsions:
REMARK  status: ('A' for Active; 'I' for Inactive)
REMARK    1  A    between atoms: C_4  and  O_5
REMARK    2  A    between atoms: O_5  and  C_6
REMARK    3  A    between atoms: C_6  and  C_7
REMARK    4  A    between atoms: C_11  and  N_12
REMARK                            x       y       z     vdW  Elec       q    Type
REMARK                         _______ _______ _______ _____ _____    ______ ____
ROOT
ATOM      1  C   UNL     1      44.716   4.379  12.191  0.00  0.00    +0.000 A 
ATOM      2  C   UNL     1      43.609   3.592  12.490  0.00  0.00    +0.000 A 
ATOM      3  N   UNL     1      43.150   2.606  11.697  0.00  0.00    +0.000 NA
ATOM      4  C   UNL     1      43.838   2.400  10.548  0.00  0.00    +0.000 A 
ATOM      5  C   UNL     1      44.961   3.121  10.123  0.00  0.00    +0.000 A 
ATOM      6  C   UNL     1      45.374   4.149  10.972  0.00  0.00    +0.000 A 
ENDROOT
BRANCH   5   7
ATOM      7  N   UNL     1      45.590   2.794   8.923  0.00  0.00    +0.000 N 
ATOM      8  C   UNL     1      45.665   1.401   8.478  0.00  0.00    +0.000 C 
ATOM      9  C   UNL     1      46.877   1.266   7.549  0.00  0.00    +0.000 C 
ATOM     10  C   UNL     1      46.842   2.281   6.403  0.00  0.00    +0.000 C 
ATOM     11  C   UNL     1      46.601   3.702   6.913  0.00  0.00    +0.000 C 
ATOM     12  C   UNL     1      45.385   3.759   7.834  0.00  0.00    +0.000 C 
ENDBRANCH   5   7
BRANCH   1  13
ATOM     13  C   UNL     1      45.209   5.403  13.175  0.00  0.00    +0.000 C 
BRANCH  13  14
ATOM     14  O   UNL     1      46.634   5.473  13.144  0.00  0.00    +0.000 OA
BRANCH  14  18
ATOM     15  C   UNL     1      48.301   4.815  16.849  0.00  0.00    +0.000 A 
ATOM     16  C   UNL     1      48.634   5.964  16.137  0.00  0.00    +0.000 A 
ATOM     17  C   UNL     1      48.065   6.181  14.884  0.00  0.00    +0.000 A 
ATOM     18  C   UNL     1      47.182   5.234  14.391  0.00  0.00    +0.000 A 
ATOM     19  N   UNL     1      46.842   4.111  15.063  0.00  0.00    +0.000 NA
ATOM     20  C   UNL     1      47.409   3.928  16.274  0.00  0.00    +0.000 A 
ENDBRANCH  14  18
ENDBRANCH  13  14
ENDBRANCH   1  13
TORSDOF 4
ENDMDL
MODEL 6
REMARK VINA RESULT:    -6.129      4.311      7.169
REMARK INTER + INTRA:          -8.169
REMARK INTER:                  -7.582
REMARK INTRA:                  -0.587
REMARK UNBOUND:                -0.607
REMARK  Name = 
REMARK  4 active torsions:
REMARK  status: ('A' for Active; 'I' for Inactive)
REMARK    1  A    between atoms: C_4  and  O_5
REMARK    2  A    between atoms: O_5  and  C_6
REMARK    3  A    between atoms: C_6  and  C_7
REMARK    4  A    between atoms: C_11  and  N_12
REMARK                            x       y       z     vdW  Elec       q    Type
REMARK                         _______ _______ _______ _____ _____    ______ ____
ROOT
ATOM      1  C   UNL     1      47.229   4.943  14.878  0.00  0.00    +0.000 A 
ATOM      2  C   UNL     1      47.863   6.171  14.730  0.00  0.00    +0.000 A 
ATOM      3  N   UNL     1      47.798   6.922  13.614  0.00  0.00    +0.000 NA
ATOM      4  C   UNL     1      47.056   6.414  12.600  0.00  0.00    +0.000 A 
ATOM      5  C   UNL     1      46.373   5.192  12.614  0.00  0.00    +0.000 A 
ATOM      6  C   UNL     1      46.500   4.444  13.786  0.00  0.00    +0.000 A 
ENDROOT
BRANCH   5   7
ATOM      7  N   UNL     1      45.628   4.793  11.507  0.00  0.00    +0.000 N 
ATOM      8  C   UNL     1      44.303   4.194  11.679  0.00  0.00    +0.000 C 
ATOM      9  C   UNL     1      44.016   3.320  10.453  0.00  0.00    +0.000 C 
ATOM     10  C   UNL     1      44.180   4.092   9.140  0.00  0.00    +0.000 C 
ATOM     11  C   UNL     1      45.518   4.830   9.083  0.00  0.00    +0.000 C 
ATOM     12  C   UNL     1      45.738   5.673  10.336  0.00  0.00    +0.000 C 
ENDBRANCH   5   7
BRANCH   1  13
ATOM     13  C   UNL     1      47.287   4.212  16.191  0.00  0.00    +0.000 C 
BRANCH  13  14
ATOM     14  O   UNL     1      47.833   2.906  16.006  0.00  0.00    +0.000 OA
BRANCH  14  18
ATOM     15  C   UNL     1      51.537   2.616  17.778  0.00  0.00    +0.000 A 
ATOM     16  C   UNL     1      50.751   3.743  18.001  0.00  0.00    +0.000 A 
ATOM     17  C   UNL     1      49.499   3.834  17.399  0.00  0.00    +0.000 A 
ATOM     18  C   UNL     1      49.079   2.788  16.592  0.00  0.00    +0.000 A 
ATOM     19  N   UNL     1      49.823   1.683  16.360  0.00  0.00    +0.000 NA
ATOM     20  C   UNL     1      51.032   1.622  16.957  0.00  0.00    +0.000 A 
ENDBRANCH  14  18
ENDBRANCH  13  14
ENDBRANCH   1  13
TORSDOF 4
ENDMDL
MODEL 7
REMARK VINA RESULT:    -5.896      3.785      7.284
REMARK INTER + INTRA:          -7.882
REMARK INTER:                  -7.202
REMARK INTRA:                  -0.680
REMARK UNBOUND:                -0.607
REMARK  Name = 
REMARK  4 active torsions:
REMARK  status: ('A' for Active; 'I' for Inactive)
REMARK    1  A    between atoms: C_4  and  O_5
REMARK    2  A    between atoms: O_5  and  C_6
REMARK    3  A    between atoms: C_6  and  C_7
REMARK    4  A    between atoms: C_11  and  N_12
REMARK                            x       y       z     vdW  Elec       q    Type
REMARK                         _______ _______ _______ _____ _____    ______ ____
ROOT
ATOM      1  C   UNL     1      47.813   7.096  13.952  0.00  0.00    +0.000 A 
ATOM      2  C   UNL     1      47.308   8.376  13.759  0.00  0.00    +0.000 A 
ATOM      3  N   UNL     1      46.216   8.650  13.019  0.00  0.00    +0.000 NA
ATOM      4  C   UNL     1      45.603   7.586  12.448  0.00  0.00    +0.000 A 
ATOM      5  C   UNL     1      46.009   6.249  12.556  0.00  0.00    +0.000 A 
ATOM      6  C   UNL     1      47.162   6.029  13.311  0.00  0.00    +0.000 A 
ENDROOT
BRANCH   5   7
ATOM      7  N   UNL     1      45.276   5.243  11.932  0.00  0.00    +0.000 N 
ATOM      8  C   UNL     1      45.218   5.161  10.471  0.00  0.00    +0.000 C 
ATOM      9  C   UNL     1      43.925   4.433  10.088  0.00  0.00    +0.000 C 
ATOM     10  C   UNL     1      43.796   3.077  10.789  0.00  0.00    +0.000 C 
ATOM     11  C   UNL     1      44.025   3.196  12.296  0.00  0.00    +0.000 C 
ATOM     12  C   UNL     1      45.324   3.935  12.601  0.00  0.00    +0.000 C 
ENDBRANCH   5   7
BRANCH   1  13
ATOM     13  C   UNL     1      48.989   6.872  14.863  0.00  0.00    +0.000 C 
BRANCH  13  14
ATOM     14  O   UNL     1      48.543   6.654  16.201  0.00  0.00    +0.000 OA
BRANCH  14  18
ATOM     15  C   UNL     1      49.160   2.765  17.402  0.00  0.00    +0.000 A 
ATOM     16  C   UNL     1      47.887   3.174  17.013  0.00  0.00    +0.000 A 
ATOM     17  C   UNL     1      47.686   4.491  16.608  0.00  0.00    +0.000 A 
ATOM     18  C   UNL     1      48.772   5.352  16.607  0.00  0.00    +0.000 A 
ATOM     19  N   UNL     1      50.017   4.980  16.979  0.00  0.00    +0.000 NA
ATOM     20  C   UNL     1      50.182   3.697  17.367  0.00  0.00    +0.000 A 
ENDBRANCH  14  18
ENDBRANCH  13  14
ENDBRANCH   1  13
TORSDOF 4
ENDMDL
MODEL 8
REMARK VINA RESULT:    -5.760      3.127      4.794
REMARK INTER + INTRA:          -7.714
REMARK INTER:                  -7.099
REMARK INTRA:                  -0.615
REMARK UNBOUND:                -0.607
REMARK  Name = 
REMARK  4 active torsions:
REMARK  status: ('A' for Active; 'I' for Inactive)
REMARK    1  A    between atoms: C_4  and  O_5
REMARK    2  A    between atoms: O_5  and  C_6
REMARK    3  A    between atoms: C_6  and  C_7
REMARK    4  A    between atoms: C_11  and  N_12
REMARK                            x       y       z     vdW  Elec       q    Type
REMARK                         _______ _______ _______ _____ _____    ______ ____
ROOT
ATOM      1  C   UNL     1      47.214   6.718  12.347  0.00  0.00    +0.000 A 
ATOM      2  C   UNL     1      48.325   7.531  12.153  0.00  0.00    +0.000 A 
ATOM      3  N   UNL     1      49.304   7.697  13.062  0.00  0.00    +0.000 NA
ATOM      4  C   UNL     1      49.159   7.012  14.222  0.00  0.00    +0.000 A 
ATOM      5  C   UNL     1      48.091   6.168  14.549  0.00  0.00    +0.000 A 
ATOM      6  C   UNL     1      47.093   6.056  13.580  0.00  0.00    +0.000 A 
ENDROOT
BRANCH   5   7
ATOM      7  N   UNL     1      48.072   5.505  15.774  0.00  0.00    +0.000 N 
ATOM      8  C   UNL     1      47.582   4.128  15.868  0.00  0.00    +0.000 C 
ATOM      9  C   UNL     1      47.093   3.896  17.302  0.00  0.00    +0.000 C 
ATOM     10  C   UNL     1      48.164   4.243  18.341  0.00  0.00    +0.000 C 
ATOM     11  C   UNL     1      48.756   5.632  18.099  0.00  0.00    +0.000 C 
ATOM     12  C   UNL     1      49.215   5.793  16.652  0.00  0.00    +0.000 C 
ENDBRANCH   5   7
BRANCH   1  13
ATOM     13  C   UNL     1      46.211   6.524  11.244  0.00  0.00    +0.000 C 
BRANCH  13  14
ATOM     14  O   UNL     1      45.269   5.514  11.602  0.00  0.00    +0.000 OA
BRANCH  14  18
ATOM     15  C   UNL     1      44.781   2.822   8.527  0.00  0.00    +0.000 A 
ATOM     16  C   UNL     1      45.363   4.061   8.274  0.00  0.00    +0.000 A 
ATOM     17  C   UNL     1      45.525   4.966   9.319  0.00  0.00    +0.000 A 
ATOM     18  C   UNL     1      45.097   4.595  10.584  0.00  0.00    +0.000 A 
ATOM     19  N   UNL     1      44.531   3.397  10.856  0.00  0.00    +0.000 NA
ATOM     20  C   UNL     1      44.386   2.540   9.823  0.00  0.00    +0.000 A 
ENDBRANCH  14  18
ENDBRANCH  13  14
ENDBRANCH   1  13
TORSDOF 4
ENDMDL
MODEL 9
REMARK VINA RESULT:    -5.598      3.556      6.195
REMARK INTER + INTRA:          -7.514
REMARK INTER:                  -6.961
REMARK INTRA:                  -0.553
REMARK UNBOUND:                -0.607
REMARK  Name = 
REMARK  4 active torsions:
REMARK  status: ('A' for Active; 'I' for Inactive)
REMARK    1  A    between atoms: C_4  and  O_5
REMARK    2  A    between atoms: O_5  and  C_6
REMARK    3  A    between atoms: C_6  and  C_7
REMARK    4  A    between atoms: C_11  and  N_12
REMARK                            x       y       z     vdW  Elec       q    Type
REMARK                         _______ _______ _______ _____ _____    ______ ____
ROOT
ATOM      1  C   UNL     1      46.032   4.428  13.047  0.00  0.00    +0.000 A 
ATOM      2  C   UNL     1      45.184   3.706  12.214  0.00  0.00    +0.000 A 
ATOM      3  N   UNL     1      44.353   4.269  11.316  0.00  0.00    +0.000 NA
ATOM      4  C   UNL     1      44.378   5.622  11.251  0.00  0.00    +0.000 A 
ATOM      5  C   UNL     1      45.175   6.467  12.032  0.00  0.00    +0.000 A 
ATOM      6  C   UNL     1      45.996   5.830  12.965  0.00  0.00    +0.000 A 
ENDROOT
BRANCH   5   7
ATOM      7  N   UNL     1      45.118   7.847  11.852  0.00  0.00    +0.000 N 
ATOM      8  C   UNL     1      43.885   8.487  11.389  0.00  0.00    +0.000 C 
ATOM      9  C   UNL     1      44.264   9.804  10.703  0.00  0.00    +0.000 C 
ATOM     10  C   UNL     1      45.124  10.698  11.602  0.00  0.00    +0.000 C 
ATOM     11  C   UNL     1      46.312   9.933  12.188  0.00  0.00    +0.000 C 
ATOM     12  C   UNL     1      45.861   8.633  12.848  0.00  0.00    +0.000 C 
ENDBRANCH   5   7
BRANCH   1  13
ATOM     13  C   UNL     1      46.988   3.714  13.961  0.00  0.00    +0.000 C 
BRANCH  13  14
ATOM     14  O   UNL     1      46.640   3.952  15.325  0.00  0.00    +0.000 OA
BRANCH  14  18
ATOM     15  C   UNL     1      49.970   4.110  17.739  0.00  0.00    +0.000 A 
ATOM     16  C   UNL     1      49.281   2.910  17.591  0.00  0.00    +0.000 A 
ATOM     17  C   UNL     1      48.155   2.863  16.772  0.00  0.00    +0.000 A 
ATOM     18  C   UNL     1      47.761   4.026  16.130  0.00  0.00    +0.000 A 
ATOM     19  N   UNL     1      48.414   5.204  16.256  0.00  0.00    +0.000 NA
ATOM     20  C   UNL     1      49.501   5.218  17.056  0.00  0.00    +0.000 A 
ENDBRANCH  14  18
ENDBRANCH  13  14
ENDBRANCH   1  13
TORSDOF 4
ENDMDL
