MODEL 1
REMARK VINA RESULT:    -8.526      0.000      0.000
REMARK INTER + INTRA:         -13.148
REMARK INTER:                 -12.265
REMARK INTRA:                  -0.883
REMARK UNBOUND:                -0.883
REMARK  Name = 
REMARK  8 active torsions:
REMARK  status: ('A' for Active; 'I' for Inactive)
REMARK    1  A    between atoms: N_1  and  C_2
REMARK    2  A    between atoms: C_2  and  C_3
REMARK    3  A    between atoms: C_2  and  C_24
REMARK    4  A    between atoms: C_3  and  C_4
REMARK    5  A    between atoms: C_7  and  C_8
REMARK    6  A    between atoms: C_8  and  N_9
REMARK    7  A    between atoms: C_10  and  C_12
REMARK    8  A    between atoms: C_24  and  C_26
REMARK                            x       y       z     vdW  Elec       q    Type
REMARK                         _______ _______ _______ _____ _____    ______ ____
ROOT
ATOM      1  C   UNL     1      45.674   4.653  12.067  0.00  0.00    +0.000 A 
ATOM      2  C   UNL     1      46.228   4.218  13.268  0.00  0.00    +0.000 A 
ATOM      3  C   UNL     1      47.130   5.044  13.934  0.00  0.00    +0.000 A 
ATOM      4  C   UNL     1      47.475   6.277  13.383  0.00  0.00    +0.000 A 
ATOM      5  C   UNL     1      46.837   6.648  12.204  0.00  0.00    +0.000 A 
ATOM      6  N   UNL     1      45.944   5.872  11.544  0.00  0.00    +0.000 NA
ENDROOT
BRANCH   1   7
ATOM      7  C   UNL     1      44.766   3.752  11.269  0.00  0.00    +0.000 C 
BRANCH   7   8
ATOM      8  C   UNL     1      44.868   3.924   9.741  0.00  0.00    +0.000 C 
BRANCH   8   9
ATOM      9  N   UNL     1      43.723   4.643   9.138  0.00  0.00    +0.000 NA
ATOM     10  H   UNL     1      44.029   5.509   8.702  0.00  0.00    +0.000 HD
ATOM     11  H   UNL     1      43.085   4.898   9.898  0.00  0.00    +0.000 HD
ENDBRANCH   8   9
BRANCH   8  12
ATOM     12  C   UNL     1      45.050   2.572   9.015  0.00  0.00    +0.000 C 
ATOM     13  O   UNL     1      44.393   1.574   9.330  0.00  0.00    +0.000 OA
BRANCH  12  14
ATOM     14  C   UNL     1      46.017   2.472   7.882  0.00  0.00    +0.000 A 
ATOM     15  C   UNL     1      46.163   3.434   6.881  0.00  0.00    +0.000 A 
ATOM     16  C   UNL     1      47.057   3.214   5.831  0.00  0.00    +0.000 A 
ATOM     17  C   UNL     1      47.788   2.037   5.821  0.00  0.00    +0.000 A 
ATOM     18  N   UNL     1      47.687   1.092   6.775  0.00  0.00    +0.000 NA
ATOM     19  C   UNL     1      46.803   1.329   7.780  0.00  0.00    +0.000 A 
ENDBRANCH  12  14
ENDBRANCH   8  12
ENDBRANCH   7   8
ENDBRANCH   1   7
BRANCH   4  20
ATOM     20  C   UNL     1      48.476   7.175  14.046  0.00  0.00    +0.000 C 
BRANCH  20  21
ATOM     21  N   UNL     1      48.233   7.286  15.461  0.00  0.00    +0.000 N 
ATOM     22  C   UNL     1      49.108   6.744  16.368  0.00  0.00    +0.000 C 
ATOM     23  O   UNL     1      50.141   6.181  16.015  0.00  0.00    +0.000 OA
ATOM     24  H   UNL     1      47.291   7.523  15.757  0.00  0.00    +0.000 HD
BRANCH  22  25
ATOM     25  C   UNL     1      48.780   6.923  17.788  0.00  0.00    +0.000 A 
ATOM     26  C   UNL     1      48.525   8.197  18.274  0.00  0.00    +0.000 A 
ATOM     27  S   UNL     1      48.104   8.229  19.926  0.00  0.00    +0.000 S 
ATOM     28  C   UNL     1      48.300   6.545  20.063  0.00  0.00    +0.000 A 
ATOM     29  N   UNL     1      48.110   5.916  21.254  0.00  0.00    +0.000 NA
ATOM     30  C   UNL     1      48.327   4.643  21.226  0.00  0.00    +0.000 A 
ATOM     31  N   UNL     1      48.711   3.942  20.112  0.00  0.00    +0.000 N 
ATOM     32  C   UNL     1      48.883   4.530  18.880  0.00  0.00    +0.000 A 
ATOM     33  O   UNL     1      49.186   3.866  17.894  0.00  0.00    +0.000 OA
ATOM     34  C   UNL     1      48.665   5.964  18.862  0.00  0.00    +0.000 A 
ATOM     35  H   UNL     1      48.857   2.944  20.155  0.00  0.00    +0.000 HD
ENDBRANCH  22  25
ENDBRANCH  20  21
ENDBRANCH   4  20
TORSDOF 8
ENDMDL
MODEL 2
REMARK VINA RESULT:    -8.368      1.381      2.069
REMARK INTER + INTRA:         -12.919
REMARK INTER:                 -11.879
REMARK INTRA:                  -1.041
REMARK UNBOUND:                -0.883
REMARK  Name = 
REMARK  8 active torsions:
REMARK  status: ('A' for Active; 'I' for Inactive)
REMARK    1  A    between atoms: N_1  and  C_2
REMARK    2  A    between atoms: C_2  and  C_3
REMARK    3  A    between atoms: C_2  and  C_24
REMARK    4  A    between atoms: C_3  and  C_4
REMARK    5  A    between atoms: C_7  and  C_8
REMARK    6  A    between atoms: C_8  and  N_9
REMARK    7  A    between atoms: C_10  and  C_12
REMARK    8  A    between atoms: C_24  and  C_26
REMARK                            x       y       z     vdW  Elec       q    Type
REMARK                         _______ _______ _______ _____ _____    ______ ____
ROOT
ATOM      1  C   UNL     1      45.738   4.588  12.222  0.00  0.00    +0.000 A 
ATOM      2  C   UNL     1      46.256   5.771  11.702  0.00  0.00    +0.000 A 
ATOM      3  C   UNL     1      47.152   6.510  12.470  0.00  0.00    +0.000 A 
ATOM      4  C   UNL     1      47.502   6.064  13.744  0.00  0.00    +0.000 A 
ATOM      5  C   UNL     1      46.972   4.848  14.160  0.00  0.00    +0.000 A 
ATOM      6  N   UNL     1      46.111   4.102  13.428  0.00  0.00    +0.000 NA
ENDROOT
BRANCH   1   7
ATOM      7  C   UNL     1      44.695   3.807  11.462  0.00  0.00    +0.000 C 
BRANCH   7   8
ATOM      8  C   UNL     1      44.747   3.982   9.932  0.00  0.00    +0.000 C 
BRANCH   8   9
ATOM      9  N   UNL     1      43.593   4.719   9.370  0.00  0.00    +0.000 NA
ATOM     10  H   UNL     1      43.752   5.722   9.406  0.00  0.00    +0.000 HD
ATOM     11  H   UNL     1      42.782   4.521   9.965  0.00  0.00    +0.000 HD
ENDBRANCH   8   9
BRANCH   8  12
ATOM     12  C   UNL     1      44.885   2.629   9.198  0.00  0.00    +0.000 C 
ATOM     13  O   UNL     1      44.187   1.655   9.499  0.00  0.00    +0.000 OA
BRANCH  12  14
ATOM     14  C   UNL     1      45.859   2.501   8.074  0.00  0.00    +0.000 A 
ATOM     15  C   UNL     1      46.087   3.484   7.110  0.00  0.00    +0.000 A 
ATOM     16  C   UNL     1      46.979   3.238   6.064  0.00  0.00    +0.000 A 
ATOM     17  C   UNL     1      47.625   2.014   6.020  0.00  0.00    +0.000 A 
ATOM     18  N   UNL     1      47.443   1.045   6.938  0.00  0.00    +0.000 NA
ATOM     19  C   UNL     1      46.563   1.309   7.940  0.00  0.00    +0.000 A 
ENDBRANCH  12  14
ENDBRANCH   8  12
ENDBRANCH   7   8
ENDBRANCH   1   7
BRANCH   4  20
ATOM     20  C   UNL     1      48.429   6.854  14.619  0.00  0.00    +0.000 C 
BRANCH  20  21
ATOM     21  N   UNL     1      48.200   6.583  16.015  0.00  0.00    +0.000 N 
ATOM     22  C   UNL     1      49.201   6.076  16.805  0.00  0.00    +0.000 C 
ATOM     23  O   UNL     1      50.330   5.873  16.368  0.00  0.00    +0.000 OA
ATOM     24  H   UNL     1      47.236   6.514  16.327  0.00  0.00    +0.000 HD
BRANCH  22  25
ATOM     25  C   UNL     1      48.874   5.848  18.218  0.00  0.00    +0.000 A 
ATOM     26  C   UNL     1      49.089   4.595  18.774  0.00  0.00    +0.000 A 
ATOM     27  S   UNL     1      48.715   4.509  20.435  0.00  0.00    +0.000 S 
ATOM     28  C   UNL     1      48.201   6.131  20.458  0.00  0.00    +0.000 A 
ATOM     29  N   UNL     1      47.723   6.694  21.599  0.00  0.00    +0.000 NA
ATOM     30  C   UNL     1      47.335   7.919  21.468  0.00  0.00    +0.000 A 
ATOM     31  N   UNL     1      47.386   8.632  20.298  0.00  0.00    +0.000 N 
ATOM     32  C   UNL     1      47.891   8.114  19.128  0.00  0.00    +0.000 A 
ATOM     33  O   UNL     1      47.963   8.793  18.109  0.00  0.00    +0.000 OA
ATOM     34  C   UNL     1      48.329   6.734  19.220  0.00  0.00    +0.000 A 
ATOM     35  H   UNL     1      47.073   9.591  20.264  0.00  0.00    +0.000 HD
ENDBRANCH  22  25
ENDBRANCH  20  21
ENDBRANCH   4  20
TORSDOF 8
ENDMDL
MODEL 3
REMARK VINA RESULT:    -8.282      2.528      3.095
REMARK INTER + INTRA:         -12.796
REMARK INTER:                 -11.886
REMARK INTRA:                  -0.909
REMARK UNBOUND:                -0.883
REMARK  Name = 
REMARK  8 active torsions:
REMARK  status: ('A' for Active; 'I' for Inactive)
REMARK    1  A    between atoms: N_1  and  C_2
REMARK    2  A    between atoms: C_2  and  C_3
REMARK    3  A    between atoms: C_2  and  C_24
REMARK    4  A    between atoms: C_3  and  C_4
REMARK    5  A    between atoms: C_7  and  C_8
REMARK    6  A    between atoms: C_8  and  N_9
REMARK    7  A    between atoms: C_10  and  C_12
REMARK    8  A    between atoms: C_24  and  C_26
REMARK                            x       y       z     vdW  Elec       q    Type
REMARK                         _______ _______ _______ _____ _____    ______ ____
ROOT
ATOM      1  C   UNL     1      45.884   4.602  12.773  0.00  0.00    +0.000 A 
ATOM      2  C   UNL     1      46.421   5.753  12.201  0.00  0.00    +0.000 A 
ATOM      3  C   UNL     1      47.303   6.529  12.948  0.00  0.00    +0.000 A 
ATOM      4  C   UNL     1      47.621   6.152  14.253  0.00  0.00    +0.000 A 
ATOM      5  C   UNL     1      47.074   4.963  14.723  0.00  0.00    +0.000 A 
ATOM      6  N   UNL     1      46.226   4.181  14.012  0.00  0.00    +0.000 NA
ENDROOT
BRANCH   1   7
ATOM      7  C   UNL     1      44.855   3.786  12.033  0.00  0.00    +0.000 C 
BRANCH   7   8
ATOM      8  C   UNL     1      44.745   4.098  10.528  0.00  0.00    +0.000 C 
BRANCH   8   9
ATOM      9  N   UNL     1      43.595   4.960  10.173  0.00  0.00    +0.000 NA
ATOM     10  H   UNL     1      42.808   4.783  10.790  0.00  0.00    +0.000 HD
ATOM     11  H   UNL     1      43.300   4.704   9.225  0.00  0.00    +0.000 HD
ENDBRANCH   8   9
BRANCH   8  12
ATOM     12  C   UNL     1      44.693   2.813   9.670  0.00  0.00    +0.000 C 
ATOM     13  O   UNL     1      43.899   1.900   9.921  0.00  0.00    +0.000 OA
BRANCH  12  14
ATOM     14  C   UNL     1      45.597   2.682   8.490  0.00  0.00    +0.000 A 
ATOM     15  C   UNL     1      46.283   1.516   8.146  0.00  0.00    +0.000 A 
ATOM     16  C   UNL     1      47.152   1.517   7.054  0.00  0.00    +0.000 A 
ATOM     17  C   UNL     1      47.301   2.688   6.329  0.00  0.00    +0.000 A 
ATOM     18  N   UNL     1      46.646   3.829   6.619  0.00  0.00    +0.000 NA
ATOM     19  C   UNL     1      45.814   3.801   7.693  0.00  0.00    +0.000 A 
ENDBRANCH  12  14
ENDBRANCH   8  12
ENDBRANCH   7   8
ENDBRANCH   1   7
BRANCH   4  20
ATOM     20  C   UNL     1      48.532   6.985  15.105  0.00  0.00    +0.000 C 
BRANCH  20  21
ATOM     21  N   UNL     1      49.627   6.208  15.626  0.00  0.00    +0.000 N 
ATOM     22  C   UNL     1      49.656   5.833  16.946  0.00  0.00    +0.000 C 
ATOM     23  O   UNL     1      48.742   6.109  17.718  0.00  0.00    +0.000 OA
ATOM     24  H   UNL     1      50.483   6.181  15.082  0.00  0.00    +0.000 HD
BRANCH  22  25
ATOM     25  C   UNL     1      50.806   5.030  17.378  0.00  0.00    +0.000 A 
ATOM     26  C   UNL     1      51.945   5.667  17.849  0.00  0.00    +0.000 A 
ATOM     27  S   UNL     1      53.166   4.596  18.365  0.00  0.00    +0.000 S 
ATOM     28  C   UNL     1      52.236   3.240  17.927  0.00  0.00    +0.000 A 
ATOM     29  N   UNL     1      52.722   1.980  18.088  0.00  0.00    +0.000 NA
ATOM     30  C   UNL     1      51.928   1.046  17.682  0.00  0.00    +0.000 A 
ATOM     31  N   UNL     1      50.689   1.259  17.133  0.00  0.00    +0.000 N 
ATOM     32  C   UNL     1      50.145   2.513  16.980  0.00  0.00    +0.000 A 
ATOM     33  O   UNL     1      49.016   2.667  16.525  0.00  0.00    +0.000 OA
ATOM     34  C   UNL     1      51.005   3.600  17.410  0.00  0.00    +0.000 A 
ATOM     35  H   UNL     1      50.114   0.483  16.841  0.00  0.00    +0.000 HD
ENDBRANCH  22  25
ENDBRANCH  20  21
ENDBRANCH   4  20
TORSDOF 8
ENDMDL
MODEL 4
REMARK VINA RESULT:    -7.807      2.508      3.062
REMARK INTER + INTRA:         -12.113
REMARK INTER:                 -10.840
REMARK INTRA:                  -1.274
REMARK UNBOUND:                -0.883
REMARK  Name = 
REMARK  8 active torsions:
REMARK  status: ('A' for Active; 'I' for Inactive)
REMARK    1  A    between atoms: N_1  and  C_2
REMARK    2  A    between atoms: C_2  and  C_3
REMARK    3  A    between atoms: C_2  and  C_24
REMARK    4  A    between atoms: C_3  and  C_4
REMARK    5  A    between atoms: C_7  and  C_8
REMARK    6  A    between atoms: C_8  and  N_9
REMARK    7  A    between atoms: C_10  and  C_12
REMARK    8  A    between atoms: C_24  and  C_26
REMARK                            x       y       z     vdW  Elec       q    Type
REMARK                         _______ _______ _______ _____ _____    ______ ____
ROOT
ATOM      1  C   UNL     1      45.304   5.897  12.961  0.00  0.00    +0.000 A 
ATOM      2  C   UNL     1      46.428   5.124  13.243  0.00  0.00    +0.000 A 
ATOM      3  C   UNL     1      47.686   5.715  13.177  0.00  0.00    +0.000 A 
ATOM      4  C   UNL     1      47.802   7.058  12.819  0.00  0.00    +0.000 A 
ATOM      5  C   UNL     1      46.623   7.762  12.601  0.00  0.00    +0.000 A 
ATOM      6  N   UNL     1      45.385   7.216  12.673  0.00  0.00    +0.000 NA
ENDROOT
BRANCH   1   7
ATOM      7  C   UNL     1      43.931   5.273  12.929  0.00  0.00    +0.000 C 
BRANCH   7   8
ATOM      8  C   UNL     1      43.343   5.082  11.518  0.00  0.00    +0.000 C 
BRANCH   8   9
ATOM      9  N   UNL     1      41.894   5.372  11.424  0.00  0.00    +0.000 NA
ATOM     10  H   UNL     1      41.392   4.953  12.201  0.00  0.00    +0.000 HD
ATOM     11  H   UNL     1      41.548   4.930  10.566  0.00  0.00    +0.000 HD
ENDBRANCH   8   9
BRANCH   8  12
ATOM     12  C   UNL     1      43.608   3.663  10.966  0.00  0.00    +0.000 C 
ATOM     13  O   UNL     1      43.068   2.666  11.457  0.00  0.00    +0.000 OA
BRANCH  12  14
ATOM     14  C   UNL     1      44.510   3.490   9.789  0.00  0.00    +0.000 A 
ATOM     15  C   UNL     1      44.911   2.254   9.276  0.00  0.00    +0.000 A 
ATOM     16  C   UNL     1      45.807   2.204   8.207  0.00  0.00    +0.000 A 
ATOM     17  C   UNL     1      46.268   3.397   7.673  0.00  0.00    +0.000 A 
ATOM     18  N   UNL     1      45.894   4.608   8.130  0.00  0.00    +0.000 NA
ATOM     19  C   UNL     1      45.028   4.626   9.177  0.00  0.00    +0.000 A 
ENDBRANCH  12  14
ENDBRANCH   8  12
ENDBRANCH   7   8
ENDBRANCH   1   7
BRANCH   4  20
ATOM     20  C   UNL     1      49.142   7.719  12.694  0.00  0.00    +0.000 C 
BRANCH  20  21
ATOM     21  N   UNL     1      50.055   7.262  13.710  0.00  0.00    +0.000 N 
ATOM     22  C   UNL     1      50.198   7.953  14.887  0.00  0.00    +0.000 C 
ATOM     23  O   UNL     1      49.534   8.956  15.134  0.00  0.00    +0.000 OA
ATOM     24  H   UNL     1      50.770   6.597  13.434  0.00  0.00    +0.000 HD
BRANCH  22  25
ATOM     25  C   UNL     1      51.141   7.400  15.866  0.00  0.00    +0.000 A 
ATOM     26  C   UNL     1      52.383   7.996  16.031  0.00  0.00    +0.000 A 
ATOM     27  S   UNL     1      53.336   7.273  17.245  0.00  0.00    +0.000 S 
ATOM     28  C   UNL     1      52.142   6.101  17.558  0.00  0.00    +0.000 A 
ATOM     29  N   UNL     1      52.342   5.136  18.495  0.00  0.00    +0.000 NA
ATOM     30  C   UNL     1      51.372   4.291  18.605  0.00  0.00    +0.000 A 
ATOM     31  N   UNL     1      50.218   4.327  17.866  0.00  0.00    +0.000 N 
ATOM     32  C   UNL     1      49.959   5.302  16.931  0.00  0.00    +0.000 A 
ATOM     33  O   UNL     1      48.897   5.331  16.317  0.00  0.00    +0.000 OA
ATOM     34  C   UNL     1      51.026   6.270  16.759  0.00  0.00    +0.000 A 
ATOM     35  H   UNL     1      49.493   3.639  18.007  0.00  0.00    +0.000 HD
ENDBRANCH  22  25
ENDBRANCH  20  21
ENDBRANCH   4  20
TORSDOF 8
ENDMDL
MODEL 5
REMARK VINA RESULT:    -7.774      3.107      4.015
REMARK INTER + INTRA:         -12.066
REMARK INTER:                 -10.852
REMARK INTRA:                  -1.214
REMARK UNBOUND:                -0.883
REMARK  Name = 
REMARK  8 active torsions:
REMARK  status: ('A' for Active; 'I' for Inactive)
REMARK    1  A    between atoms: N_1  and  C_2
REMARK    2  A    between atoms: C_2  and  C_3
REMARK    3  A    between atoms: C_2  and  C_24
REMARK    4  A    between atoms: C_3  and  C_4
REMARK    5  A    between atoms: C_7  and  C_8
REMARK    6  A    between atoms: C_8  and  N_9
REMARK    7  A    between atoms: C_10  and  C_12
REMARK    8  A    between atoms: C_24  and  C_26
REMARK                            x       y       z     vdW  Elec       q    Type
REMARK                         _______ _______ _______ _____ _____    ______ ____
ROOT
ATOM      1  C   UNL     1      46.921   5.173  13.809  0.00  0.00    +0.000 A 
ATOM      2  C   UNL     1      47.034   4.565  15.057  0.00  0.00    +0.000 A 
ATOM      3  C   UNL     1      47.908   5.107  15.995  0.00  0.00    +0.000 A 
ATOM      4  C   UNL     1      48.664   6.232  15.667  0.00  0.00    +0.000 A 
ATOM      5  C   UNL     1      48.451   6.798  14.415  0.00  0.00    +0.000 A 
ATOM      6  N   UNL     1      47.596   6.301  13.489  0.00  0.00    +0.000 NA
ENDROOT
BRANCH   1   7
ATOM      7  C   UNL     1      46.057   4.565  12.733  0.00  0.00    +0.000 C 
BRANCH   7   8
ATOM      8  C   UNL     1      44.964   5.499  12.180  0.00  0.00    +0.000 C 
BRANCH   8   9
ATOM      9  N   UNL     1      44.077   6.071  13.219  0.00  0.00    +0.000 NA
ATOM     10  H   UNL     1      43.112   6.082  12.902  0.00  0.00    +0.000 HD
ATOM     11  H   UNL     1      44.360   7.047  13.360  0.00  0.00    +0.000 HD
ENDBRANCH   8   9
BRANCH   8  12
ATOM     12  C   UNL     1      44.096   4.805  11.106  0.00  0.00    +0.000 C 
ATOM     13  O   UNL     1      42.862   4.847  11.144  0.00  0.00    +0.000 OA
BRANCH  12  14
ATOM     14  C   UNL     1      44.760   4.094   9.973  0.00  0.00    +0.000 A 
ATOM     15  C   UNL     1      45.494   4.724   8.967  0.00  0.00    +0.000 A 
ATOM     16  C   UNL     1      46.025   3.970   7.918  0.00  0.00    +0.000 A 
ATOM     17  C   UNL     1      45.812   2.601   7.914  0.00  0.00    +0.000 A 
ATOM     18  N   UNL     1      45.122   1.954   8.874  0.00  0.00    +0.000 NA
ATOM     19  C   UNL     1      44.610   2.715   9.877  0.00  0.00    +0.000 A 
ENDBRANCH  12  14
ENDBRANCH   8  12
ENDBRANCH   7   8
ENDBRANCH   1   7
BRANCH   4  20
ATOM     20  C   UNL     1      49.649   6.818  16.634  0.00  0.00    +0.000 C 
BRANCH  20  21
ATOM     21  N   UNL     1      50.668   5.866  16.994  0.00  0.00    +0.000 N 
ATOM     22  C   UNL     1      50.807   5.443  18.291  0.00  0.00    +0.000 C 
ATOM     23  O   UNL     1      50.052   5.826  19.181  0.00  0.00    +0.000 OA
ATOM     24  H   UNL     1      51.434   5.731  16.341  0.00  0.00    +0.000 HD
BRANCH  22  25
ATOM     25  C   UNL     1      51.865   4.460  18.555  0.00  0.00    +0.000 A 
ATOM     26  C   UNL     1      52.985   4.841  19.280  0.00  0.00    +0.000 A 
ATOM     27  S   UNL     1      54.091   3.573  19.551  0.00  0.00    +0.000 S 
ATOM     28  C   UNL     1      53.136   2.480  18.662  0.00  0.00    +0.000 A 
ATOM     29  N   UNL     1      53.536   1.193  18.482  0.00  0.00    +0.000 NA
ATOM     30  C   UNL     1      52.736   0.482  17.759  0.00  0.00    +0.000 A 
ATOM     31  N   UNL     1      51.570   0.942  17.203  0.00  0.00    +0.000 N 
ATOM     32  C   UNL     1      51.111   2.227  17.384  0.00  0.00    +0.000 A 
ATOM     33  O   UNL     1      50.042   2.595  16.908  0.00  0.00    +0.000 OA
ATOM     34  C   UNL     1      51.982   3.071  18.180  0.00  0.00    +0.000 A 
ATOM     35  H   UNL     1      50.985   0.332  16.651  0.00  0.00    +0.000 HD
ENDBRANCH  22  25
ENDBRANCH  20  21
ENDBRANCH   4  20
TORSDOF 8
ENDMDL
MODEL 6
REMARK VINA RESULT:    -7.734      1.737      2.114
REMARK INTER + INTRA:         -12.008
REMARK INTER:                 -11.612
REMARK INTRA:                  -0.397
REMARK UNBOUND:                -0.883
REMARK  Name = 
REMARK  8 active torsions:
REMARK  status: ('A' for Active; 'I' for Inactive)
REMARK    1  A    between atoms: N_1  and  C_2
REMARK    2  A    between atoms: C_2  and  C_3
REMARK    3  A    between atoms: C_2  and  C_24
REMARK    4  A    between atoms: C_3  and  C_4
REMARK    5  A    between atoms: C_7  and  C_8
REMARK    6  A    between atoms: C_8  and  N_9
REMARK    7  A    between atoms: C_10  and  C_12
REMARK    8  A    between atoms: C_24  and  C_26
REMARK                            x       y       z     vdW  Elec       q    Type
REMARK                         _______ _______ _______ _____ _____    ______ ____
ROOT
ATOM      1  C   UNL     1      44.459   5.572  11.757  0.00  0.00    +0.000 A 
ATOM      2  C   UNL     1      44.359   6.923  11.431  0.00  0.00    +0.000 A 
ATOM      3  C   UNL     1      45.287   7.815  11.960  0.00  0.00    +0.000 A 
ATOM      4  C   UNL     1      46.286   7.348  12.814  0.00  0.00    +0.000 A 
ATOM      5  C   UNL     1      46.336   5.978  13.045  0.00  0.00    +0.000 A 
ATOM      6  N   UNL     1      45.455   5.085  12.531  0.00  0.00    +0.000 NA
ENDROOT
BRANCH   1   7
ATOM      7  C   UNL     1      43.419   4.589  11.281  0.00  0.00    +0.000 C 
BRANCH   7   8
ATOM      8  C   UNL     1      43.985   3.361  10.541  0.00  0.00    +0.000 C 
BRANCH   8   9
ATOM      9  N   UNL     1      45.122   2.712  11.232  0.00  0.00    +0.000 NA
ATOM     10  H   UNL     1      45.713   2.218  10.570  0.00  0.00    +0.000 HD
ATOM     11  H   UNL     1      44.732   2.010  11.871  0.00  0.00    +0.000 HD
ENDBRANCH   8   9
BRANCH   8  12
ATOM     12  C   UNL     1      44.407   3.700   9.092  0.00  0.00    +0.000 C 
ATOM     13  O   UNL     1      43.893   4.636   8.471  0.00  0.00    +0.000 OA
BRANCH  12  14
ATOM     14  C   UNL     1      45.483   2.901   8.436  0.00  0.00    +0.000 A 
ATOM     15  C   UNL     1      46.467   3.436   7.602  0.00  0.00    +0.000 A 
ATOM     16  C   UNL     1      47.393   2.590   6.989  0.00  0.00    +0.000 A 
ATOM     17  C   UNL     1      47.314   1.230   7.239  0.00  0.00    +0.000 A 
ATOM     18  N   UNL     1      46.390   0.677   8.049  0.00  0.00    +0.000 NA
ATOM     19  C   UNL     1      45.496   1.523   8.624  0.00  0.00    +0.000 A 
ENDBRANCH  12  14
ENDBRANCH   8  12
ENDBRANCH   7   8
ENDBRANCH   1   7
BRANCH   4  20
ATOM     20  C   UNL     1      47.277   8.283  13.440  0.00  0.00    +0.000 C 
BRANCH  20  21
ATOM     21  N   UNL     1      47.647   7.855  14.764  0.00  0.00    +0.000 N 
ATOM     22  C   UNL     1      48.813   7.164  14.979  0.00  0.00    +0.000 C 
ATOM     23  O   UNL     1      49.597   6.918  14.066  0.00  0.00    +0.000 OA
ATOM     24  H   UNL     1      46.918   7.833  15.470  0.00  0.00    +0.000 HD
BRANCH  22  25
ATOM     25  C   UNL     1      49.109   6.785  16.365  0.00  0.00    +0.000 A 
ATOM     26  C   UNL     1      49.787   7.674  17.186  0.00  0.00    +0.000 A 
ATOM     27  S   UNL     1      50.002   7.110  18.780  0.00  0.00    +0.000 S 
ATOM     28  C   UNL     1      49.242   5.632  18.415  0.00  0.00    +0.000 A 
ATOM     29  N   UNL     1      49.115   4.662  19.360  0.00  0.00    +0.000 NA
ATOM     30  C   UNL     1      48.551   3.579  18.940  0.00  0.00    +0.000 A 
ATOM     31  N   UNL     1      48.098   3.380  17.661  0.00  0.00    +0.000 N 
ATOM     32  C   UNL     1      48.177   4.344  16.682  0.00  0.00    +0.000 A 
ATOM     33  O   UNL     1      47.723   4.149  15.559  0.00  0.00    +0.000 OA
ATOM     34  C   UNL     1      48.815   5.577  17.100  0.00  0.00    +0.000 A 
ATOM     35  H   UNL     1      47.660   2.510  17.398  0.00  0.00    +0.000 HD
ENDBRANCH  22  25
ENDBRANCH  20  21
ENDBRANCH   4  20
TORSDOF 8
ENDMDL
MODEL 7
REMARK VINA RESULT:    -7.563      1.818      2.991
REMARK INTER + INTRA:         -11.761
REMARK INTER:                 -11.219
REMARK INTRA:                  -0.542
REMARK UNBOUND:                -0.883
REMARK  Name = 
REMARK  8 active torsions:
REMARK  status: ('A' for Active; 'I' for Inactive)
REMARK    1  A    between atoms: N_1  and  C_2
REMARK    2  A    between atoms: C_2  and  C_3
REMARK    3  A    between atoms: C_2  and  C_24
REMARK    4  A    between atoms: C_3  and  C_4
REMARK    5  A    between atoms: C_7  and  C_8
REMARK    6  A    between atoms: C_8  and  N_9
REMARK    7  A    between atoms: C_10  and  C_12
REMARK    8  A    between atoms: C_24  and  C_26
REMARK                            x       y       z     vdW  Elec       q    Type
REMARK                         _______ _______ _______ _____ _____    ______ ____
ROOT
ATOM      1  C   UNL     1      45.869   5.186  11.877  0.00  0.00    +0.000 A 
ATOM      2  C   UNL     1      46.678   6.110  12.532  0.00  0.00    +0.000 A 
ATOM      3  C   UNL     1      47.242   5.765  13.757  0.00  0.00    +0.000 A 
ATOM      4  C   UNL     1      46.977   4.513  14.312  0.00  0.00    +0.000 A 
ATOM      5  C   UNL     1      46.196   3.639  13.564  0.00  0.00    +0.000 A 
ATOM      6  N   UNL     1      45.648   3.943  12.363  0.00  0.00    +0.000 NA
ENDROOT
BRANCH   1   7
ATOM      7  C   UNL     1      45.164   5.555  10.596  0.00  0.00    +0.000 C 
BRANCH   7   8
ATOM      8  C   UNL     1      43.877   4.756  10.315  0.00  0.00    +0.000 C 
BRANCH   8   9
ATOM      9  N   UNL     1      42.901   4.774  11.429  0.00  0.00    +0.000 NA
ATOM     10  H   UNL     1      43.373   4.689  12.324  0.00  0.00    +0.000 HD
ATOM     11  H   UNL     1      42.300   3.950  11.324  0.00  0.00    +0.000 HD
ENDBRANCH   8   9
BRANCH   8  12
ATOM     12  C   UNL     1      44.177   3.287   9.935  0.00  0.00    +0.000 C 
ATOM     13  O   UNL     1      43.594   2.345  10.483  0.00  0.00    +0.000 OA
BRANCH  12  14
ATOM     14  C   UNL     1      45.168   2.996   8.858  0.00  0.00    +0.000 A 
ATOM     15  C   UNL     1      45.589   3.921   7.901  0.00  0.00    +0.000 A 
ATOM     16  C   UNL     1      46.477   3.528   6.898  0.00  0.00    +0.000 A 
ATOM     17  C   UNL     1      46.927   2.218   6.890  0.00  0.00    +0.000 A 
ATOM     18  N   UNL     1      46.556   1.300   7.803  0.00  0.00    +0.000 NA
ATOM     19  C   UNL     1      45.684   1.708   8.762  0.00  0.00    +0.000 A 
ENDBRANCH  12  14
ENDBRANCH   8  12
ENDBRANCH   7   8
ENDBRANCH   1   7
BRANCH   4  20
ATOM     20  C   UNL     1      47.529   4.120  15.650  0.00  0.00    +0.000 C 
BRANCH  20  21
ATOM     21  N   UNL     1      47.400   5.186  16.610  0.00  0.00    +0.000 N 
ATOM     22  C   UNL     1      48.511   5.798  17.134  0.00  0.00    +0.000 C 
ATOM     23  O   UNL     1      49.646   5.490  16.780  0.00  0.00    +0.000 OA
ATOM     24  H   UNL     1      46.507   5.284  17.084  0.00  0.00    +0.000 HD
BRANCH  22  25
ATOM     25  C   UNL     1      48.276   6.883  18.093  0.00  0.00    +0.000 A 
ATOM     26  C   UNL     1      48.162   6.588  19.444  0.00  0.00    +0.000 A 
ATOM     27  S   UNL     1      47.949   7.961  20.431  0.00  0.00    +0.000 S 
ATOM     28  C   UNL     1      47.949   8.997  19.081  0.00  0.00    +0.000 A 
ATOM     29  N   UNL     1      47.779  10.338  19.232  0.00  0.00    +0.000 NA
ATOM     30  C   UNL     1      47.763  11.001  18.124  0.00  0.00    +0.000 A 
ATOM     31  N   UNL     1      47.907  10.445  16.879  0.00  0.00    +0.000 N 
ATOM     32  C   UNL     1      48.113   9.099  16.681  0.00  0.00    +0.000 A 
ATOM     33  O   UNL     1      48.280   8.639  15.556  0.00  0.00    +0.000 OA
ATOM     34  C   UNL     1      48.125   8.306  17.895  0.00  0.00    +0.000 A 
ATOM     35  H   UNL     1      47.892  11.022  16.051  0.00  0.00    +0.000 HD
ENDBRANCH  22  25
ENDBRANCH  20  21
ENDBRANCH   4  20
TORSDOF 8
ENDMDL
MODEL 8
REMARK VINA RESULT:    -7.411      4.536      6.396
REMARK INTER + INTRA:         -11.543
REMARK INTER:                 -10.087
REMARK INTRA:                  -1.456
REMARK UNBOUND:                -0.883
REMARK  Name = 
REMARK  8 active torsions:
REMARK  status: ('A' for Active; 'I' for Inactive)
REMARK    1  A    between atoms: N_1  and  C_2
REMARK    2  A    between atoms: C_2  and  C_3
REMARK    3  A    between atoms: C_2  and  C_24
REMARK    4  A    between atoms: C_3  and  C_4
REMARK    5  A    between atoms: C_7  and  C_8
REMARK    6  A    between atoms: C_8  and  N_9
REMARK    7  A    between atoms: C_10  and  C_12
REMARK    8  A    between atoms: C_24  and  C_26
REMARK                            x       y       z     vdW  Elec       q    Type
REMARK                         _______ _______ _______ _____ _____    ______ ____
ROOT
ATOM      1  C   UNL     1      45.795   5.823  13.118  0.00  0.00    +0.000 A 
ATOM      2  C   UNL     1      47.084   5.852  13.646  0.00  0.00    +0.000 A 
ATOM      3  C   UNL     1      47.732   7.076  13.778  0.00  0.00    +0.000 A 
ATOM      4  C   UNL     1      47.092   8.245  13.367  0.00  0.00    +0.000 A 
ATOM      5  C   UNL     1      45.789   8.124  12.896  0.00  0.00    +0.000 A 
ATOM      6  N   UNL     1      45.129   6.948  12.772  0.00  0.00    +0.000 NA
ENDROOT
BRANCH   1   7
ATOM      7  C   UNL     1      45.095   4.510  12.873  0.00  0.00    +0.000 C 
BRANCH   7   8
ATOM      8  C   UNL     1      43.918   4.583  11.881  0.00  0.00    +0.000 C 
BRANCH   8   9
ATOM      9  N   UNL     1      42.598   4.772  12.525  0.00  0.00    +0.000 NA
ATOM     10  H   UNL     1      42.696   5.258  13.412  0.00  0.00    +0.000 HD
ATOM     11  H   UNL     1      42.221   3.841  12.731  0.00  0.00    +0.000 HD
ENDBRANCH   8   9
BRANCH   8  12
ATOM     12  C   UNL     1      43.855   3.342  10.962  0.00  0.00    +0.000 C 
ATOM     13  O   UNL     1      43.100   2.395  11.205  0.00  0.00    +0.000 OA
BRANCH  12  14
ATOM     14  C   UNL     1      44.700   3.296   9.732  0.00  0.00    +0.000 A 
ATOM     15  C   UNL     1      45.178   2.122   9.146  0.00  0.00    +0.000 A 
ATOM     16  C   UNL     1      46.012   2.194   8.029  0.00  0.00    +0.000 A 
ATOM     17  C   UNL     1      46.335   3.443   7.524  0.00  0.00    +0.000 A 
ATOM     18  N   UNL     1      45.882   4.597   8.051  0.00  0.00    +0.000 NA
ATOM     19  C   UNL     1      45.080   4.497   9.143  0.00  0.00    +0.000 A 
ENDBRANCH  12  14
ENDBRANCH   8  12
ENDBRANCH   7   8
ENDBRANCH   1   7
BRANCH   4  20
ATOM     20  C   UNL     1      47.773   9.578  13.451  0.00  0.00    +0.000 C 
BRANCH  20  21
ATOM     21  N   UNL     1      49.043   9.567  12.773  0.00  0.00    +0.000 N 
ATOM     22  C   UNL     1      49.224  10.271  11.609  0.00  0.00    +0.000 C 
ATOM     23  O   UNL     1      48.331  10.961  11.124  0.00  0.00    +0.000 OA
ATOM     24  H   UNL     1      49.698   8.830  13.016  0.00  0.00    +0.000 HD
BRANCH  22  25
ATOM     25  C   UNL     1      50.559  10.209  11.001  0.00  0.00    +0.000 A 
ATOM     26  C   UNL     1      51.170  11.380  10.576  0.00  0.00    +0.000 A 
ATOM     27  S   UNL     1      52.738  11.147   9.949  0.00  0.00    +0.000 S 
ATOM     28  C   UNL     1      52.634   9.464  10.173  0.00  0.00    +0.000 A 
ATOM     29  N   UNL     1      53.660   8.648   9.808  0.00  0.00    +0.000 NA
ATOM     30  C   UNL     1      53.435   7.391  10.000  0.00  0.00    +0.000 A 
ATOM     31  N   UNL     1      52.280   6.876  10.530  0.00  0.00    +0.000 N 
ATOM     32  C   UNL     1      51.231   7.665  10.942  0.00  0.00    +0.000 A 
ATOM     33  O   UNL     1      50.228   7.175  11.452  0.00  0.00    +0.000 OA
ATOM     34  C   UNL     1      51.428   9.087  10.735  0.00  0.00    +0.000 A 
ATOM     35  H   UNL     1      52.171   5.881  10.661  0.00  0.00    +0.000 HD
ENDBRANCH  22  25
ENDBRANCH  20  21
ENDBRANCH   4  20
TORSDOF 8
ENDMDL
MODEL 9
REMARK VINA RESULT:    -7.330      2.993      9.469
REMARK INTER + INTRA:         -11.426
REMARK INTER:                  -9.925
REMARK INTRA:                  -1.501
REMARK UNBOUND:                -0.883
REMARK  Name = 
REMARK  8 active torsions:
REMARK  status: ('A' for Active; 'I' for Inactive)
REMARK    1  A    between atoms: N_1  and  C_2
REMARK    2  A    between atoms: C_2  and  C_3
REMARK    3  A    between atoms: C_2  and  C_24
REMARK    4  A    between atoms: C_3  and  C_4
REMARK    5  A    between atoms: C_7  and  C_8
REMARK    6  A    between atoms: C_8  and  N_9
REMARK    7  A    between atoms: C_10  and  C_12
REMARK    8  A    between atoms: C_24  and  C_26
REMARK                            x       y       z     vdW  Elec       q    Type
REMARK                         _______ _______ _______ _____ _____    ______ ____
ROOT
ATOM      1  C   UNL     1      49.133   7.656  16.026  0.00  0.00    +0.000 A 
ATOM      2  C   UNL     1      48.496   8.815  15.589  0.00  0.00    +0.000 A 
ATOM      3  C   UNL     1      47.928   8.834  14.318  0.00  0.00    +0.000 A 
ATOM      4  C   UNL     1      48.019   7.707  13.503  0.00  0.00    +0.000 A 
ATOM      5  C   UNL     1      48.633   6.581  14.041  0.00  0.00    +0.000 A 
ATOM      6  N   UNL     1      49.179   6.529  15.279  0.00  0.00    +0.000 NA
ENDROOT
BRANCH   1   7
ATOM      7  C   UNL     1      49.841   7.624  17.357  0.00  0.00    +0.000 C 
BRANCH   7   8
ATOM      8  C   UNL     1      48.910   7.525  18.580  0.00  0.00    +0.000 C 
BRANCH   8   9
ATOM      9  N   UNL     1      49.154   8.561  19.610  0.00  0.00    +0.000 NA
ATOM     10  H   UNL     1      48.479   8.485  20.365  0.00  0.00    +0.000 HD
ATOM     11  H   UNL     1      49.010   9.474  19.167  0.00  0.00    +0.000 HD
ENDBRANCH   8   9
BRANCH   8  12
ATOM     12  C   UNL     1      48.971   6.131  19.246  0.00  0.00    +0.000 C 
ATOM     13  O   UNL     1      49.272   5.995  20.436  0.00  0.00    +0.000 OA
BRANCH  12  14
ATOM     14  C   UNL     1      48.627   4.920  18.444  0.00  0.00    +0.000 A 
ATOM     15  C   UNL     1      49.542   3.933  18.070  0.00  0.00    +0.000 A 
ATOM     16  C   UNL     1      49.127   2.869  17.268  0.00  0.00    +0.000 A 
ATOM     17  C   UNL     1      47.801   2.818  16.870  0.00  0.00    +0.000 A 
ATOM     18  N   UNL     1      46.885   3.742  17.221  0.00  0.00    +0.000 NA
ATOM     19  C   UNL     1      47.319   4.771  17.996  0.00  0.00    +0.000 A 
ENDBRANCH  12  14
ENDBRANCH   8  12
ENDBRANCH   7   8
ENDBRANCH   1   7
BRANCH   4  20
ATOM     20  C   UNL     1      47.460   7.704  12.111  0.00  0.00    +0.000 C 
BRANCH  20  21
ATOM     21  N   UNL     1      46.805   6.458  11.806  0.00  0.00    +0.000 N 
ATOM     22  C   UNL     1      45.437   6.357  11.838  0.00  0.00    +0.000 C 
ATOM     23  O   UNL     1      44.723   7.324  12.087  0.00  0.00    +0.000 OA
ATOM     24  H   UNL     1      47.368   5.613  11.838  0.00  0.00    +0.000 HD
BRANCH  22  25
ATOM     25  C   UNL     1      44.864   5.049  11.497  0.00  0.00    +0.000 A 
ATOM     26  C   UNL     1      44.126   4.359  12.447  0.00  0.00    +0.000 A 
ATOM     27  S   UNL     1      43.480   2.887  11.878  0.00  0.00    +0.000 S 
ATOM     28  C   UNL     1      44.211   3.095  10.355  0.00  0.00    +0.000 A 
ATOM     29  N   UNL     1      44.071   2.155   9.382  0.00  0.00    +0.000 NA
ATOM     30  C   UNL     1      44.706   2.421   8.289  0.00  0.00    +0.000 A 
ATOM     31  N   UNL     1      45.463   3.545   8.080  0.00  0.00    +0.000 N 
ATOM     32  C   UNL     1      45.606   4.536   9.024  0.00  0.00    +0.000 A 
ATOM     33  O   UNL     1      46.256   5.550   8.789  0.00  0.00    +0.000 OA
ATOM     34  C   UNL     1      44.922   4.279  10.277  0.00  0.00    +0.000 A 
ATOM     35  H   UNL     1      45.930   3.697   7.198  0.00  0.00    +0.000 HD
ENDBRANCH  22  25
ENDBRANCH  20  21
ENDBRANCH   4  20
TORSDOF 8
ENDMDL
