MODEL 1
REMARK VINA RESULT:    -7.848      0.000      0.000
REMARK INTER + INTRA:         -12.535
REMARK INTER:                 -11.059
REMARK INTRA:                  -1.475
REMARK UNBOUND:                -1.475
REMARK  Name = 
REMARK  8 active torsions:
REMARK  status: ('A' for Active; 'I' for Inactive)
REMARK    1  A    between atoms: C_1  and  C_2
REMARK    2  A    between atoms: C_2  and  C_3
REMARK    3  A    between atoms: C_3  and  N_4
REMARK    4  A    between atoms: C_3  and  C_17
REMARK    5  A    between atoms: C_5  and  C_7
REMARK    6  A    between atoms: C_20  and  O_21
REMARK    7  A    between atoms: O_21  and  C_22
REMARK    8  A    between atoms: C_22  and  C_23
REMARK                            x       y       z     vdW  Elec       q    Type
REMARK                         _______ _______ _______ _____ _____    ______ ____
ROOT
ATOM      1  C   UNL     1      47.215   7.173  13.234  0.00  0.00    +0.000 C 
ENDROOT
BRANCH   1   2
ATOM      2  C   UNL     1      46.439   6.023  12.619  0.00  0.00    +0.000 A 
ATOM      3  C   UNL     1      45.722   6.209  11.426  0.00  0.00    +0.000 A 
ATOM      4  C   UNL     1      45.095   5.126  10.803  0.00  0.00    +0.000 A 
ATOM      5  C   UNL     1      45.179   3.854  11.366  0.00  0.00    +0.000 A 
ATOM      6  C   UNL     1      45.793   3.687  12.604  0.00  0.00    +0.000 A 
ATOM      7  C   UNL     1      46.417   4.762  13.224  0.00  0.00    +0.000 A 
BRANCH   5   8
ATOM      8  O   UNL     1      44.652   2.827  10.632  0.00  0.00    +0.000 OA
BRANCH   8   9
ATOM      9  C   UNL     1      44.394   3.167   9.263  0.00  0.00    +0.000 C 
BRANCH   9  10
ATOM     10  C   UNL     1      45.488   2.632   8.379  0.00  0.00    +0.000 A 
ATOM     11  C   UNL     1      46.175   3.495   7.527  0.00  0.00    +0.000 A 
ATOM     12  C   UNL     1      47.212   2.985   6.754  0.00  0.00    +0.000 A 
ATOM     13  C   UNL     1      47.535   1.638   6.859  0.00  0.00    +0.000 A 
ATOM     14  C   UNL     1      46.810   0.852   7.740  0.00  0.00    +0.000 A 
ATOM     15  N   UNL     1      45.803   1.318   8.506  0.00  0.00    +0.000 NA
ENDBRANCH   9  10
ENDBRANCH   8   9
ENDBRANCH   5   8
ENDBRANCH   1   2
BRANCH   1  16
ATOM     16  N   UNL     1      48.220   6.627  14.127  0.00  0.00    +0.000 N 
ATOM     17  C   UNL     1      48.612   7.304  15.258  0.00  0.00    +0.000 C 
ATOM     18  O   UNL     1      48.151   8.393  15.576  0.00  0.00    +0.000 OA
ATOM     19  H   UNL     1      48.715   5.797  13.839  0.00  0.00    +0.000 HD
BRANCH  17  20
ATOM     20  C   UNL     1      49.575   6.594  16.098  0.00  0.00    +0.000 A 
ATOM     21  C   UNL     1      50.850   7.060  16.375  0.00  0.00    +0.000 A 
ATOM     22  S   UNL     1      51.813   5.917  17.206  0.00  0.00    +0.000 S 
ATOM     23  C   UNL     1      50.548   4.776  17.217  0.00  0.00    +0.000 A 
ATOM     24  N   UNL     1      50.724   3.527  17.726  0.00  0.00    +0.000 NA
ATOM     25  C   UNL     1      49.679   2.771  17.642  0.00  0.00    +0.000 A 
ATOM     26  N   UNL     1      48.466   3.161  17.130  0.00  0.00    +0.000 N 
ATOM     27  C   UNL     1      48.210   4.448  16.715  0.00  0.00    +0.000 A 
ATOM     28  O   UNL     1      47.064   4.831  16.507  0.00  0.00    +0.000 OA
ATOM     29  C   UNL     1      49.391   5.288  16.666  0.00  0.00    +0.000 A 
ATOM     30  H   UNL     1      47.665   2.550  17.179  0.00  0.00    +0.000 HD
ENDBRANCH  17  20
ENDBRANCH   1  16
BRANCH   1  32
ATOM     31  C   UNL     1      49.198   7.617  11.666  0.00  0.00    +0.000 C 
ATOM     32  C   UNL     1      47.864   8.125  12.203  0.00  0.00    +0.000 C 
ENDBRANCH   1  32
TORSDOF 7
ENDMDL
MODEL 2
REMARK VINA RESULT:    -7.543      2.280      4.385
REMARK INTER + INTRA:         -12.104
REMARK INTER:                 -10.630
REMARK INTRA:                  -1.474
REMARK UNBOUND:                -1.475
REMARK  Name = 
REMARK  8 active torsions:
REMARK  status: ('A' for Active; 'I' for Inactive)
REMARK    1  A    between atoms: C_1  and  C_2
REMARK    2  A    between atoms: C_2  and  C_3
REMARK    3  A    between atoms: C_3  and  N_4
REMARK    4  A    between atoms: C_3  and  C_17
REMARK    5  A    between atoms: C_5  and  C_7
REMARK    6  A    between atoms: C_20  and  O_21
REMARK    7  A    between atoms: O_21  and  C_22
REMARK    8  A    between atoms: C_22  and  C_23
REMARK                            x       y       z     vdW  Elec       q    Type
REMARK                         _______ _______ _______ _____ _____    ______ ____
ROOT
ATOM      1  C   UNL     1      47.549   5.215  14.378  0.00  0.00    +0.000 C 
ENDROOT
BRANCH   1   2
ATOM      2  C   UNL     1      46.596   4.926  13.232  0.00  0.00    +0.000 A 
ATOM      3  C   UNL     1      46.395   5.878  12.220  0.00  0.00    +0.000 A 
ATOM      4  C   UNL     1      45.600   5.573  11.111  0.00  0.00    +0.000 A 
ATOM      5  C   UNL     1      45.003   4.318  11.006  0.00  0.00    +0.000 A 
ATOM      6  C   UNL     1      45.109   3.413  12.058  0.00  0.00    +0.000 A 
ATOM      7  C   UNL     1      45.899   3.715  13.161  0.00  0.00    +0.000 A 
BRANCH   5   8
ATOM      8  O   UNL     1      44.350   4.050   9.834  0.00  0.00    +0.000 OA
BRANCH   8   9
ATOM      9  C   UNL     1      44.400   2.670   9.447  0.00  0.00    +0.000 C 
BRANCH   9  10
ATOM     10  C   UNL     1      45.458   2.462   8.398  0.00  0.00    +0.000 A 
ATOM     11  C   UNL     1      45.803   3.508   7.544  0.00  0.00    +0.000 A 
ATOM     12  C   UNL     1      46.815   3.304   6.613  0.00  0.00    +0.000 A 
ATOM     13  C   UNL     1      47.455   2.073   6.568  0.00  0.00    +0.000 A 
ATOM     14  C   UNL     1      47.060   1.090   7.462  0.00  0.00    +0.000 A 
ATOM     15  N   UNL     1      46.086   1.259   8.378  0.00  0.00    +0.000 NA
ENDBRANCH   9  10
ENDBRANCH   8   9
ENDBRANCH   5   8
ENDBRANCH   1   2
BRANCH   1  16
ATOM     16  N   UNL     1      47.786   6.646  14.432  0.00  0.00    +0.000 N 
ATOM     17  C   UNL     1      48.988   7.154  14.866  0.00  0.00    +0.000 C 
ATOM     18  O   UNL     1      49.915   6.444  15.234  0.00  0.00    +0.000 OA
ATOM     19  H   UNL     1      47.009   7.266  14.258  0.00  0.00    +0.000 HD
BRANCH  17  20
ATOM     20  C   UNL     1      49.105   8.608  14.792  0.00  0.00    +0.000 A 
ATOM     21  C   UNL     1      49.207   9.434  15.900  0.00  0.00    +0.000 A 
ATOM     22  S   UNL     1      49.117  11.095  15.505  0.00  0.00    +0.000 S 
ATOM     23  C   UNL     1      48.943  10.750  13.846  0.00  0.00    +0.000 A 
ATOM     24  N   UNL     1      48.746  11.739  12.933  0.00  0.00    +0.000 NA
ATOM     25  C   UNL     1      48.611  11.315  11.719  0.00  0.00    +0.000 A 
ATOM     26  N   UNL     1      48.690  10.001  11.332  0.00  0.00    +0.000 N 
ATOM     27  C   UNL     1      49.005   8.983  12.203  0.00  0.00    +0.000 A 
ATOM     28  O   UNL     1      49.320   7.871  11.792  0.00  0.00    +0.000 OA
ATOM     29  C   UNL     1      49.030   9.396  13.593  0.00  0.00    +0.000 A 
ATOM     30  H   UNL     1      48.668   9.749  10.355  0.00  0.00    +0.000 HD
ENDBRANCH  17  20
ENDBRANCH   1  16
BRANCH   1  32
ATOM     31  C   UNL     1      47.864   3.493  16.255  0.00  0.00    +0.000 C 
ATOM     32  C   UNL     1      47.068   4.693  15.751  0.00  0.00    +0.000 C 
ENDBRANCH   1  32
TORSDOF 7
ENDMDL
MODEL 3
REMARK VINA RESULT:    -7.159      1.506      2.085
REMARK INTER + INTRA:         -11.563
REMARK INTER:                 -10.444
REMARK INTRA:                  -1.120
REMARK UNBOUND:                -1.475
REMARK  Name = 
REMARK  8 active torsions:
REMARK  status: ('A' for Active; 'I' for Inactive)
REMARK    1  A    between atoms: C_1  and  C_2
REMARK    2  A    between atoms: C_2  and  C_3
REMARK    3  A    between atoms: C_3  and  N_4
REMARK    4  A    between atoms: C_3  and  C_17
REMARK    5  A    between atoms: C_5  and  C_7
REMARK    6  A    between atoms: C_20  and  O_21
REMARK    7  A    between atoms: O_21  and  C_22
REMARK    8  A    between atoms: C_22  and  C_23
REMARK                            x       y       z     vdW  Elec       q    Type
REMARK                         _______ _______ _______ _____ _____    ______ ____
ROOT
ATOM      1  C   UNL     1      47.554   7.008  13.588  0.00  0.00    +0.000 C 
ENDROOT
BRANCH   1   2
ATOM      2  C   UNL     1      46.521   6.262  12.763  0.00  0.00    +0.000 A 
ATOM      3  C   UNL     1      45.909   6.884  11.662  0.00  0.00    +0.000 A 
ATOM      4  C   UNL     1      45.037   6.165  10.840  0.00  0.00    +0.000 A 
ATOM      5  C   UNL     1      44.772   4.823  11.110  0.00  0.00    +0.000 A 
ATOM      6  C   UNL     1      45.288   4.236  12.261  0.00  0.00    +0.000 A 
ATOM      7  C   UNL     1      46.155   4.950  13.079  0.00  0.00    +0.000 A 
BRANCH   5   8
ATOM      8  O   UNL     1      44.014   4.155  10.188  0.00  0.00    +0.000 OA
BRANCH   8   9
ATOM      9  C   UNL     1      44.371   2.774  10.038  0.00  0.00    +0.000 C 
BRANCH   9  10
ATOM     10  C   UNL     1      45.270   2.596   8.845  0.00  0.00    +0.000 A 
ATOM     11  C   UNL     1      45.513   3.674   7.993  0.00  0.00    +0.000 A 
ATOM     12  C   UNL     1      46.383   3.496   6.924  0.00  0.00    +0.000 A 
ATOM     13  C   UNL     1      46.987   2.259   6.740  0.00  0.00    +0.000 A 
ATOM     14  C   UNL     1      46.701   1.244   7.640  0.00  0.00    +0.000 A 
ATOM     15  N   UNL     1      45.866   1.387   8.690  0.00  0.00    +0.000 NA
ENDBRANCH   9  10
ENDBRANCH   8   9
ENDBRANCH   5   8
ENDBRANCH   1   2
BRANCH   1  16
ATOM     16  N   UNL     1      48.036   6.125  14.634  0.00  0.00    +0.000 N 
ATOM     17  C   UNL     1      48.501   6.622  15.829  0.00  0.00    +0.000 C 
ATOM     18  O   UNL     1      48.542   7.819  16.080  0.00  0.00    +0.000 OA
ATOM     19  H   UNL     1      48.137   5.144  14.421  0.00  0.00    +0.000 HD
BRANCH  17  20
ATOM     20  C   UNL     1      48.879   5.608  16.811  0.00  0.00    +0.000 A 
ATOM     21  C   UNL     1      47.980   4.746  17.418  0.00  0.00    +0.000 A 
ATOM     22  S   UNL     1      48.686   3.821  18.672  0.00  0.00    +0.000 S 
ATOM     23  C   UNL     1      50.207   4.549  18.430  0.00  0.00    +0.000 A 
ATOM     24  N   UNL     1      51.268   4.257  19.230  0.00  0.00    +0.000 NA
ATOM     25  C   UNL     1      52.346   4.906  18.934  0.00  0.00    +0.000 A 
ATOM     26  N   UNL     1      52.468   5.791  17.892  0.00  0.00    +0.000 N 
ATOM     27  C   UNL     1      51.457   6.026  16.988  0.00  0.00    +0.000 A 
ATOM     28  O   UNL     1      51.673   6.613  15.934  0.00  0.00    +0.000 OA
ATOM     29  C   UNL     1      50.193   5.423  17.363  0.00  0.00    +0.000 A 
ATOM     30  H   UNL     1      53.365   6.193  17.660  0.00  0.00    +0.000 HD
ENDBRANCH  17  20
ENDBRANCH   1  16
BRANCH   1  32
ATOM     31  C   UNL     1      48.734   9.095  12.669  0.00  0.00    +0.000 C 
ATOM     32  C   UNL     1      48.736   7.572  12.766  0.00  0.00    +0.000 C 
ENDBRANCH   1  32
TORSDOF 7
ENDMDL
MODEL 4
REMARK VINA RESULT:    -7.007      1.998      2.419
REMARK INTER + INTRA:         -11.350
REMARK INTER:                 -10.458
REMARK INTRA:                  -0.892
REMARK UNBOUND:                -1.475
REMARK  Name = 
REMARK  8 active torsions:
REMARK  status: ('A' for Active; 'I' for Inactive)
REMARK    1  A    between atoms: C_1  and  C_2
REMARK    2  A    between atoms: C_2  and  C_3
REMARK    3  A    between atoms: C_3  and  N_4
REMARK    4  A    between atoms: C_3  and  C_17
REMARK    5  A    between atoms: C_5  and  C_7
REMARK    6  A    between atoms: C_20  and  O_21
REMARK    7  A    between atoms: O_21  and  C_22
REMARK    8  A    between atoms: C_22  and  C_23
REMARK                            x       y       z     vdW  Elec       q    Type
REMARK                         _______ _______ _______ _____ _____    ______ ____
ROOT
ATOM      1  C   UNL     1      48.214   7.566  13.628  0.00  0.00    +0.000 C 
ENDROOT
BRANCH   1   2
ATOM      2  C   UNL     1      47.273   6.618  12.908  0.00  0.00    +0.000 A 
ATOM      3  C   UNL     1      46.903   5.400  13.501  0.00  0.00    +0.000 A 
ATOM      4  C   UNL     1      45.957   4.574  12.887  0.00  0.00    +0.000 A 
ATOM      5  C   UNL     1      45.374   4.959  11.681  0.00  0.00    +0.000 A 
ATOM      6  C   UNL     1      45.819   6.110  11.036  0.00  0.00    +0.000 A 
ATOM      7  C   UNL     1      46.760   6.931  11.645  0.00  0.00    +0.000 A 
BRANCH   5   8
ATOM      8  O   UNL     1      44.364   4.165  11.211  0.00  0.00    +0.000 OA
BRANCH   8   9
ATOM      9  C   UNL     1      44.068   4.367   9.823  0.00  0.00    +0.000 C 
BRANCH   9  10
ATOM     10  C   UNL     1      45.044   3.605   8.967  0.00  0.00    +0.000 A 
ATOM     11  C   UNL     1      45.190   2.229   9.140  0.00  0.00    +0.000 A 
ATOM     12  C   UNL     1      46.064   1.542   8.306  0.00  0.00    +0.000 A 
ATOM     13  C   UNL     1      46.757   2.241   7.326  0.00  0.00    +0.000 A 
ATOM     14  C   UNL     1      46.543   3.605   7.212  0.00  0.00    +0.000 A 
ATOM     15  N   UNL     1      45.699   4.300   8.003  0.00  0.00    +0.000 NA
ENDBRANCH   9  10
ENDBRANCH   8   9
ENDBRANCH   5   8
ENDBRANCH   1   2
BRANCH   1  16
ATOM     16  N   UNL     1      48.102   7.333  15.056  0.00  0.00    +0.000 N 
ATOM     17  C   UNL     1      48.702   8.173  15.965  0.00  0.00    +0.000 C 
ATOM     18  O   UNL     1      49.362   9.149  15.634  0.00  0.00    +0.000 OA
ATOM     19  H   UNL     1      47.675   6.474  15.368  0.00  0.00    +0.000 HD
BRANCH  17  20
ATOM     20  C   UNL     1      48.436   7.854  17.366  0.00  0.00    +0.000 A 
ATOM     21  C   UNL     1      47.905   8.753  18.277  0.00  0.00    +0.000 A 
ATOM     22  S   UNL     1      47.906   8.159  19.880  0.00  0.00    +0.000 S 
ATOM     23  C   UNL     1      48.612   6.687  19.395  0.00  0.00    +0.000 A 
ATOM     24  N   UNL     1      48.953   5.731  20.301  0.00  0.00    +0.000 NA
ATOM     25  C   UNL     1      49.498   4.681  19.779  0.00  0.00    +0.000 A 
ATOM     26  N   UNL     1      49.701   4.486  18.436  0.00  0.00    +0.000 N 
ATOM     27  C   UNL     1      49.265   5.373  17.478  0.00  0.00    +0.000 A 
ATOM     28  O   UNL     1      49.226   5.059  16.293  0.00  0.00    +0.000 OA
ATOM     29  C   UNL     1      48.772   6.623  18.025  0.00  0.00    +0.000 A 
ATOM     30  H   UNL     1      50.047   3.604  18.089  0.00  0.00    +0.000 HD
ENDBRANCH  17  20
ENDBRANCH   1  16
BRANCH   1  32
ATOM     31  C   UNL     1      50.063   8.475  12.096  0.00  0.00    +0.000 C 
ATOM     32  C   UNL     1      49.689   7.464  13.176  0.00  0.00    +0.000 C 
ENDBRANCH   1  32
TORSDOF 7
ENDMDL
MODEL 5
REMARK VINA RESULT:    -6.745      3.184      4.736
REMARK INTER + INTRA:         -10.980
REMARK INTER:                  -9.627
REMARK INTRA:                  -1.353
REMARK UNBOUND:                -1.475
REMARK  Name = 
REMARK  8 active torsions:
REMARK  status: ('A' for Active; 'I' for Inactive)
REMARK    1  A    between atoms: C_1  and  C_2
REMARK    2  A    between atoms: C_2  and  C_3
REMARK    3  A    between atoms: C_3  and  N_4
REMARK    4  A    between atoms: C_3  and  C_17
REMARK    5  A    between atoms: C_5  and  C_7
REMARK    6  A    between atoms: C_20  and  O_21
REMARK    7  A    between atoms: O_21  and  C_22
REMARK    8  A    between atoms: C_22  and  C_23
REMARK                            x       y       z     vdW  Elec       q    Type
REMARK                         _______ _______ _______ _____ _____    ______ ____
ROOT
ATOM      1  C   UNL     1      48.139   4.957  16.408  0.00  0.00    +0.000 C 
ENDROOT
BRANCH   1   2
ATOM      2  C   UNL     1      47.577   5.357  15.056  0.00  0.00    +0.000 A 
ATOM      3  C   UNL     1      48.064   6.496  14.394  0.00  0.00    +0.000 A 
ATOM      4  C   UNL     1      47.623   6.807  13.105  0.00  0.00    +0.000 A 
ATOM      5  C   UNL     1      46.695   5.983  12.468  0.00  0.00    +0.000 A 
ATOM      6  C   UNL     1      46.128   4.918  13.162  0.00  0.00    +0.000 A 
ATOM      7  C   UNL     1      46.566   4.608  14.444  0.00  0.00    +0.000 A 
BRANCH   5   8
ATOM      8  O   UNL     1      46.412   6.279  11.163  0.00  0.00    +0.000 OA
BRANCH   8   9
ATOM      9  C   UNL     1      45.143   5.781  10.720  0.00  0.00    +0.000 C 
BRANCH   9  10
ATOM     10  C   UNL     1      45.340   4.652   9.744  0.00  0.00    +0.000 A 
ATOM     11  C   UNL     1      44.846   3.383  10.045  0.00  0.00    +0.000 A 
ATOM     12  C   UNL     1      45.000   2.368   9.107  0.00  0.00    +0.000 A 
ATOM     13  C   UNL     1      45.632   2.649   7.903  0.00  0.00    +0.000 A 
ATOM     14  C   UNL     1      46.083   3.940   7.678  0.00  0.00    +0.000 A 
ATOM     15  N   UNL     1      45.943   4.947   8.565  0.00  0.00    +0.000 NA
ENDBRANCH   9  10
ENDBRANCH   8   9
ENDBRANCH   5   8
ENDBRANCH   1   2
BRANCH   1  16
ATOM     16  N   UNL     1      47.826   6.001  17.366  0.00  0.00    +0.000 N 
ATOM     17  C   UNL     1      48.700   6.327  18.376  0.00  0.00    +0.000 C 
ATOM     18  O   UNL     1      49.775   5.765  18.533  0.00  0.00    +0.000 OA
ATOM     19  H   UNL     1      46.900   6.402  17.351  0.00  0.00    +0.000 HD
BRANCH  17  20
ATOM     20  C   UNL     1      48.281   7.448  19.215  0.00  0.00    +0.000 A 
ATOM     21  C   UNL     1      47.911   7.324  20.544  0.00  0.00    +0.000 A 
ATOM     22  S   UNL     1      47.272   8.769  21.197  0.00  0.00    +0.000 S 
ATOM     23  C   UNL     1      47.476   9.594  19.721  0.00  0.00    +0.000 A 
ATOM     24  N   UNL     1      47.060  10.880  19.563  0.00  0.00    +0.000 NA
ATOM     25  C   UNL     1      47.266  11.358  18.380  0.00  0.00    +0.000 A 
ATOM     26  N   UNL     1      47.879  10.683  17.354  0.00  0.00    +0.000 N 
ATOM     27  C   UNL     1      48.420   9.426  17.505  0.00  0.00    +0.000 A 
ATOM     28  O   UNL     1      49.178   8.956  16.664  0.00  0.00    +0.000 OA
ATOM     29  C   UNL     1      48.092   8.802  18.773  0.00  0.00    +0.000 A 
ATOM     30  H   UNL     1      48.090  11.148  16.484  0.00  0.00    +0.000 HD
ENDBRANCH  17  20
ENDBRANCH   1  16
BRANCH   1  32
ATOM     31  C   UNL     1      48.647   2.456  16.689  0.00  0.00    +0.000 C 
ATOM     32  C   UNL     1      47.645   3.584  16.920  0.00  0.00    +0.000 C 
ENDBRANCH   1  32
TORSDOF 7
ENDMDL
MODEL 6
REMARK VINA RESULT:    -6.722      4.097      6.514
REMARK INTER + INTRA:         -10.948
REMARK INTER:                  -9.606
REMARK INTRA:                  -1.343
REMARK UNBOUND:                -1.475
REMARK  Name = 
REMARK  8 active torsions:
REMARK  status: ('A' for Active; 'I' for Inactive)
REMARK    1  A    between atoms: C_1  and  C_2
REMARK    2  A    between atoms: C_2  and  C_3
REMARK    3  A    between atoms: C_3  and  N_4
REMARK    4  A    between atoms: C_3  and  C_17
REMARK    5  A    between atoms: C_5  and  C_7
REMARK    6  A    between atoms: C_20  and  O_21
REMARK    7  A    between atoms: O_21  and  C_22
REMARK    8  A    between atoms: C_22  and  C_23
REMARK                            x       y       z     vdW  Elec       q    Type
REMARK                         _______ _______ _______ _____ _____    ______ ____
ROOT
ATOM      1  C   UNL     1      45.624   5.205  12.938  0.00  0.00    +0.000 C 
ENDROOT
BRANCH   1   2
ATOM      2  C   UNL     1      45.379   6.631  12.478  0.00  0.00    +0.000 A 
ATOM      3  C   UNL     1      44.460   6.896  11.450  0.00  0.00    +0.000 A 
ATOM      4  C   UNL     1      44.156   8.214  11.097  0.00  0.00    +0.000 A 
ATOM      5  C   UNL     1      44.767   9.273  11.768  0.00  0.00    +0.000 A 
ATOM      6  C   UNL     1      45.759   9.014  12.709  0.00  0.00    +0.000 A 
ATOM      7  C   UNL     1      46.062   7.704  13.060  0.00  0.00    +0.000 A 
BRANCH   5   8
ATOM      8  O   UNL     1      44.322  10.529  11.456  0.00  0.00    +0.000 OA
BRANCH   8   9
ATOM      9  C   UNL     1      43.368  10.555  10.387  0.00  0.00    +0.000 C 
BRANCH   9  10
ATOM     10  C   UNL     1      42.022  10.989  10.901  0.00  0.00    +0.000 A 
ATOM     11  C   UNL     1      40.897  10.870  10.086  0.00  0.00    +0.000 A 
ATOM     12  C   UNL     1      39.658  11.236  10.600  0.00  0.00    +0.000 A 
ATOM     13  C   UNL     1      39.578  11.700  11.907  0.00  0.00    +0.000 A 
ATOM     14  C   UNL     1      40.743  11.775  12.654  0.00  0.00    +0.000 A 
ATOM     15  N   UNL     1      41.957  11.424  12.185  0.00  0.00    +0.000 NA
ENDBRANCH   9  10
ENDBRANCH   8   9
ENDBRANCH   5   8
ENDBRANCH   1   2
BRANCH   1  16
ATOM     16  N   UNL     1      46.207   5.242  14.266  0.00  0.00    +0.000 N 
ATOM     17  C   UNL     1      47.052   4.247  14.702  0.00  0.00    +0.000 C 
ATOM     18  O   UNL     1      47.356   3.283  14.012  0.00  0.00    +0.000 OA
ATOM     19  H   UNL     1      45.886   5.949  14.910  0.00  0.00    +0.000 HD
BRANCH  17  20
ATOM     20  C   UNL     1      47.620   4.461  16.031  0.00  0.00    +0.000 A 
ATOM     21  C   UNL     1      47.354   3.653  17.125  0.00  0.00    +0.000 A 
ATOM     22  S   UNL     1      47.993   4.275  18.584  0.00  0.00    +0.000 S 
ATOM     23  C   UNL     1      48.642   5.634  17.789  0.00  0.00    +0.000 A 
ATOM     24  N   UNL     1      49.272   6.624  18.476  0.00  0.00    +0.000 NA
ATOM     25  C   UNL     1      49.690   7.597  17.734  0.00  0.00    +0.000 A 
ATOM     26  N   UNL     1      49.566   7.653  16.368  0.00  0.00    +0.000 N 
ATOM     27  C   UNL     1      49.042   6.621  15.622  0.00  0.00    +0.000 A 
ATOM     28  O   UNL     1      49.177   6.586  14.404  0.00  0.00    +0.000 OA
ATOM     29  C   UNL     1      48.440   5.573  16.424  0.00  0.00    +0.000 A 
ATOM     30  H   UNL     1      49.996   8.398  15.841  0.00  0.00    +0.000 HD
ENDBRANCH  17  20
ENDBRANCH   1  16
BRANCH   1  32
ATOM     31  C   UNL     1      44.427   3.195  11.881  0.00  0.00    +0.000 C 
ATOM     32  C   UNL     1      44.365   4.308  12.923  0.00  0.00    +0.000 C 
ENDBRANCH   1  32
TORSDOF 7
ENDMDL
MODEL 7
REMARK VINA RESULT:    -6.718      4.067      4.948
REMARK INTER + INTRA:         -10.943
REMARK INTER:                  -9.497
REMARK INTRA:                  -1.445
REMARK UNBOUND:                -1.475
REMARK  Name = 
REMARK  8 active torsions:
REMARK  status: ('A' for Active; 'I' for Inactive)
REMARK    1  A    between atoms: C_1  and  C_2
REMARK    2  A    between atoms: C_2  and  C_3
REMARK    3  A    between atoms: C_3  and  N_4
REMARK    4  A    between atoms: C_3  and  C_17
REMARK    5  A    between atoms: C_5  and  C_7
REMARK    6  A    between atoms: C_20  and  O_21
REMARK    7  A    between atoms: O_21  and  C_22
REMARK    8  A    between atoms: C_22  and  C_23
REMARK                            x       y       z     vdW  Elec       q    Type
REMARK                         _______ _______ _______ _____ _____    ______ ____
ROOT
ATOM      1  C   UNL     1      45.855   9.546  12.294  0.00  0.00    +0.000 C 
ENDROOT
BRANCH   1   2
ATOM      2  C   UNL     1      45.537   8.090  12.007  0.00  0.00    +0.000 A 
ATOM      3  C   UNL     1      44.248   7.714  11.594  0.00  0.00    +0.000 A 
ATOM      4  C   UNL     1      43.982   6.391  11.229  0.00  0.00    +0.000 A 
ATOM      5  C   UNL     1      44.998   5.438  11.272  0.00  0.00    +0.000 A 
ATOM      6  C   UNL     1      46.245   5.782  11.786  0.00  0.00    +0.000 A 
ATOM      7  C   UNL     1      46.511   7.096  12.150  0.00  0.00    +0.000 A 
BRANCH   5   8
ATOM      8  O   UNL     1      44.693   4.199  10.777  0.00  0.00    +0.000 OA
BRANCH   8   9
ATOM      9  C   UNL     1      44.314   4.208   9.395  0.00  0.00    +0.000 C 
BRANCH   9  10
ATOM     10  C   UNL     1      45.312   3.433   8.577  0.00  0.00    +0.000 A 
ATOM     11  C   UNL     1      45.494   2.071   8.814  0.00  0.00    +0.000 A 
ATOM     12  C   UNL     1      46.389   1.369   8.015  0.00  0.00    +0.000 A 
ATOM     13  C   UNL     1      47.066   2.040   7.005  0.00  0.00    +0.000 A 
ATOM     14  C   UNL     1      46.817   3.391   6.828  0.00  0.00    +0.000 A 
ATOM     15  N   UNL     1      45.952   4.099   7.583  0.00  0.00    +0.000 NA
ENDBRANCH   9  10
ENDBRANCH   8   9
ENDBRANCH   5   8
ENDBRANCH   1   2
BRANCH   1  16
ATOM     16  N   UNL     1      47.154   9.856  11.725  0.00  0.00    +0.000 N 
ATOM     17  C   UNL     1      48.237  10.132  12.526  0.00  0.00    +0.000 C 
ATOM     18  O   UNL     1      48.175  10.138  13.749  0.00  0.00    +0.000 OA
ATOM     19  H   UNL     1      47.219   9.985  10.726  0.00  0.00    +0.000 HD
BRANCH  17  20
ATOM     20  C   UNL     1      49.492  10.349  11.811  0.00  0.00    +0.000 A 
ATOM     21  C   UNL     1      49.889  11.575  11.301  0.00  0.00    +0.000 A 
ATOM     22  S   UNL     1      51.298  11.472  10.337  0.00  0.00    +0.000 S 
ATOM     23  C   UNL     1      51.411   9.790  10.582  0.00  0.00    +0.000 A 
ATOM     24  N   UNL     1      52.373   9.047   9.970  0.00  0.00    +0.000 NA
ATOM     25  C   UNL     1      52.314   7.784  10.239  0.00  0.00    +0.000 A 
ATOM     26  N   UNL     1      51.407   7.203  11.089  0.00  0.00    +0.000 N 
ATOM     27  C   UNL     1      50.494   7.931  11.819  0.00  0.00    +0.000 A 
ATOM     28  O   UNL     1      49.879   7.425  12.751  0.00  0.00    +0.000 OA
ATOM     29  C   UNL     1      50.437   9.331  11.445  0.00  0.00    +0.000 A 
ATOM     30  H   UNL     1      51.476   6.225  11.326  0.00  0.00    +0.000 HD
ENDBRANCH  17  20
ENDBRANCH   1  16
BRANCH   1  32
ATOM     31  C   UNL     1      45.186  11.248  10.494  0.00  0.00    +0.000 C 
ATOM     32  C   UNL     1      44.788  10.542  11.786  0.00  0.00    +0.000 C 
ENDBRANCH   1  32
TORSDOF 7
ENDMDL
MODEL 8
REMARK VINA RESULT:    -6.629      1.892      2.057
REMARK INTER + INTRA:         -10.817
REMARK INTER:                  -9.839
REMARK INTRA:                  -0.978
REMARK UNBOUND:                -1.475
REMARK  Name = 
REMARK  8 active torsions:
REMARK  status: ('A' for Active; 'I' for Inactive)
REMARK    1  A    between atoms: C_1  and  C_2
REMARK    2  A    between atoms: C_2  and  C_3
REMARK    3  A    between atoms: C_3  and  N_4
REMARK    4  A    between atoms: C_3  and  C_17
REMARK    5  A    between atoms: C_5  and  C_7
REMARK    6  A    between atoms: C_20  and  O_21
REMARK    7  A    between atoms: O_21  and  C_22
REMARK    8  A    between atoms: C_22  and  C_23
REMARK                            x       y       z     vdW  Elec       q    Type
REMARK                         _______ _______ _______ _____ _____    ______ ____
ROOT
ATOM      1  C   UNL     1      47.614   7.729  13.855  0.00  0.00    +0.000 C 
ENDROOT
BRANCH   1   2
ATOM      2  C   UNL     1      46.586   6.902  13.106  0.00  0.00    +0.000 A 
ATOM      3  C   UNL     1      45.737   7.508  12.165  0.00  0.00    +0.000 A 
ATOM      4  C   UNL     1      44.862   6.732  11.399  0.00  0.00    +0.000 A 
ATOM      5  C   UNL     1      44.830   5.349  11.566  0.00  0.00    +0.000 A 
ATOM      6  C   UNL     1      45.588   4.758  12.573  0.00  0.00    +0.000 A 
ATOM      7  C   UNL     1      46.458   5.528  13.335  0.00  0.00    +0.000 A 
BRANCH   5   8
ATOM      8  O   UNL     1      44.045   4.647  10.692  0.00  0.00    +0.000 OA
BRANCH   8   9
ATOM      9  C   UNL     1      44.392   3.260  10.590  0.00  0.00    +0.000 C 
BRANCH   9  10
ATOM     10  C   UNL     1      45.162   3.008   9.323  0.00  0.00    +0.000 A 
ATOM     11  C   UNL     1      45.431   4.065   8.453  0.00  0.00    +0.000 A 
ATOM     12  C   UNL     1      46.184   3.815   7.312  0.00  0.00    +0.000 A 
ATOM     13  C   UNL     1      46.650   2.528   7.076  0.00  0.00    +0.000 A 
ATOM     14  C   UNL     1      46.349   1.537   7.998  0.00  0.00    +0.000 A 
ATOM     15  N   UNL     1      45.625   1.750   9.116  0.00  0.00    +0.000 NA
ENDBRANCH   9  10
ENDBRANCH   8   9
ENDBRANCH   5   8
ENDBRANCH   1   2
BRANCH   1  16
ATOM     16  N   UNL     1      48.204   6.903  14.893  0.00  0.00    +0.000 N 
ATOM     17  C   UNL     1      48.818   7.465  15.988  0.00  0.00    +0.000 C 
ATOM     18  O   UNL     1      48.910   8.674  16.152  0.00  0.00    +0.000 OA
ATOM     19  H   UNL     1      48.262   5.908  14.737  0.00  0.00    +0.000 HD
BRANCH  17  20
ATOM     20  C   UNL     1      49.295   6.508  16.984  0.00  0.00    +0.000 A 
ATOM     21  C   UNL     1      50.286   5.570  16.743  0.00  0.00    +0.000 A 
ATOM     22  S   UNL     1      50.479   4.457  18.027  0.00  0.00    +0.000 S 
ATOM     23  C   UNL     1      49.247   5.204  18.935  0.00  0.00    +0.000 A 
ATOM     24  N   UNL     1      48.847   4.704  20.135  0.00  0.00    +0.000 NA
ATOM     25  C   UNL     1      47.888   5.369  20.691  0.00  0.00    +0.000 A 
ATOM     26  N   UNL     1      47.319   6.507  20.174  0.00  0.00    +0.000 N 
ATOM     27  C   UNL     1      47.773   7.114  19.025  0.00  0.00    +0.000 A 
ATOM     28  O   UNL     1      47.425   8.252  18.729  0.00  0.00    +0.000 OA
ATOM     29  C   UNL     1      48.753   6.327  18.302  0.00  0.00    +0.000 A 
ATOM     30  H   UNL     1      46.638   7.030  20.705  0.00  0.00    +0.000 HD
ENDBRANCH  17  20
ENDBRANCH   1  16
BRANCH   1  32
ATOM     31  C   UNL     1      49.493   7.298  12.159  0.00  0.00    +0.000 C 
ATOM     32  C   UNL     1      48.715   8.340  12.957  0.00  0.00    +0.000 C 
ENDBRANCH   1  32
TORSDOF 7
ENDMDL
MODEL 9
REMARK VINA RESULT:    -6.283      1.614      2.360
REMARK INTER + INTRA:         -10.330
REMARK INTER:                  -9.125
REMARK INTRA:                  -1.205
REMARK UNBOUND:                -1.475
REMARK  Name = 
REMARK  8 active torsions:
REMARK  status: ('A' for Active; 'I' for Inactive)
REMARK    1  A    between atoms: C_1  and  C_2
REMARK    2  A    between atoms: C_2  and  C_3
REMARK    3  A    between atoms: C_3  and  N_4
REMARK    4  A    between atoms: C_3  and  C_17
REMARK    5  A    between atoms: C_5  and  C_7
REMARK    6  A    between atoms: C_20  and  O_21
REMARK    7  A    between atoms: O_21  and  C_22
REMARK    8  A    between atoms: C_22  and  C_23
REMARK                            x       y       z     vdW  Elec       q    Type
REMARK                         _______ _______ _______ _____ _____    ______ ____
ROOT
ATOM      1  C   UNL     1      48.818   8.555  14.469  0.00  0.00    +0.000 C 
ENDROOT
BRANCH   1   2
ATOM      2  C   UNL     1      47.750   7.916  13.599  0.00  0.00    +0.000 A 
ATOM      3  C   UNL     1      46.527   8.572  13.381  0.00  0.00    +0.000 A 
ATOM      4  C   UNL     1      45.587   8.035  12.498  0.00  0.00    +0.000 A 
ATOM      5  C   UNL     1      45.860   6.845  11.826  0.00  0.00    +0.000 A 
ATOM      6  C   UNL     1      47.022   6.137  12.124  0.00  0.00    +0.000 A 
ATOM      7  C   UNL     1      47.958   6.669  13.002  0.00  0.00    +0.000 A 
BRANCH   5   8
ATOM      8  O   UNL     1      44.950   6.453  10.883  0.00  0.00    +0.000 OA
BRANCH   8   9
ATOM      9  C   UNL     1      44.478   5.111  11.058  0.00  0.00    +0.000 C 
BRANCH   9  10
ATOM     10  C   UNL     1      44.988   4.232   9.947  0.00  0.00    +0.000 A 
ATOM     11  C   UNL     1      44.768   2.856   9.996  0.00  0.00    +0.000 A 
ATOM     12  C   UNL     1      45.209   2.072   8.936  0.00  0.00    +0.000 A 
ATOM     13  C   UNL     1      45.846   2.681   7.862  0.00  0.00    +0.000 A 
ATOM     14  C   UNL     1      46.013   4.056   7.887  0.00  0.00    +0.000 A 
ATOM     15  N   UNL     1      45.592   4.844   8.898  0.00  0.00    +0.000 NA
ENDBRANCH   9  10
ENDBRANCH   8   9
ENDBRANCH   5   8
ENDBRANCH   1   2
BRANCH   1  16
ATOM     16  N   UNL     1      49.516   7.506  15.189  0.00  0.00    +0.000 N 
ATOM     17  C   UNL     1      49.266   7.265  16.520  0.00  0.00    +0.000 C 
ATOM     18  O   UNL     1      48.457   7.912  17.172  0.00  0.00    +0.000 OA
ATOM     19  H   UNL     1      50.278   7.034  14.725  0.00  0.00    +0.000 HD
BRANCH  17  20
ATOM     20  C   UNL     1      49.989   6.129  17.086  0.00  0.00    +0.000 A 
ATOM     21  C   UNL     1      51.256   6.217  17.640  0.00  0.00    +0.000 A 
ATOM     22  S   UNL     1      51.923   4.690  18.026  0.00  0.00    +0.000 S 
ATOM     23  C   UNL     1      50.535   3.878  17.465  0.00  0.00    +0.000 A 
ATOM     24  N   UNL     1      50.468   2.520  17.444  0.00  0.00    +0.000 NA
ATOM     25  C   UNL     1      49.359   2.054  16.971  0.00  0.00    +0.000 A 
ATOM     26  N   UNL     1      48.299   2.821  16.552  0.00  0.00    +0.000 N 
ATOM     27  C   UNL     1      48.279   4.193  16.667  0.00  0.00    +0.000 A 
ATOM     28  O   UNL     1      47.237   4.825  16.529  0.00  0.00    +0.000 OA
ATOM     29  C   UNL     1      49.552   4.761  17.064  0.00  0.00    +0.000 A 
ATOM     30  H   UNL     1      47.428   2.391  16.281  0.00  0.00    +0.000 HD
ENDBRANCH  17  20
ENDBRANCH   1  16
BRANCH   1  32
ATOM     31  C   UNL     1      49.171  10.657  13.038  0.00  0.00    +0.000 C 
ATOM     32  C   UNL     1      49.820   9.443  13.697  0.00  0.00    +0.000 C 
ENDBRANCH   1  32
TORSDOF 7
ENDMDL
