MODEL 1
REMARK VINA RESULT:    -7.800      0.000      0.000
REMARK INTER + INTRA:         -11.964
REMARK INTER:                 -10.993
REMARK INTRA:                  -0.971
REMARK UNBOUND:                -0.971
REMARK  Name = 
REMARK  7 active torsions:
REMARK  status: ('A' for Active; 'I' for Inactive)
REMARK    1  A    between atoms: C_2  and  C_3
REMARK    2  A    between atoms: C_4  and  C_5
REMARK    3  A    between atoms: C_9  and  C_10
REMARK    4  A    between atoms: C_10  and  C_11
REMARK    5  A    between atoms: C_11  and  N_12
REMARK    6  A    between atoms: N_12  and  C_13
REMARK    7  A    between atoms: C_16  and  C_17
REMARK                            x       y       z     vdW  Elec       q    Type
REMARK                         _______ _______ _______ _____ _____    ______ ____
ROOT
ATOM      1  N   UNL     1      43.764   4.706  10.248  0.00  0.00    +0.000 N 
ATOM      2  H   UNL     1      44.018   5.679  10.385  0.00  0.00    +0.000 HD
ENDROOT
BRANCH   1   3
ATOM      3  C   UNL     1      44.596   3.993   9.380  0.00  0.00    +0.000 A 
ATOM      4  C   UNL     1      45.458   4.617   8.471  0.00  0.00    +0.000 A 
ATOM      5  C   UNL     1      46.348   3.883   7.676  0.00  0.00    +0.000 A 
ATOM      6  C   UNL     1      46.422   2.494   7.795  0.00  0.00    +0.000 A 
ATOM      7  C   UNL     1      45.585   1.847   8.706  0.00  0.00    +0.000 A 
ATOM      8  C   UNL     1      44.687   2.595   9.493  0.00  0.00    +0.000 A 
BRANCH   6   9
ATOM      9  C   UNL     1      47.383   1.778   6.917  0.00  0.00    +0.000 C 
ATOM     10  N   UNL     1      48.469   2.469   6.458  0.00  0.00    +0.000 N 
ATOM     11  O   UNL     1      47.197   0.614   6.581  0.00  0.00    +0.000 OA
ATOM     12  H   UNL     1      48.580   3.466   6.556  0.00  0.00    +0.000 HD
ATOM     13  H   UNL     1      49.055   1.987   5.787  0.00  0.00    +0.000 HD
ENDBRANCH   6   9
ENDBRANCH   1   3
BRANCH   1  14
ATOM     14  C   UNL     1      43.114   4.024  11.373  0.00  0.00    +0.000 C 
BRANCH  14  15
ATOM     15  C   UNL     1      43.254   4.801  12.684  0.00  0.00    +0.000 C 
BRANCH  15  20
ATOM     16  C   UNL     1      46.101   7.170  12.715  0.00  0.00    +0.000 A 
ATOM     17  C   UNL     1      47.177   6.407  13.160  0.00  0.00    +0.000 A 
ATOM     18  C   UNL     1      46.967   5.069  13.450  0.00  0.00    +0.000 A 
ATOM     19  C   UNL     1      45.692   4.524  13.301  0.00  0.00    +0.000 A 
ATOM     20  C   UNL     1      44.657   5.341  12.860  0.00  0.00    +0.000 A 
ATOM     21  N   UNL     1      44.852   6.652  12.577  0.00  0.00    +0.000 NA
BRANCH  16  23
ATOM     22  C   UNL     1      45.243   9.418  12.244  0.00  0.00    +0.000 C 
ATOM     23  C   UNL     1      46.284   8.579  12.352  0.00  0.00    +0.000 C 
BRANCH  22  25
ATOM     24  N   UNL     1      45.519  12.070  11.454  0.00  0.00    +0.000 NA
ATOM     25  C   UNL     1      45.395  10.868  11.813  0.00  0.00    +0.000 C 
ENDBRANCH  22  25
ENDBRANCH  16  23
ENDBRANCH  15  20
ENDBRANCH  14  15
ENDBRANCH   1  14
TORSDOF 7
ENDMDL
MODEL 2
REMARK VINA RESULT:    -7.624      2.270      3.917
REMARK INTER + INTRA:         -11.715
REMARK INTER:                 -10.898
REMARK INTRA:                  -0.817
REMARK UNBOUND:                -0.971
REMARK  Name = 
REMARK  7 active torsions:
REMARK  status: ('A' for Active; 'I' for Inactive)
REMARK    1  A    between atoms: C_2  and  C_3
REMARK    2  A    between atoms: C_4  and  C_5
REMARK    3  A    between atoms: C_9  and  C_10
REMARK    4  A    between atoms: C_10  and  C_11
REMARK    5  A    between atoms: C_11  and  N_12
REMARK    6  A    between atoms: N_12  and  C_13
REMARK    7  A    between atoms: C_16  and  C_17
REMARK                            x       y       z     vdW  Elec       q    Type
REMARK                         _______ _______ _______ _____ _____    ______ ____
ROOT
ATOM      1  N   UNL     1      43.592   3.595  10.655  0.00  0.00    +0.000 N 
ATOM      2  H   UNL     1      42.892   2.882  10.835  0.00  0.00    +0.000 HD
ENDROOT
BRANCH   1   3
ATOM      3  C   UNL     1      44.469   3.313   9.604  0.00  0.00    +0.000 A 
ATOM      4  C   UNL     1      45.077   4.311   8.834  0.00  0.00    +0.000 A 
ATOM      5  C   UNL     1      46.022   4.007   7.845  0.00  0.00    +0.000 A 
ATOM      6  C   UNL     1      46.411   2.685   7.623  0.00  0.00    +0.000 A 
ATOM      7  C   UNL     1      45.834   1.671   8.388  0.00  0.00    +0.000 A 
ATOM      8  C   UNL     1      44.876   1.987   9.373  0.00  0.00    +0.000 A 
BRANCH   6   9
ATOM      9  C   UNL     1      47.413   2.433   6.555  0.00  0.00    +0.000 C 
ATOM     10  N   UNL     1      47.319   3.163   5.403  0.00  0.00    +0.000 N 
ATOM     11  O   UNL     1      48.279   1.575   6.680  0.00  0.00    +0.000 OA
ATOM     12  H   UNL     1      46.531   3.751   5.176  0.00  0.00    +0.000 HD
ATOM     13  H   UNL     1      47.953   2.905   4.657  0.00  0.00    +0.000 HD
ENDBRANCH   6   9
ENDBRANCH   1   3
BRANCH   1  14
ATOM     14  C   UNL     1      43.218   4.983  10.952  0.00  0.00    +0.000 C 
BRANCH  14  15
ATOM     15  C   UNL     1      43.459   5.349  12.418  0.00  0.00    +0.000 C 
BRANCH  15  20
ATOM     16  C   UNL     1      46.769   4.839  13.999  0.00  0.00    +0.000 A 
ATOM     17  C   UNL     1      47.614   5.710  13.315  0.00  0.00    +0.000 A 
ATOM     18  C   UNL     1      47.080   6.497  12.309  0.00  0.00    +0.000 A 
ATOM     19  C   UNL     1      45.725   6.395  11.999  0.00  0.00    +0.000 A 
ATOM     20  C   UNL     1      44.935   5.502  12.715  0.00  0.00    +0.000 A 
ATOM     21  N   UNL     1      45.449   4.724  13.699  0.00  0.00    +0.000 NA
BRANCH  16  23
ATOM     22  C   UNL     1      47.328   4.482  16.359  0.00  0.00    +0.000 C 
ATOM     23  C   UNL     1      47.278   4.018  15.103  0.00  0.00    +0.000 C 
BRANCH  22  25
ATOM     24  N   UNL     1      48.382   3.011  18.471  0.00  0.00    +0.000 NA
ATOM     25  C   UNL     1      47.904   3.678  17.513  0.00  0.00    +0.000 C 
ENDBRANCH  22  25
ENDBRANCH  16  23
ENDBRANCH  15  20
ENDBRANCH  14  15
ENDBRANCH   1  14
TORSDOF 7
ENDMDL
MODEL 3
REMARK VINA RESULT:    -7.070      1.425      1.811
REMARK INTER + INTRA:         -10.935
REMARK INTER:                 -10.181
REMARK INTRA:                  -0.754
REMARK UNBOUND:                -0.971
REMARK  Name = 
REMARK  7 active torsions:
REMARK  status: ('A' for Active; 'I' for Inactive)
REMARK    1  A    between atoms: C_2  and  C_3
REMARK    2  A    between atoms: C_4  and  C_5
REMARK    3  A    between atoms: C_9  and  C_10
REMARK    4  A    between atoms: C_10  and  C_11
REMARK    5  A    between atoms: C_11  and  N_12
REMARK    6  A    between atoms: N_12  and  C_13
REMARK    7  A    between atoms: C_16  and  C_17
REMARK                            x       y       z     vdW  Elec       q    Type
REMARK                         _______ _______ _______ _____ _____    ______ ____
ROOT
ATOM      1  N   UNL     1      43.642   4.675   9.920  0.00  0.00    +0.000 N 
ATOM      2  H   UNL     1      42.880   5.010   9.338  0.00  0.00    +0.000 HD
ENDROOT
BRANCH   1   3
ATOM      3  C   UNL     1      44.630   3.954   9.243  0.00  0.00    +0.000 A 
ATOM      4  C   UNL     1      44.692   2.556   9.254  0.00  0.00    +0.000 A 
ATOM      5  C   UNL     1      45.637   1.853   8.496  0.00  0.00    +0.000 A 
ATOM      6  C   UNL     1      46.532   2.538   7.672  0.00  0.00    +0.000 A 
ATOM      7  C   UNL     1      46.482   3.932   7.628  0.00  0.00    +0.000 A 
ATOM      8  C   UNL     1      45.534   4.629   8.404  0.00  0.00    +0.000 A 
BRANCH   6   9
ATOM      9  C   UNL     1      47.512   1.731   6.900  0.00  0.00    +0.000 C 
ATOM     10  N   UNL     1      48.589   2.377   6.359  0.00  0.00    +0.000 N 
ATOM     11  O   UNL     1      47.351   0.530   6.719  0.00  0.00    +0.000 OA
ATOM     12  H   UNL     1      48.681   3.381   6.326  0.00  0.00    +0.000 HD
ATOM     13  H   UNL     1      49.188   1.823   5.760  0.00  0.00    +0.000 HD
ENDBRANCH   6   9
ENDBRANCH   1   3
BRANCH   1  14
ATOM     14  C   UNL     1      43.992   5.488  11.091  0.00  0.00    +0.000 C 
BRANCH  14  15
ATOM     15  C   UNL     1      44.450   4.633  12.275  0.00  0.00    +0.000 C 
BRANCH  15  20
ATOM     16  C   UNL     1      47.490   6.695  12.749  0.00  0.00    +0.000 A 
ATOM     17  C   UNL     1      48.044   6.222  13.935  0.00  0.00    +0.000 A 
ATOM     18  C   UNL     1      47.406   5.187  14.598  0.00  0.00    +0.000 A 
ATOM     19  C   UNL     1      46.230   4.653  14.073  0.00  0.00    +0.000 A 
ATOM     20  C   UNL     1      45.725   5.174  12.887  0.00  0.00    +0.000 A 
ATOM     21  N   UNL     1      46.338   6.189  12.233  0.00  0.00    +0.000 NA
BRANCH  16  23
ATOM     22  C   UNL     1      47.811   9.047  12.136  0.00  0.00    +0.000 C 
ATOM     23  C   UNL     1      48.153   7.759  11.987  0.00  0.00    +0.000 C 
BRANCH  22  25
ATOM     24  N   UNL     1      48.959  11.094  10.644  0.00  0.00    +0.000 NA
ATOM     25  C   UNL     1      48.438  10.165  11.320  0.00  0.00    +0.000 C 
ENDBRANCH  22  25
ENDBRANCH  16  23
ENDBRANCH  15  20
ENDBRANCH  14  15
ENDBRANCH   1  14
TORSDOF 7
ENDMDL
MODEL 4
REMARK VINA RESULT:    -6.416      3.079      7.039
REMARK INTER + INTRA:         -10.014
REMARK INTER:                  -8.878
REMARK INTRA:                  -1.136
REMARK UNBOUND:                -0.971
REMARK  Name = 
REMARK  7 active torsions:
REMARK  status: ('A' for Active; 'I' for Inactive)
REMARK    1  A    between atoms: C_2  and  C_3
REMARK    2  A    between atoms: C_4  and  C_5
REMARK    3  A    between atoms: C_9  and  C_10
REMARK    4  A    between atoms: C_10  and  C_11
REMARK    5  A    between atoms: C_11  and  N_12
REMARK    6  A    between atoms: N_12  and  C_13
REMARK    7  A    between atoms: C_16  and  C_17
REMARK                            x       y       z     vdW  Elec       q    Type
REMARK                         _______ _______ _______ _____ _____    ______ ____
ROOT
ATOM      1  N   UNL     1      46.416   6.492  12.368  0.00  0.00    +0.000 N 
ATOM      2  H   UNL     1      47.145   6.961  11.840  0.00  0.00    +0.000 HD
ENDROOT
BRANCH   1   3
ATOM      3  C   UNL     1      46.871   5.637  13.376  0.00  0.00    +0.000 A 
ATOM      4  C   UNL     1      47.602   6.088  14.481  0.00  0.00    +0.000 A 
ATOM      5  C   UNL     1      47.968   5.228  15.525  0.00  0.00    +0.000 A 
ATOM      6  C   UNL     1      47.578   3.888  15.504  0.00  0.00    +0.000 A 
ATOM      7  C   UNL     1      46.834   3.415  14.423  0.00  0.00    +0.000 A 
ATOM      8  C   UNL     1      46.481   4.287  13.373  0.00  0.00    +0.000 A 
BRANCH   6   9
ATOM      9  C   UNL     1      48.006   3.029  16.639  0.00  0.00    +0.000 C 
ATOM     10  N   UNL     1      47.115   2.818  17.653  0.00  0.00    +0.000 N 
ATOM     11  O   UNL     1      49.132   2.549  16.689  0.00  0.00    +0.000 OA
ATOM     12  H   UNL     1      46.247   3.323  17.751  0.00  0.00    +0.000 HD
ATOM     13  H   UNL     1      47.463   2.309  18.457  0.00  0.00    +0.000 HD
ENDBRANCH   6   9
ENDBRANCH   1   3
BRANCH   1  14
ATOM     14  C   UNL     1      45.145   7.208  12.525  0.00  0.00    +0.000 C 
BRANCH  14  15
ATOM     15  C   UNL     1      44.186   6.954  11.359  0.00  0.00    +0.000 C 
BRANCH  15  20
ATOM     16  C   UNL     1      44.833   3.740   9.636  0.00  0.00    +0.000 A 
ATOM     17  C   UNL     1      44.047   2.818  10.323  0.00  0.00    +0.000 A 
ATOM     18  C   UNL     1      43.271   3.265  11.379  0.00  0.00    +0.000 A 
ATOM     19  C   UNL     1      43.302   4.613  11.735  0.00  0.00    +0.000 A 
ATOM     20  C   UNL     1      44.113   5.482  11.013  0.00  0.00    +0.000 A 
ATOM     21  N   UNL     1      44.879   5.054   9.981  0.00  0.00    +0.000 NA
BRANCH  16  23
ATOM     22  C   UNL     1      46.142   2.085   8.388  0.00  0.00    +0.000 C 
ATOM     23  C   UNL     1      45.637   3.323   8.482  0.00  0.00    +0.000 C 
BRANCH  22  25
ATOM     24  N   UNL     1      47.759   1.272   6.276  0.00  0.00    +0.000 NA
ATOM     25  C   UNL     1      47.026   1.640   7.234  0.00  0.00    +0.000 C 
ENDBRANCH  22  25
ENDBRANCH  16  23
ENDBRANCH  15  20
ENDBRANCH  14  15
ENDBRANCH   1  14
TORSDOF 7
ENDMDL
MODEL 5
REMARK VINA RESULT:    -6.292      4.811      7.324
REMARK INTER + INTRA:          -9.839
REMARK INTER:                  -9.144
REMARK INTRA:                  -0.695
REMARK UNBOUND:                -0.971
REMARK  Name = 
REMARK  7 active torsions:
REMARK  status: ('A' for Active; 'I' for Inactive)
REMARK    1  A    between atoms: C_2  and  C_3
REMARK    2  A    between atoms: C_4  and  C_5
REMARK    3  A    between atoms: C_9  and  C_10
REMARK    4  A    between atoms: C_10  and  C_11
REMARK    5  A    between atoms: C_11  and  N_12
REMARK    6  A    between atoms: N_12  and  C_13
REMARK    7  A    between atoms: C_16  and  C_17
REMARK                            x       y       z     vdW  Elec       q    Type
REMARK                         _______ _______ _______ _____ _____    ______ ____
ROOT
ATOM      1  N   UNL     1      47.232   7.067  13.925  0.00  0.00    +0.000 N 
ATOM      2  H   UNL     1      47.057   8.063  13.842  0.00  0.00    +0.000 HD
ENDROOT
BRANCH   1   3
ATOM      3  C   UNL     1      46.539   6.265  13.014  0.00  0.00    +0.000 A 
ATOM      4  C   UNL     1      45.789   5.149  13.403  0.00  0.00    +0.000 A 
ATOM      5  C   UNL     1      45.029   4.414  12.484  0.00  0.00    +0.000 A 
ATOM      6  C   UNL     1      44.973   4.801  11.144  0.00  0.00    +0.000 A 
ATOM      7  C   UNL     1      45.697   5.921  10.732  0.00  0.00    +0.000 A 
ATOM      8  C   UNL     1      46.467   6.646  11.664  0.00  0.00    +0.000 A 
BRANCH   6   9
ATOM      9  C   UNL     1      44.154   3.974  10.221  0.00  0.00    +0.000 C 
ATOM     10  N   UNL     1      44.112   4.334   8.904  0.00  0.00    +0.000 N 
ATOM     11  O   UNL     1      43.505   3.016  10.626  0.00  0.00    +0.000 OA
ATOM     12  H   UNL     1      44.479   5.204   8.549  0.00  0.00    +0.000 HD
ATOM     13  H   UNL     1      43.473   3.812   8.317  0.00  0.00    +0.000 HD
ENDBRANCH   6   9
ENDBRANCH   1   3
BRANCH   1  14
ATOM     14  C   UNL     1      48.560   6.663  14.402  0.00  0.00    +0.000 C 
BRANCH  14  15
ATOM     15  C   UNL     1      48.659   6.680  15.930  0.00  0.00    +0.000 C 
BRANCH  15  20
ATOM     16  C   UNL     1      49.670   3.431  17.393  0.00  0.00    +0.000 A 
ATOM     17  C   UNL     1      48.471   2.746  17.570  0.00  0.00    +0.000 A 
ATOM     18  C   UNL     1      47.292   3.364  17.189  0.00  0.00    +0.000 A 
ATOM     19  C   UNL     1      47.331   4.650  16.650  0.00  0.00    +0.000 A 
ATOM     20  C   UNL     1      48.560   5.283  16.506  0.00  0.00    +0.000 A 
ATOM     21  N   UNL     1      49.719   4.689  16.879  0.00  0.00    +0.000 NA
BRANCH  16  23
ATOM     22  C   UNL     1      51.219   1.531  17.407  0.00  0.00    +0.000 C 
ATOM     23  C   UNL     1      50.948   2.801  17.740  0.00  0.00    +0.000 C 
BRANCH  22  25
ATOM     24  N   UNL     1      53.579   0.252  18.132  0.00  0.00    +0.000 NA
ATOM     25  C   UNL     1      52.509   0.832  17.802  0.00  0.00    +0.000 C 
ENDBRANCH  22  25
ENDBRANCH  16  23
ENDBRANCH  15  20
ENDBRANCH  14  15
ENDBRANCH   1  14
TORSDOF 7
ENDMDL
MODEL 6
REMARK VINA RESULT:    -6.111      1.833      2.699
REMARK INTER + INTRA:          -9.584
REMARK INTER:                  -9.101
REMARK INTRA:                  -0.483
REMARK UNBOUND:                -0.971
REMARK  Name = 
REMARK  7 active torsions:
REMARK  status: ('A' for Active; 'I' for Inactive)
REMARK    1  A    between atoms: C_2  and  C_3
REMARK    2  A    between atoms: C_4  and  C_5
REMARK    3  A    between atoms: C_9  and  C_10
REMARK    4  A    between atoms: C_10  and  C_11
REMARK    5  A    between atoms: C_11  and  N_12
REMARK    6  A    between atoms: N_12  and  C_13
REMARK    7  A    between atoms: C_16  and  C_17
REMARK                            x       y       z     vdW  Elec       q    Type
REMARK                         _______ _______ _______ _____ _____    ______ ____
ROOT
ATOM      1  N   UNL     1      44.388   4.972  10.215  0.00  0.00    +0.000 N 
ATOM      2  H   UNL     1      43.678   5.573   9.811  0.00  0.00    +0.000 HD
ENDROOT
BRANCH   1   3
ATOM      3  C   UNL     1      45.040   4.131   9.308  0.00  0.00    +0.000 A 
ATOM      4  C   UNL     1      45.902   4.609   8.314  0.00  0.00    +0.000 A 
ATOM      5  C   UNL     1      46.614   3.743   7.476  0.00  0.00    +0.000 A 
ATOM      6  C   UNL     1      46.507   2.360   7.634  0.00  0.00    +0.000 A 
ATOM      7  C   UNL     1      45.669   1.855   8.629  0.00  0.00    +0.000 A 
ATOM      8  C   UNL     1      44.948   2.737   9.460  0.00  0.00    +0.000 A 
BRANCH   6   9
ATOM      9  C   UNL     1      47.285   1.498   6.707  0.00  0.00    +0.000 C 
ATOM     10  N   UNL     1      48.288   2.079   5.983  0.00  0.00    +0.000 N 
ATOM     11  O   UNL     1      47.021   0.310   6.564  0.00  0.00    +0.000 OA
ATOM     12  H   UNL     1      48.435   3.075   5.928  0.00  0.00    +0.000 HD
ATOM     13  H   UNL     1      48.738   1.492   5.291  0.00  0.00    +0.000 HD
ENDBRANCH   6   9
ENDBRANCH   1   3
BRANCH   1  14
ATOM     14  C   UNL     1      45.103   5.484  11.390  0.00  0.00    +0.000 C 
BRANCH  14  15
ATOM     15  C   UNL     1      44.298   6.548  12.141  0.00  0.00    +0.000 C 
BRANCH  15  20
ATOM     16  C   UNL     1      44.927  10.078  11.213  0.00  0.00    +0.000 A 
ATOM     17  C   UNL     1      46.109  10.402  11.873  0.00  0.00    +0.000 A 
ATOM     18  C   UNL     1      46.728   9.428  12.640  0.00  0.00    +0.000 A 
ATOM     19  C   UNL     1      46.153   8.162  12.741  0.00  0.00    +0.000 A 
ATOM     20  C   UNL     1      44.967   7.905  12.063  0.00  0.00    +0.000 A 
ATOM     21  N   UNL     1      44.352   8.851  11.314  0.00  0.00    +0.000 NA
BRANCH  16  23
ATOM     22  C   UNL     1      42.943  11.000  10.105  0.00  0.00    +0.000 C 
ATOM     23  C   UNL     1      44.259  11.061  10.353  0.00  0.00    +0.000 C 
BRANCH  22  25
ATOM     24  N   UNL     1      41.645  12.770   8.398  0.00  0.00    +0.000 NA
ATOM     25  C   UNL     1      42.234  11.967   9.173  0.00  0.00    +0.000 C 
ENDBRANCH  22  25
ENDBRANCH  16  23
ENDBRANCH  15  20
ENDBRANCH  14  15
ENDBRANCH   1  14
TORSDOF 7
ENDMDL
MODEL 7
REMARK VINA RESULT:    -5.995      3.558      7.150
REMARK INTER + INTRA:          -9.419
REMARK INTER:                  -8.604
REMARK INTRA:                  -0.815
REMARK UNBOUND:                -0.971
REMARK  Name = 
REMARK  7 active torsions:
REMARK  status: ('A' for Active; 'I' for Inactive)
REMARK    1  A    between atoms: C_2  and  C_3
REMARK    2  A    between atoms: C_4  and  C_5
REMARK    3  A    between atoms: C_9  and  C_10
REMARK    4  A    between atoms: C_10  and  C_11
REMARK    5  A    between atoms: C_11  and  N_12
REMARK    6  A    between atoms: N_12  and  C_13
REMARK    7  A    between atoms: C_16  and  C_17
REMARK                            x       y       z     vdW  Elec       q    Type
REMARK                         _______ _______ _______ _____ _____    ______ ____
ROOT
ATOM      1  N   UNL     1      46.283   5.876  12.718  0.00  0.00    +0.000 N 
ATOM      2  H   UNL     1      46.253   5.003  12.202  0.00  0.00    +0.000 HD
ENDROOT
BRANCH   1   3
ATOM      3  C   UNL     1      47.532   6.503  12.750  0.00  0.00    +0.000 A 
ATOM      4  C   UNL     1      48.051   7.218  11.664  0.00  0.00    +0.000 A 
ATOM      5  C   UNL     1      49.264   7.914  11.751  0.00  0.00    +0.000 A 
ATOM      6  C   UNL     1      49.979   7.939  12.949  0.00  0.00    +0.000 A 
ATOM      7  C   UNL     1      49.476   7.250  14.053  0.00  0.00    +0.000 A 
ATOM      8  C   UNL     1      48.261   6.544  13.951  0.00  0.00    +0.000 A 
BRANCH   6   9
ATOM      9  C   UNL     1      51.261   8.691  12.970  0.00  0.00    +0.000 C 
ATOM     10  N   UNL     1      52.320   8.170  12.282  0.00  0.00    +0.000 N 
ATOM     11  O   UNL     1      51.384   9.729  13.610  0.00  0.00    +0.000 OA
ATOM     12  H   UNL     1      52.329   7.241  11.887  0.00  0.00    +0.000 HD
ATOM     13  H   UNL     1      53.205   8.650  12.390  0.00  0.00    +0.000 HD
ENDBRANCH   6   9
ENDBRANCH   1   3
BRANCH   1  14
ATOM     14  C   UNL     1      45.054   6.679  12.738  0.00  0.00    +0.000 C 
BRANCH  14  15
ATOM     15  C   UNL     1      44.249   6.542  11.444  0.00  0.00    +0.000 C 
BRANCH  15  20
ATOM     16  C   UNL     1      45.098   3.575   9.397  0.00  0.00    +0.000 A 
ATOM     17  C   UNL     1      44.340   2.547   9.952  0.00  0.00    +0.000 A 
ATOM     18  C   UNL     1      43.515   2.836  11.026  0.00  0.00    +0.000 A 
ATOM     19  C   UNL     1      43.470   4.135  11.530  0.00  0.00    +0.000 A 
ATOM     20  C   UNL     1      44.257   5.116  10.935  0.00  0.00    +0.000 A 
ATOM     21  N   UNL     1      45.070   4.842   9.887  0.00  0.00    +0.000 NA
BRANCH  16  23
ATOM     22  C   UNL     1      46.441   2.108   7.964  0.00  0.00    +0.000 C 
ATOM     23  C   UNL     1      45.952   3.327   8.230  0.00  0.00    +0.000 C 
BRANCH  22  25
ATOM     24  N   UNL     1      48.151   1.602   5.830  0.00  0.00    +0.000 NA
ATOM     25  C   UNL     1      47.375   1.831   6.797  0.00  0.00    +0.000 C 
ENDBRANCH  22  25
ENDBRANCH  16  23
ENDBRANCH  15  20
ENDBRANCH  14  15
ENDBRANCH   1  14
TORSDOF 7
ENDMDL
MODEL 8
REMARK VINA RESULT:    -5.787      2.840      7.293
REMARK INTER + INTRA:          -9.126
REMARK INTER:                  -8.319
REMARK INTRA:                  -0.807
REMARK UNBOUND:                -0.971
REMARK  Name = 
REMARK  7 active torsions:
REMARK  status: ('A' for Active; 'I' for Inactive)
REMARK    1  A    between atoms: C_2  and  C_3
REMARK    2  A    between atoms: C_4  and  C_5
REMARK    3  A    between atoms: C_9  and  C_10
REMARK    4  A    between atoms: C_10  and  C_11
REMARK    5  A    between atoms: C_11  and  N_12
REMARK    6  A    between atoms: N_12  and  C_13
REMARK    7  A    between atoms: C_16  and  C_17
REMARK                            x       y       z     vdW  Elec       q    Type
REMARK                         _______ _______ _______ _____ _____    ______ ____
ROOT
ATOM      1  N   UNL     1      47.324   7.106  14.009  0.00  0.00    +0.000 N 
ATOM      2  H   UNL     1      48.028   7.338  14.702  0.00  0.00    +0.000 HD
ENDROOT
BRANCH   1   3
ATOM      3  C   UNL     1      46.870   8.184  13.243  0.00  0.00    +0.000 A 
ATOM      4  C   UNL     1      45.520   8.374  12.924  0.00  0.00    +0.000 A 
ATOM      5  C   UNL     1      45.078   9.508  12.232  0.00  0.00    +0.000 A 
ATOM      6  C   UNL     1      45.980  10.509  11.868  0.00  0.00    +0.000 A 
ATOM      7  C   UNL     1      47.330  10.355  12.188  0.00  0.00    +0.000 A 
ATOM      8  C   UNL     1      47.765   9.203  12.875  0.00  0.00    +0.000 A 
BRANCH   6   9
ATOM      9  C   UNL     1      45.445  11.684  11.130  0.00  0.00    +0.000 C 
ATOM     10  N   UNL     1      44.678  12.579  11.822  0.00  0.00    +0.000 N 
ATOM     11  O   UNL     1      45.651  11.834   9.932  0.00  0.00    +0.000 OA
ATOM     12  H   UNL     1      44.333  12.417  12.756  0.00  0.00    +0.000 HD
ATOM     13  H   UNL     1      44.249  13.316  11.276  0.00  0.00    +0.000 HD
ENDBRANCH   6   9
ENDBRANCH   1   3
BRANCH   1  14
ATOM     14  C   UNL     1      47.381   5.760  13.428  0.00  0.00    +0.000 C 
BRANCH  14  15
ATOM     15  C   UNL     1      46.159   4.915  13.797  0.00  0.00    +0.000 C 
BRANCH  15  20
ATOM     16  C   UNL     1      44.814   4.667  10.355  0.00  0.00    +0.000 A 
ATOM     17  C   UNL     1      43.433   4.710  10.523  0.00  0.00    +0.000 A 
ATOM     18  C   UNL     1      42.924   4.836  11.804  0.00  0.00    +0.000 A 
ATOM     19  C   UNL     1      43.797   4.904  12.889  0.00  0.00    +0.000 A 
ATOM     20  C   UNL     1      45.167   4.848  12.656  0.00  0.00    +0.000 A 
ATOM     21  N   UNL     1      45.674   4.722  11.406  0.00  0.00    +0.000 NA
BRANCH  16  23
ATOM     22  C   UNL     1      45.453   3.422   8.342  0.00  0.00    +0.000 C 
ATOM     23  C   UNL     1      45.402   4.581   9.014  0.00  0.00    +0.000 C 
BRANCH  22  25
ATOM     24  N   UNL     1      46.648   3.178   5.843  0.00  0.00    +0.000 NA
ATOM     25  C   UNL     1      46.106   3.288   6.977  0.00  0.00    +0.000 C 
ENDBRANCH  22  25
ENDBRANCH  16  23
ENDBRANCH  15  20
ENDBRANCH  14  15
ENDBRANCH   1  14
TORSDOF 7
ENDMDL
MODEL 9
REMARK VINA RESULT:    -5.756      3.382      5.943
REMARK INTER + INTRA:          -9.083
REMARK INTER:                  -7.995
REMARK INTRA:                  -1.087
REMARK UNBOUND:                -0.971
REMARK  Name = 
REMARK  7 active torsions:
REMARK  status: ('A' for Active; 'I' for Inactive)
REMARK    1  A    between atoms: C_2  and  C_3
REMARK    2  A    between atoms: C_4  and  C_5
REMARK    3  A    between atoms: C_9  and  C_10
REMARK    4  A    between atoms: C_10  and  C_11
REMARK    5  A    between atoms: C_11  and  N_12
REMARK    6  A    between atoms: N_12  and  C_13
REMARK    7  A    between atoms: C_16  and  C_17
REMARK                            x       y       z     vdW  Elec       q    Type
REMARK                         _______ _______ _______ _____ _____    ______ ____
ROOT
ATOM      1  N   UNL     1      46.134   7.892  13.281  0.00  0.00    +0.000 N 
ATOM      2  H   UNL     1      45.453   8.331  13.891  0.00  0.00    +0.000 HD
ENDROOT
BRANCH   1   3
ATOM      3  C   UNL     1      45.714   6.700  12.685  0.00  0.00    +0.000 A 
ATOM      4  C   UNL     1      45.928   5.444  13.264  0.00  0.00    +0.000 A 
ATOM      5  C   UNL     1      45.418   4.271  12.693  0.00  0.00    +0.000 A 
ATOM      6  C   UNL     1      44.645   4.329  11.533  0.00  0.00    +0.000 A 
ATOM      7  C   UNL     1      44.401   5.570  10.942  0.00  0.00    +0.000 A 
ATOM      8  C   UNL     1      44.928   6.742  11.520  0.00  0.00    +0.000 A 
BRANCH   6   9
ATOM      9  C   UNL     1      44.141   3.046  10.976  0.00  0.00    +0.000 C 
ATOM     10  N   UNL     1      44.909   2.407  10.044  0.00  0.00    +0.000 N 
ATOM     11  O   UNL     1      43.056   2.587  11.310  0.00  0.00    +0.000 OA
ATOM     12  H   UNL     1      45.718   2.821   9.606  0.00  0.00    +0.000 HD
ATOM     13  H   UNL     1      44.500   1.587   9.613  0.00  0.00    +0.000 HD
ENDBRANCH   6   9
ENDBRANCH   1   3
BRANCH   1  14
ATOM     14  C   UNL     1      47.067   8.780  12.577  0.00  0.00    +0.000 C 
BRANCH  14  15
ATOM     15  C   UNL     1      48.478   8.193  12.493  0.00  0.00    +0.000 C 
BRANCH  15  20
ATOM     16  C   UNL     1      49.238   6.815  15.846  0.00  0.00    +0.000 A 
ATOM     17  C   UNL     1      50.182   7.693  16.372  0.00  0.00    +0.000 A 
ATOM     18  C   UNL     1      50.576   8.779  15.608  0.00  0.00    +0.000 A 
ATOM     19  C   UNL     1      50.031   8.961  14.337  0.00  0.00    +0.000 A 
ATOM     20  C   UNL     1      49.098   8.044  13.866  0.00  0.00    +0.000 A 
ATOM     21  N   UNL     1      48.709   6.977  14.604  0.00  0.00    +0.000 NA
BRANCH  16  23
ATOM     22  C   UNL     1      47.835   4.829  16.155  0.00  0.00    +0.000 C 
ATOM     23  C   UNL     1      48.757   5.676  16.635  0.00  0.00    +0.000 C 
BRANCH  22  25
ATOM     24  N   UNL     1      46.806   2.718  17.645  0.00  0.00    +0.000 NA
ATOM     25  C   UNL     1      47.274   3.675  16.970  0.00  0.00    +0.000 C 
ENDBRANCH  22  25
ENDBRANCH  16  23
ENDBRANCH  15  20
ENDBRANCH  14  15
ENDBRANCH   1  14
TORSDOF 7
ENDMDL
