MODEL 1
REMARK VINA RESULT:    -7.647      0.000      0.000
REMARK INTER + INTRA:         -11.888
REMARK INTER:                 -10.552
REMARK INTRA:                  -1.335
REMARK UNBOUND:                -1.335
REMARK  Name = 
REMARK  8 active torsions:
REMARK  status: ('A' for Active; 'I' for Inactive)
REMARK    1  A    between atoms: C_1  and  C_2
REMARK    2  A    between atoms: C_2  and  N_3
REMARK    3  A    between atoms: C_2  and  C_16
REMARK    4  A    between atoms: C_4  and  C_6
REMARK    5  A    between atoms: C_19  and  C_20
REMARK    6  A    between atoms: C_20  and  C_21
REMARK    7  A    between atoms: C_26  and  C_27
REMARK    8  A    between atoms: C_27  and  O_28
REMARK                            x       y       z     vdW  Elec       q    Type
REMARK                         _______ _______ _______ _____ _____    ______ ____
ROOT
ATOM      1  C   UNL     1      49.832   7.884  11.936  0.00  0.00    +0.000 C 
ATOM      2  C   UNL     1      48.539   7.575  12.687  0.00  0.00    +0.000 C 
ENDROOT
BRANCH   2   3
ATOM      3  C   UNL     1      48.821   7.078  14.090  0.00  0.00    +0.000 A 
ATOM      4  C   UNL     1      47.951   6.169  14.701  0.00  0.00    +0.000 A 
ATOM      5  C   UNL     1      48.272   5.602  15.937  0.00  0.00    +0.000 A 
ATOM      6  C   UNL     1      49.477   5.923  16.584  0.00  0.00    +0.000 A 
ATOM      7  C   UNL     1      50.327   6.862  15.991  0.00  0.00    +0.000 A 
ATOM      8  C   UNL     1      49.993   7.449  14.771  0.00  0.00    +0.000 A 
BRANCH   6   9
ATOM      9  C   UNL     1      49.846   5.295  17.909  0.00  0.00    +0.000 C 
BRANCH   9  10
ATOM     10  C   UNL     1      50.865   4.169  17.848  0.00  0.00    +0.000 A 
ATOM     11  C   UNL     1      52.200   4.502  18.162  0.00  0.00    +0.000 A 
ATOM     12  C   UNL     1      53.223   3.558  18.090  0.00  0.00    +0.000 A 
ATOM     13  C   UNL     1      52.924   2.243  17.768  0.00  0.00    +0.000 A 
ATOM     14  C   UNL     1      51.607   1.883  17.485  0.00  0.00    +0.000 A 
ATOM     15  C   UNL     1      50.569   2.838  17.462  0.00  0.00    +0.000 A 
BRANCH  15  16
ATOM     16  C   UNL     1      49.190   2.377  17.043  0.00  0.00    +0.000 C 
BRANCH  16  17
ATOM     17  O   UNL     1      49.224   1.693  15.788  0.00  0.00    +0.000 OA
ATOM     18  H   UNL     1      48.987   0.767  15.971  0.00  0.00    +0.000 HD
ENDBRANCH  16  17
ENDBRANCH  15  16
ENDBRANCH   9  10
ENDBRANCH   6   9
ENDBRANCH   2   3
BRANCH   2  19
ATOM     19  N   UNL     1      47.743   6.585  11.986  0.00  0.00    +0.000 N 
ATOM     20  C   UNL     1      46.422   6.770  11.675  0.00  0.00    +0.000 C 
ATOM     21  O   UNL     1      45.826   7.811  11.918  0.00  0.00    +0.000 OA
ATOM     22  H   UNL     1      48.133   5.650  11.922  0.00  0.00    +0.000 HD
BRANCH  20  23
ATOM     23  C   UNL     1      45.779   5.662  10.949  0.00  0.00    +0.000 A 
ATOM     24  C   UNL     1      45.867   5.605   9.565  0.00  0.00    +0.000 A 
ATOM     25  S   UNL     1      45.054   4.269   8.883  0.00  0.00    +0.000 S 
ATOM     26  C   UNL     1      44.534   3.734  10.413  0.00  0.00    +0.000 A 
ATOM     27  N   UNL     1      43.750   2.629  10.543  0.00  0.00    +0.000 NA
ATOM     28  C   UNL     1      43.406   2.354  11.757  0.00  0.00    +0.000 A 
ATOM     29  N   UNL     1      43.790   3.082  12.859  0.00  0.00    +0.000 N 
ATOM     30  C   UNL     1      44.621   4.165  12.780  0.00  0.00    +0.000 A 
ATOM     31  O   UNL     1      45.034   4.725  13.787  0.00  0.00    +0.000 OA
ATOM     32  C   UNL     1      45.005   4.544  11.430  0.00  0.00    +0.000 A 
ATOM     33  H   UNL     1      43.521   2.792  13.788  0.00  0.00    +0.000 HD
ENDBRANCH  20  23
ENDBRANCH   2  19
TORSDOF 7
ENDMDL
MODEL 2
REMARK VINA RESULT:    -7.609      3.833      8.177
REMARK INTER + INTRA:         -11.836
REMARK INTER:                 -10.595
REMARK INTRA:                  -1.241
REMARK UNBOUND:                -1.335
REMARK  Name = 
REMARK  8 active torsions:
REMARK  status: ('A' for Active; 'I' for Inactive)
REMARK    1  A    between atoms: C_1  and  C_2
REMARK    2  A    between atoms: C_2  and  N_3
REMARK    3  A    between atoms: C_2  and  C_16
REMARK    4  A    between atoms: C_4  and  C_6
REMARK    5  A    between atoms: C_19  and  C_20
REMARK    6  A    between atoms: C_20  and  C_21
REMARK    7  A    between atoms: C_26  and  C_27
REMARK    8  A    between atoms: C_27  and  O_28
REMARK                            x       y       z     vdW  Elec       q    Type
REMARK                         _______ _______ _______ _____ _____    ______ ____
ROOT
ATOM      1  C   UNL     1      48.565   9.595  13.500  0.00  0.00    +0.000 C 
ATOM      2  C   UNL     1      48.449   8.120  13.879  0.00  0.00    +0.000 C 
ENDROOT
BRANCH   2   3
ATOM      3  C   UNL     1      47.270   7.466  13.190  0.00  0.00    +0.000 A 
ATOM      4  C   UNL     1      46.281   8.253  12.590  0.00  0.00    +0.000 A 
ATOM      5  C   UNL     1      45.264   7.662  11.836  0.00  0.00    +0.000 A 
ATOM      6  C   UNL     1      45.218   6.269  11.658  0.00  0.00    +0.000 A 
ATOM      7  C   UNL     1      46.184   5.480  12.291  0.00  0.00    +0.000 A 
ATOM      8  C   UNL     1      47.183   6.068  13.066  0.00  0.00    +0.000 A 
BRANCH   6   9
ATOM      9  C   UNL     1      44.137   5.622  10.823  0.00  0.00    +0.000 C 
BRANCH   9  10
ATOM     10  C   UNL     1      44.569   4.427   9.989  0.00  0.00    +0.000 A 
ATOM     11  C   UNL     1      45.340   4.701   8.837  0.00  0.00    +0.000 A 
ATOM     12  C   UNL     1      45.749   3.686   7.975  0.00  0.00    +0.000 A 
ATOM     13  C   UNL     1      45.454   2.365   8.280  0.00  0.00    +0.000 A 
ATOM     14  C   UNL     1      44.722   2.067   9.428  0.00  0.00    +0.000 A 
ATOM     15  C   UNL     1      44.220   3.083  10.268  0.00  0.00    +0.000 A 
BRANCH  15  16
ATOM     16  C   UNL     1      43.348   2.673  11.435  0.00  0.00    +0.000 C 
BRANCH  16  17
ATOM     17  O   UNL     1      44.131   2.339  12.583  0.00  0.00    +0.000 OA
ATOM     18  H   UNL     1      44.344   3.178  13.027  0.00  0.00    +0.000 HD
ENDBRANCH  16  17
ENDBRANCH  15  16
ENDBRANCH   9  10
ENDBRANCH   6   9
ENDBRANCH   2   3
BRANCH   2  19
ATOM     19  N   UNL     1      48.310   7.952  15.313  0.00  0.00    +0.000 N 
ATOM     20  C   UNL     1      49.131   7.144  16.055  0.00  0.00    +0.000 C 
ATOM     21  O   UNL     1      50.080   6.543  15.570  0.00  0.00    +0.000 OA
ATOM     22  H   UNL     1      47.444   8.281  15.729  0.00  0.00    +0.000 HD
BRANCH  20  23
ATOM     23  C   UNL     1      48.849   7.107  17.500  0.00  0.00    +0.000 A 
ATOM     24  C   UNL     1      48.550   8.285  18.172  0.00  0.00    +0.000 A 
ATOM     25  S   UNL     1      48.267   8.067  19.840  0.00  0.00    +0.000 S 
ATOM     26  C   UNL     1      48.559   6.394  19.728  0.00  0.00    +0.000 A 
ATOM     27  N   UNL     1      48.509   5.596  20.829  0.00  0.00    +0.000 NA
ATOM     28  C   UNL     1      48.778   4.352  20.604  0.00  0.00    +0.000 A 
ATOM     29  N   UNL     1      49.081   3.832  19.367  0.00  0.00    +0.000 N 
ATOM     30  C   UNL     1      49.088   4.587  18.227  0.00  0.00    +0.000 A 
ATOM     31  O   UNL     1      49.253   4.076  17.127  0.00  0.00    +0.000 OA
ATOM     32  C   UNL     1      48.833   6.004  18.429  0.00  0.00    +0.000 A 
ATOM     33  H   UNL     1      49.243   2.843  19.249  0.00  0.00    +0.000 HD
ENDBRANCH  20  23
ENDBRANCH   2  19
TORSDOF 7
ENDMDL
MODEL 3
REMARK VINA RESULT:    -7.607      3.839      8.187
REMARK INTER + INTRA:         -11.832
REMARK INTER:                 -10.253
REMARK INTRA:                  -1.579
REMARK UNBOUND:                -1.335
REMARK  Name = 
REMARK  8 active torsions:
REMARK  status: ('A' for Active; 'I' for Inactive)
REMARK    1  A    between atoms: C_1  and  C_2
REMARK    2  A    between atoms: C_2  and  N_3
REMARK    3  A    between atoms: C_2  and  C_16
REMARK    4  A    between atoms: C_4  and  C_6
REMARK    5  A    between atoms: C_19  and  C_20
REMARK    6  A    between atoms: C_20  and  C_21
REMARK    7  A    between atoms: C_26  and  C_27
REMARK    8  A    between atoms: C_27  and  O_28
REMARK                            x       y       z     vdW  Elec       q    Type
REMARK                         _______ _______ _______ _____ _____    ______ ____
ROOT
ATOM      1  C   UNL     1      48.081   9.431  14.543  0.00  0.00    +0.000 C 
ATOM      2  C   UNL     1      48.327   7.941  14.316  0.00  0.00    +0.000 C 
ENDROOT
BRANCH   2   3
ATOM      3  C   UNL     1      47.354   7.370  13.305  0.00  0.00    +0.000 A 
ATOM      4  C   UNL     1      47.286   5.987  13.099  0.00  0.00    +0.000 A 
ATOM      5  C   UNL     1      46.301   5.442  12.271  0.00  0.00    +0.000 A 
ATOM      6  C   UNL     1      45.357   6.266  11.638  0.00  0.00    +0.000 A 
ATOM      7  C   UNL     1      45.450   7.651  11.813  0.00  0.00    +0.000 A 
ATOM      8  C   UNL     1      46.449   8.197  12.617  0.00  0.00    +0.000 A 
BRANCH   6   9
ATOM      9  C   UNL     1      44.271   5.683  10.761  0.00  0.00    +0.000 C 
BRANCH   9  10
ATOM     10  C   UNL     1      44.662   4.461   9.947  0.00  0.00    +0.000 A 
ATOM     11  C   UNL     1      45.445   4.688   8.794  0.00  0.00    +0.000 A 
ATOM     12  C   UNL     1      45.819   3.645   7.949  0.00  0.00    +0.000 A 
ATOM     13  C   UNL     1      45.475   2.341   8.273  0.00  0.00    +0.000 A 
ATOM     14  C   UNL     1      44.730   2.088   9.424  0.00  0.00    +0.000 A 
ATOM     15  C   UNL     1      44.263   3.135  10.246  0.00  0.00    +0.000 A 
BRANCH  15  16
ATOM     16  C   UNL     1      43.374   2.775  11.417  0.00  0.00    +0.000 C 
BRANCH  16  17
ATOM     17  O   UNL     1      44.141   2.395  12.562  0.00  0.00    +0.000 OA
ATOM     18  H   UNL     1      45.075   2.545  12.331  0.00  0.00    +0.000 HD
ENDBRANCH  16  17
ENDBRANCH  15  16
ENDBRANCH   9  10
ENDBRANCH   6   9
ENDBRANCH   2   3
BRANCH   2  19
ATOM     19  N   UNL     1      48.216   7.191  15.553  0.00  0.00    +0.000 N 
ATOM     20  C   UNL     1      49.269   6.520  16.117  0.00  0.00    +0.000 C 
ATOM     21  O   UNL     1      50.398   6.546  15.647  0.00  0.00    +0.000 OA
ATOM     22  H   UNL     1      47.277   6.992  15.883  0.00  0.00    +0.000 HD
BRANCH  20  23
ATOM     23  C   UNL     1      48.974   5.825  17.382  0.00  0.00    +0.000 A 
ATOM     24  C   UNL     1      49.164   4.453  17.472  0.00  0.00    +0.000 A 
ATOM     25  S   UNL     1      48.759   3.806  18.998  0.00  0.00    +0.000 S 
ATOM     26  C   UNL     1      48.290   5.333  19.584  0.00  0.00    +0.000 A 
ATOM     27  N   UNL     1      47.801   5.484  20.844  0.00  0.00    +0.000 NA
ATOM     28  C   UNL     1      47.458   6.692  21.148  0.00  0.00    +0.000 A 
ATOM     29  N   UNL     1      47.575   7.770  20.301  0.00  0.00    +0.000 N 
ATOM     30  C   UNL     1      48.111   7.673  19.047  0.00  0.00    +0.000 A 
ATOM     31  O   UNL     1      48.302   8.668  18.359  0.00  0.00    +0.000 OA
ATOM     32  C   UNL     1      48.474   6.326  18.639  0.00  0.00    +0.000 A 
ATOM     33  H   UNL     1      47.326   8.698  20.611  0.00  0.00    +0.000 HD
ENDBRANCH  20  23
ENDBRANCH   2  19
TORSDOF 7
ENDMDL
MODEL 4
REMARK VINA RESULT:    -7.584      3.522      7.669
REMARK INTER + INTRA:         -11.801
REMARK INTER:                 -10.236
REMARK INTRA:                  -1.565
REMARK UNBOUND:                -1.335
REMARK  Name = 
REMARK  8 active torsions:
REMARK  status: ('A' for Active; 'I' for Inactive)
REMARK    1  A    between atoms: C_1  and  C_2
REMARK    2  A    between atoms: C_2  and  N_3
REMARK    3  A    between atoms: C_2  and  C_16
REMARK    4  A    between atoms: C_4  and  C_6
REMARK    5  A    between atoms: C_19  and  C_20
REMARK    6  A    between atoms: C_20  and  C_21
REMARK    7  A    between atoms: C_26  and  C_27
REMARK    8  A    between atoms: C_27  and  O_28
REMARK                            x       y       z     vdW  Elec       q    Type
REMARK                         _______ _______ _______ _____ _____    ______ ____
ROOT
ATOM      1  C   UNL     1      47.861   9.775  14.288  0.00  0.00    +0.000 C 
ATOM      2  C   UNL     1      48.251   8.345  13.921  0.00  0.00    +0.000 C 
ENDROOT
BRANCH   2   3
ATOM      3  C   UNL     1      47.235   7.718  12.988  0.00  0.00    +0.000 A 
ATOM      4  C   UNL     1      47.516   6.500  12.360  0.00  0.00    +0.000 A 
ATOM      5  C   UNL     1      46.535   5.848  11.607  0.00  0.00    +0.000 A 
ATOM      6  C   UNL     1      45.249   6.396  11.474  0.00  0.00    +0.000 A 
ATOM      7  C   UNL     1      44.982   7.633  12.069  0.00  0.00    +0.000 A 
ATOM      8  C   UNL     1      45.968   8.297  12.797  0.00  0.00    +0.000 A 
BRANCH   6   9
ATOM      9  C   UNL     1      44.174   5.686  10.683  0.00  0.00    +0.000 C 
BRANCH   9  10
ATOM     10  C   UNL     1      44.627   4.473   9.889  0.00  0.00    +0.000 A 
ATOM     11  C   UNL     1      45.372   4.723   8.715  0.00  0.00    +0.000 A 
ATOM     12  C   UNL     1      45.796   3.686   7.886  0.00  0.00    +0.000 A 
ATOM     13  C   UNL     1      45.544   2.371   8.246  0.00  0.00    +0.000 A 
ATOM     14  C   UNL     1      44.838   2.098   9.416  0.00  0.00    +0.000 A 
ATOM     15  C   UNL     1      44.320   3.131  10.225  0.00  0.00    +0.000 A 
BRANCH  15  16
ATOM     16  C   UNL     1      43.478   2.743  11.421  0.00  0.00    +0.000 C 
BRANCH  16  17
ATOM     17  O   UNL     1      44.263   2.664  12.613  0.00  0.00    +0.000 OA
ATOM     18  H   UNL     1      44.238   3.548  13.020  0.00  0.00    +0.000 HD
ENDBRANCH  16  17
ENDBRANCH  15  16
ENDBRANCH   9  10
ENDBRANCH   6   9
ENDBRANCH   2   3
BRANCH   2  19
ATOM     19  N   UNL     1      48.385   7.513  15.101  0.00  0.00    +0.000 N 
ATOM     20  C   UNL     1      49.580   6.984  15.514  0.00  0.00    +0.000 C 
ATOM     21  O   UNL     1      50.637   7.220  14.945  0.00  0.00    +0.000 OA
ATOM     22  H   UNL     1      47.526   7.146  15.500  0.00  0.00    +0.000 HD
BRANCH  20  23
ATOM     23  C   UNL     1      49.526   6.175  16.743  0.00  0.00    +0.000 A 
ATOM     24  C   UNL     1      50.318   6.522  17.829  0.00  0.00    +0.000 A 
ATOM     25  S   UNL     1      50.147   5.472  19.162  0.00  0.00    +0.000 S 
ATOM     26  C   UNL     1      49.027   4.501  18.326  0.00  0.00    +0.000 A 
ATOM     27  N   UNL     1      48.495   3.387  18.899  0.00  0.00    +0.000 NA
ATOM     28  C   UNL     1      47.681   2.730  18.141  0.00  0.00    +0.000 A 
ATOM     29  N   UNL     1      47.339   3.098  16.860  0.00  0.00    +0.000 N 
ATOM     30  C   UNL     1      47.807   4.238  16.267  0.00  0.00    +0.000 A 
ATOM     31  O   UNL     1      47.400   4.595  15.169  0.00  0.00    +0.000 OA
ATOM     32  C   UNL     1      48.762   4.994  17.061  0.00  0.00    +0.000 A 
ATOM     33  H   UNL     1      46.666   2.563  16.333  0.00  0.00    +0.000 HD
ENDBRANCH  20  23
ENDBRANCH   2  19
TORSDOF 7
ENDMDL
MODEL 5
REMARK VINA RESULT:    -7.167      4.114      5.922
REMARK INTER + INTRA:         -11.225
REMARK INTER:                  -9.912
REMARK INTRA:                  -1.313
REMARK UNBOUND:                -1.335
REMARK  Name = 
REMARK  8 active torsions:
REMARK  status: ('A' for Active; 'I' for Inactive)
REMARK    1  A    between atoms: C_1  and  C_2
REMARK    2  A    between atoms: C_2  and  N_3
REMARK    3  A    between atoms: C_2  and  C_16
REMARK    4  A    between atoms: C_4  and  C_6
REMARK    5  A    between atoms: C_19  and  C_20
REMARK    6  A    between atoms: C_20  and  C_21
REMARK    7  A    between atoms: C_26  and  C_27
REMARK    8  A    between atoms: C_27  and  O_28
REMARK                            x       y       z     vdW  Elec       q    Type
REMARK                         _______ _______ _______ _____ _____    ______ ____
ROOT
ATOM      1  C   UNL     1      47.590   3.228  17.025  0.00  0.00    +0.000 C 
ATOM      2  C   UNL     1      47.984   4.539  16.347  0.00  0.00    +0.000 C 
ENDROOT
BRANCH   2   3
ATOM      3  C   UNL     1      48.057   5.675  17.346  0.00  0.00    +0.000 A 
ATOM      4  C   UNL     1      47.249   5.659  18.489  0.00  0.00    +0.000 A 
ATOM      5  C   UNL     1      47.406   6.630  19.481  0.00  0.00    +0.000 A 
ATOM      6  C   UNL     1      48.380   7.634  19.357  0.00  0.00    +0.000 A 
ATOM      7  C   UNL     1      49.159   7.673  18.197  0.00  0.00    +0.000 A 
ATOM      8  C   UNL     1      48.985   6.720  17.194  0.00  0.00    +0.000 A 
BRANCH   6   9
ATOM      9  C   UNL     1      48.574   8.674  20.438  0.00  0.00    +0.000 C 
BRANCH   9  10
ATOM     10  C   UNL     1      47.429   9.656  20.626  0.00  0.00    +0.000 A 
ATOM     11  C   UNL     1      46.629   9.486  21.777  0.00  0.00    +0.000 A 
ATOM     12  C   UNL     1      45.524  10.299  22.023  0.00  0.00    +0.000 A 
ATOM     13  C   UNL     1      45.234  11.345  21.159  0.00  0.00    +0.000 A 
ATOM     14  C   UNL     1      46.030  11.553  20.034  0.00  0.00    +0.000 A 
ATOM     15  C   UNL     1      47.098  10.688  19.714  0.00  0.00    +0.000 A 
BRANCH  15  16
ATOM     16  C   UNL     1      47.842  10.928  18.419  0.00  0.00    +0.000 C 
BRANCH  16  17
ATOM     17  O   UNL     1      47.239  11.973  17.652  0.00  0.00    +0.000 OA
ATOM     18  H   UNL     1      47.791  12.764  17.779  0.00  0.00    +0.000 HD
ENDBRANCH  16  17
ENDBRANCH  15  16
ENDBRANCH   9  10
ENDBRANCH   6   9
ENDBRANCH   2   3
BRANCH   2  19
ATOM     19  N   UNL     1      47.049   4.893  15.296  0.00  0.00    +0.000 N 
ATOM     20  C   UNL     1      47.419   5.565  14.161  0.00  0.00    +0.000 C 
ATOM     21  O   UNL     1      48.580   5.870  13.922  0.00  0.00    +0.000 OA
ATOM     22  H   UNL     1      46.062   4.824  15.522  0.00  0.00    +0.000 HD
BRANCH  20  23
ATOM     23  C   UNL     1      46.337   5.828  13.198  0.00  0.00    +0.000 A 
ATOM     24  C   UNL     1      46.045   7.135  12.831  0.00  0.00    +0.000 A 
ATOM     25  S   UNL     1      44.756   7.262  11.722  0.00  0.00    +0.000 S 
ATOM     26  C   UNL     1      44.523   5.576  11.713  0.00  0.00    +0.000 A 
ATOM     27  N   UNL     1      43.532   5.006  10.975  0.00  0.00    +0.000 NA
ATOM     28  C   UNL     1      43.452   3.721  11.084  0.00  0.00    +0.000 A 
ATOM     29  N   UNL     1      44.289   2.951  11.858  0.00  0.00    +0.000 N 
ATOM     30  C   UNL     1      45.331   3.476  12.570  0.00  0.00    +0.000 A 
ATOM     31  O   UNL     1      46.124   2.755  13.161  0.00  0.00    +0.000 OA
ATOM     32  C   UNL     1      45.441   4.925  12.517  0.00  0.00    +0.000 A 
ATOM     33  H   UNL     1      44.200   1.946  11.870  0.00  0.00    +0.000 HD
ENDBRANCH  20  23
ENDBRANCH   2  19
TORSDOF 7
ENDMDL
MODEL 6
REMARK VINA RESULT:    -7.135      4.200      8.258
REMARK INTER + INTRA:         -11.181
REMARK INTER:                  -9.479
REMARK INTRA:                  -1.702
REMARK UNBOUND:                -1.335
REMARK  Name = 
REMARK  8 active torsions:
REMARK  status: ('A' for Active; 'I' for Inactive)
REMARK    1  A    between atoms: C_1  and  C_2
REMARK    2  A    between atoms: C_2  and  N_3
REMARK    3  A    between atoms: C_2  and  C_16
REMARK    4  A    between atoms: C_4  and  C_6
REMARK    5  A    between atoms: C_19  and  C_20
REMARK    6  A    between atoms: C_20  and  C_21
REMARK    7  A    between atoms: C_26  and  C_27
REMARK    8  A    between atoms: C_27  and  O_28
REMARK                            x       y       z     vdW  Elec       q    Type
REMARK                         _______ _______ _______ _____ _____    ______ ____
ROOT
ATOM      1  C   UNL     1      48.857   6.190  15.936  0.00  0.00    +0.000 C 
ATOM      2  C   UNL     1      48.774   7.209  14.801  0.00  0.00    +0.000 C 
ENDROOT
BRANCH   2   3
ATOM      3  C   UNL     1      47.771   6.781  13.749  0.00  0.00    +0.000 A 
ATOM      4  C   UNL     1      47.242   5.486  13.770  0.00  0.00    +0.000 A 
ATOM      5  C   UNL     1      46.218   5.125  12.890  0.00  0.00    +0.000 A 
ATOM      6  C   UNL     1      45.696   6.054  11.975  0.00  0.00    +0.000 A 
ATOM      7  C   UNL     1      46.253   7.335  11.928  0.00  0.00    +0.000 A 
ATOM      8  C   UNL     1      47.293   7.688  12.788  0.00  0.00    +0.000 A 
BRANCH   6   9
ATOM      9  C   UNL     1      44.571   5.680  11.036  0.00  0.00    +0.000 C 
BRANCH   9  10
ATOM     10  C   UNL     1      44.854   4.526  10.089  0.00  0.00    +0.000 A 
ATOM     11  C   UNL     1      45.649   4.812   8.957  0.00  0.00    +0.000 A 
ATOM     12  C   UNL     1      45.930   3.840   7.999  0.00  0.00    +0.000 A 
ATOM     13  C   UNL     1      45.479   2.542   8.183  0.00  0.00    +0.000 A 
ATOM     14  C   UNL     1      44.719   2.228   9.309  0.00  0.00    +0.000 A 
ATOM     15  C   UNL     1      44.345   3.214  10.247  0.00  0.00    +0.000 A 
BRANCH  15  16
ATOM     16  C   UNL     1      43.433   2.803  11.382  0.00  0.00    +0.000 C 
BRANCH  16  17
ATOM     17  O   UNL     1      44.178   2.388  12.530  0.00  0.00    +0.000 OA
ATOM     18  H   UNL     1      44.474   1.478  12.353  0.00  0.00    +0.000 HD
ENDBRANCH  16  17
ENDBRANCH  15  16
ENDBRANCH   9  10
ENDBRANCH   6   9
ENDBRANCH   2   3
BRANCH   2  19
ATOM     19  N   UNL     1      50.065   7.405  14.171  0.00  0.00    +0.000 N 
ATOM     20  C   UNL     1      50.711   8.613  14.146  0.00  0.00    +0.000 C 
ATOM     21  O   UNL     1      50.269   9.609  14.704  0.00  0.00    +0.000 OA
ATOM     22  H   UNL     1      50.386   6.668  13.550  0.00  0.00    +0.000 HD
BRANCH  20  23
ATOM     23  C   UNL     1      52.020   8.620  13.473  0.00  0.00    +0.000 A 
ATOM     24  C   UNL     1      53.154   8.998  14.179  0.00  0.00    +0.000 A 
ATOM     25  S   UNL     1      54.582   8.967  13.246  0.00  0.00    +0.000 S 
ATOM     26  C   UNL     1      53.731   8.471  11.858  0.00  0.00    +0.000 A 
ATOM     27  N   UNL     1      54.369   8.286  10.670  0.00  0.00    +0.000 NA
ATOM     28  C   UNL     1      53.598   7.937   9.694  0.00  0.00    +0.000 A 
ATOM     29  N   UNL     1      52.240   7.744   9.805  0.00  0.00    +0.000 N 
ATOM     30  C   UNL     1      51.568   7.866  10.990  0.00  0.00    +0.000 A 
ATOM     31  O   UNL     1      50.381   7.581  11.080  0.00  0.00    +0.000 OA
ATOM     32  C   UNL     1      52.383   8.299  12.114  0.00  0.00    +0.000 A 
ATOM     33  H   UNL     1      51.697   7.433   9.014  0.00  0.00    +0.000 HD
ENDBRANCH  20  23
ENDBRANCH   2  19
TORSDOF 7
ENDMDL
MODEL 7
REMARK VINA RESULT:    -6.462      4.207      6.292
REMARK INTER + INTRA:         -10.253
REMARK INTER:                  -8.894
REMARK INTRA:                  -1.359
REMARK UNBOUND:                -1.335
REMARK  Name = 
REMARK  8 active torsions:
REMARK  status: ('A' for Active; 'I' for Inactive)
REMARK    1  A    between atoms: C_1  and  C_2
REMARK    2  A    between atoms: C_2  and  N_3
REMARK    3  A    between atoms: C_2  and  C_16
REMARK    4  A    between atoms: C_4  and  C_6
REMARK    5  A    between atoms: C_19  and  C_20
REMARK    6  A    between atoms: C_20  and  C_21
REMARK    7  A    between atoms: C_26  and  C_27
REMARK    8  A    between atoms: C_27  and  O_28
REMARK                            x       y       z     vdW  Elec       q    Type
REMARK                         _______ _______ _______ _____ _____    ______ ____
ROOT
ATOM      1  C   UNL     1      47.618   3.275  17.279  0.00  0.00    +0.000 C 
ATOM      2  C   UNL     1      47.994   4.556  16.537  0.00  0.00    +0.000 C 
ENDROOT
BRANCH   2   3
ATOM      3  C   UNL     1      48.106   5.730  17.488  0.00  0.00    +0.000 A 
ATOM      4  C   UNL     1      47.468   5.689  18.733  0.00  0.00    +0.000 A 
ATOM      5  C   UNL     1      47.676   6.706  19.669  0.00  0.00    +0.000 A 
ATOM      6  C   UNL     1      48.534   7.780  19.385  0.00  0.00    +0.000 A 
ATOM      7  C   UNL     1      49.139   7.841  18.126  0.00  0.00    +0.000 A 
ATOM      8  C   UNL     1      48.911   6.841  17.181  0.00  0.00    +0.000 A 
BRANCH   6   9
ATOM      9  C   UNL     1      48.785   8.871  20.401  0.00  0.00    +0.000 C 
BRANCH   9  10
ATOM     10  C   UNL     1      47.599   9.767  20.720  0.00  0.00    +0.000 A 
ATOM     11  C   UNL     1      46.904   9.499  21.920  0.00  0.00    +0.000 A 
ATOM     12  C   UNL     1      45.773  10.227  22.285  0.00  0.00    +0.000 A 
ATOM     13  C   UNL     1      45.350  11.284  21.493  0.00  0.00    +0.000 A 
ATOM     14  C   UNL     1      46.040  11.588  20.321  0.00  0.00    +0.000 A 
ATOM     15  C   UNL     1      47.132  10.810  19.883  0.00  0.00    +0.000 A 
BRANCH  15  16
ATOM     16  C   UNL     1      47.756  11.150  18.547  0.00  0.00    +0.000 C 
BRANCH  16  17
ATOM     17  O   UNL     1      47.014  12.165  17.865  0.00  0.00    +0.000 OA
ATOM     18  H   UNL     1      47.667  12.729  17.414  0.00  0.00    +0.000 HD
ENDBRANCH  16  17
ENDBRANCH  15  16
ENDBRANCH   9  10
ENDBRANCH   6   9
ENDBRANCH   2   3
BRANCH   2  19
ATOM     19  N   UNL     1      47.024   4.875  15.507  0.00  0.00    +0.000 N 
ATOM     20  C   UNL     1      46.989   4.243  14.291  0.00  0.00    +0.000 C 
ATOM     21  O   UNL     1      47.742   3.322  14.004  0.00  0.00    +0.000 OA
ATOM     22  H   UNL     1      46.502   5.737  15.623  0.00  0.00    +0.000 HD
BRANCH  20  23
ATOM     23  C   UNL     1      45.926   4.688  13.375  0.00  0.00    +0.000 A 
ATOM     24  C   UNL     1      44.999   3.770  12.900  0.00  0.00    +0.000 A 
ATOM     25  S   UNL     1      43.850   4.447  11.837  0.00  0.00    +0.000 S 
ATOM     26  C   UNL     1      44.566   5.987  11.954  0.00  0.00    +0.000 A 
ATOM     27  N   UNL     1      44.079   7.044  11.250  0.00  0.00    +0.000 NA
ATOM     28  C   UNL     1      44.735   8.145  11.410  0.00  0.00    +0.000 A 
ATOM     29  N   UNL     1      45.833   8.285  12.228  0.00  0.00    +0.000 N 
ATOM     30  C   UNL     1      46.322   7.264  12.994  0.00  0.00    +0.000 A 
ATOM     31  O   UNL     1      47.231   7.447  13.794  0.00  0.00    +0.000 OA
ATOM     32  C   UNL     1      45.645   5.989  12.819  0.00  0.00    +0.000 A 
ATOM     33  H   UNL     1      46.279   9.183  12.342  0.00  0.00    +0.000 HD
ENDBRANCH  20  23
ENDBRANCH   2  19
TORSDOF 7
ENDMDL
MODEL 8
REMARK VINA RESULT:    -6.330      3.735      8.082
REMARK INTER + INTRA:         -10.071
REMARK INTER:                  -9.049
REMARK INTRA:                  -1.022
REMARK UNBOUND:                -1.335
REMARK  Name = 
REMARK  8 active torsions:
REMARK  status: ('A' for Active; 'I' for Inactive)
REMARK    1  A    between atoms: C_1  and  C_2
REMARK    2  A    between atoms: C_2  and  N_3
REMARK    3  A    between atoms: C_2  and  C_16
REMARK    4  A    between atoms: C_4  and  C_6
REMARK    5  A    between atoms: C_19  and  C_20
REMARK    6  A    between atoms: C_20  and  C_21
REMARK    7  A    between atoms: C_26  and  C_27
REMARK    8  A    between atoms: C_27  and  O_28
REMARK                            x       y       z     vdW  Elec       q    Type
REMARK                         _______ _______ _______ _____ _____    ______ ____
ROOT
ATOM      1  C   UNL     1      48.577   9.896  14.317  0.00  0.00    +0.000 C 
ATOM      2  C   UNL     1      49.152   8.726  13.523  0.00  0.00    +0.000 C 
ENDROOT
BRANCH   2   3
ATOM      3  C   UNL     1      48.056   7.931  12.843  0.00  0.00    +0.000 A 
ATOM      4  C   UNL     1      48.055   6.533  12.914  0.00  0.00    +0.000 A 
ATOM      5  C   UNL     1      46.980   5.799  12.408  0.00  0.00    +0.000 A 
ATOM      6  C   UNL     1      45.877   6.446  11.828  0.00  0.00    +0.000 A 
ATOM      7  C   UNL     1      45.896   7.840  11.721  0.00  0.00    +0.000 A 
ATOM      8  C   UNL     1      46.982   8.572  12.201  0.00  0.00    +0.000 A 
BRANCH   6   9
ATOM      9  C   UNL     1      44.696   5.661  11.301  0.00  0.00    +0.000 C 
BRANCH   9  10
ATOM     10  C   UNL     1      45.007   4.648  10.213  0.00  0.00    +0.000 A 
ATOM     11  C   UNL     1      45.700   5.124   9.078  0.00  0.00    +0.000 A 
ATOM     12  C   UNL     1      45.993   4.292   8.000  0.00  0.00    +0.000 A 
ATOM     13  C   UNL     1      45.660   2.947   8.059  0.00  0.00    +0.000 A 
ATOM     14  C   UNL     1      45.004   2.446   9.182  0.00  0.00    +0.000 A 
ATOM     15  C   UNL     1      44.616   3.286  10.247  0.00  0.00    +0.000 A 
BRANCH  15  16
ATOM     16  C   UNL     1      43.817   2.676  11.378  0.00  0.00    +0.000 C 
BRANCH  16  17
ATOM     17  O   UNL     1      42.505   3.239  11.457  0.00  0.00    +0.000 OA
ATOM     18  H   UNL     1      41.886   2.538  11.186  0.00  0.00    +0.000 HD
ENDBRANCH  16  17
ENDBRANCH  15  16
ENDBRANCH   9  10
ENDBRANCH   6   9
ENDBRANCH   2   3
BRANCH   2  19
ATOM     19  N   UNL     1      49.923   7.837  14.372  0.00  0.00    +0.000 N 
ATOM     20  C   UNL     1      51.058   8.230  15.030  0.00  0.00    +0.000 C 
ATOM     21  O   UNL     1      51.479   9.378  14.994  0.00  0.00    +0.000 OA
ATOM     22  H   UNL     1      49.722   6.845  14.295  0.00  0.00    +0.000 HD
BRANCH  20  23
ATOM     23  C   UNL     1      51.701   7.196  15.858  0.00  0.00    +0.000 A 
ATOM     24  C   UNL     1      53.087   7.116  15.904  0.00  0.00    +0.000 A 
ATOM     25  S   UNL     1      53.666   5.855  16.895  0.00  0.00    +0.000 S 
ATOM     26  C   UNL     1      52.085   5.353  17.277  0.00  0.00    +0.000 A 
ATOM     27  N   UNL     1      51.863   4.276  18.079  0.00  0.00    +0.000 NA
ATOM     28  C   UNL     1      50.617   3.991  18.262  0.00  0.00    +0.000 A 
ATOM     29  N   UNL     1      49.568   4.699  17.723  0.00  0.00    +0.000 N 
ATOM     30  C   UNL     1      49.745   5.819  16.958  0.00  0.00    +0.000 A 
ATOM     31  O   UNL     1      48.792   6.490  16.583  0.00  0.00    +0.000 OA
ATOM     32  C   UNL     1      51.131   6.161  16.684  0.00  0.00    +0.000 A 
ATOM     33  H   UNL     1      48.614   4.450  17.936  0.00  0.00    +0.000 HD
ENDBRANCH  20  23
ENDBRANCH   2  19
TORSDOF 7
ENDMDL
MODEL 9
REMARK VINA RESULT:    -6.300      3.656      6.203
REMARK INTER + INTRA:         -10.029
REMARK INTER:                  -8.686
REMARK INTRA:                  -1.343
REMARK UNBOUND:                -1.335
REMARK  Name = 
REMARK  8 active torsions:
REMARK  status: ('A' for Active; 'I' for Inactive)
REMARK    1  A    between atoms: C_1  and  C_2
REMARK    2  A    between atoms: C_2  and  N_3
REMARK    3  A    between atoms: C_2  and  C_16
REMARK    4  A    between atoms: C_4  and  C_6
REMARK    5  A    between atoms: C_19  and  C_20
REMARK    6  A    between atoms: C_20  and  C_21
REMARK    7  A    between atoms: C_26  and  C_27
REMARK    8  A    between atoms: C_27  and  O_28
REMARK                            x       y       z     vdW  Elec       q    Type
REMARK                         _______ _______ _______ _____ _____    ______ ____
ROOT
ATOM      1  C   UNL     1      48.483   9.271  14.467  0.00  0.00    +0.000 C 
ATOM      2  C   UNL     1      48.986   7.877  14.098  0.00  0.00    +0.000 C 
ENDROOT
BRANCH   2   3
ATOM      3  C   UNL     1      50.147   7.950  13.127  0.00  0.00    +0.000 A 
ATOM      4  C   UNL     1      49.974   7.559  11.795  0.00  0.00    +0.000 A 
ATOM      5  C   UNL     1      50.996   7.749  10.862  0.00  0.00    +0.000 A 
ATOM      6  C   UNL     1      52.211   8.345  11.238  0.00  0.00    +0.000 A 
ATOM      7  C   UNL     1      52.398   8.699  12.578  0.00  0.00    +0.000 A 
ATOM      8  C   UNL     1      51.388   8.484  13.515  0.00  0.00    +0.000 A 
BRANCH   6   9
ATOM      9  C   UNL     1      53.314   8.579  10.230  0.00  0.00    +0.000 C 
BRANCH   9  10
ATOM     10  C   UNL     1      53.475   7.509   9.163  0.00  0.00    +0.000 A 
ATOM     11  C   UNL     1      52.927   7.789   7.893  0.00  0.00    +0.000 A 
ATOM     12  C   UNL     1      52.976   6.859   6.856  0.00  0.00    +0.000 A 
ATOM     13  C   UNL     1      53.633   5.652   7.045  0.00  0.00    +0.000 A 
ATOM     14  C   UNL     1      54.210   5.366   8.281  0.00  0.00    +0.000 A 
ATOM     15  C   UNL     1      54.096   6.252   9.373  0.00  0.00    +0.000 A 
BRANCH  15  16
ATOM     16  C   UNL     1      54.663   5.814  10.706  0.00  0.00    +0.000 C 
BRANCH  16  17
ATOM     17  O   UNL     1      54.177   4.523  11.084  0.00  0.00    +0.000 OA
ATOM     18  H   UNL     1      54.433   3.911  10.371  0.00  0.00    +0.000 HD
ENDBRANCH  16  17
ENDBRANCH  15  16
ENDBRANCH   9  10
ENDBRANCH   6   9
ENDBRANCH   2   3
BRANCH   2  19
ATOM     19  N   UNL     1      47.932   7.071  13.512  0.00  0.00    +0.000 N 
ATOM     20  C   UNL     1      47.524   5.875  14.040  0.00  0.00    +0.000 C 
ATOM     21  O   UNL     1      47.983   5.420  15.080  0.00  0.00    +0.000 OA
ATOM     22  H   UNL     1      47.646   7.311  12.568  0.00  0.00    +0.000 HD
BRANCH  20  23
ATOM     23  C   UNL     1      46.430   5.203  13.319  0.00  0.00    +0.000 A 
ATOM     24  C   UNL     1      46.435   3.819  13.198  0.00  0.00    +0.000 A 
ATOM     25  S   UNL     1      45.108   3.205  12.320  0.00  0.00    +0.000 S 
ATOM     26  C   UNL     1      44.492   4.769  12.048  0.00  0.00    +0.000 A 
ATOM     27  N   UNL     1      43.362   4.962  11.317  0.00  0.00    +0.000 NA
ATOM     28  C   UNL     1      43.024   6.200  11.166  0.00  0.00    +0.000 A 
ATOM     29  N   UNL     1      43.714   7.266  11.697  0.00  0.00    +0.000 N 
ATOM     30  C   UNL     1      44.823   7.113  12.483  0.00  0.00    +0.000 A 
ATOM     31  O   UNL     1      45.350   8.073  13.031  0.00  0.00    +0.000 OA
ATOM     32  C   UNL     1      45.271   5.740  12.650  0.00  0.00    +0.000 A 
ATOM     33  H   UNL     1      43.377   8.209  11.578  0.00  0.00    +0.000 HD
ENDBRANCH  20  23
ENDBRANCH   2  19
TORSDOF 7
ENDMDL
