MODEL 1
REMARK VINA RESULT:    -8.081      0.000      0.000
REMARK INTER + INTRA:         -13.194
REMARK INTER:                 -11.860
REMARK INTRA:                  -1.334
REMARK UNBOUND:                -1.334
REMARK  Name = 
REMARK  11 active torsions:
REMARK  status: ('A' for Active; 'I' for Inactive)
REMARK    1  A    between atoms: C_1  and  C_2
REMARK    2  A    between atoms: C_2  and  C_3
REMARK    3  A    between atoms: C_2  and  N_20
REMARK    4  A    between atoms: C_3  and  C_4
REMARK    5  A    between atoms: C_7  and  C_8
REMARK    6  A    between atoms: C_8  and  N_9
REMARK    7  A    between atoms: N_9  and  C_10
REMARK    8  A    between atoms: N_9  and  C_11
REMARK    9  A    between atoms: C_11  and  C_12
REMARK   10  A    between atoms: N_20  and  C_21
REMARK   11  A    between atoms: C_22  and  C_24
REMARK                            x       y       z     vdW  Elec       q    Type
REMARK                         _______ _______ _______ _____ _____    ______ ____
ROOT
ATOM      1  C   UNL     1      48.785   8.066  13.987  0.00  0.00    +0.000 C 
ENDROOT
BRANCH   1   2
ATOM      2  C   UNL     1      47.546   7.380  13.459  0.00  0.00    +0.000 A 
ATOM      3  C   UNL     1      47.484   5.984  13.397  0.00  0.00    +0.000 A 
ATOM      4  C   UNL     1      46.359   5.343  12.881  0.00  0.00    +0.000 A 
ATOM      5  C   UNL     1      45.252   6.087  12.454  0.00  0.00    +0.000 A 
ATOM      6  C   UNL     1      45.305   7.484  12.529  0.00  0.00    +0.000 A 
ATOM      7  C   UNL     1      46.440   8.123  13.029  0.00  0.00    +0.000 A 
BRANCH   5   8
ATOM      8  C   UNL     1      44.004   5.386  11.960  0.00  0.00    +0.000 C 
BRANCH   8   9
ATOM      9  N   UNL     1      44.293   4.094  11.300  0.00  0.00    +0.000 NA
ATOM     10  C   UNL     1      43.464   3.022  11.867  0.00  0.00    +0.000 C 
BRANCH   9  11
ATOM     11  C   UNL     1      44.021   4.188   9.849  0.00  0.00    +0.000 C 
BRANCH  11  12
ATOM     12  C   UNL     1      45.080   3.574   8.951  0.00  0.00    +0.000 A 
ATOM     13  C   UNL     1      45.306   2.197   8.958  0.00  0.00    +0.000 A 
ATOM     14  C   UNL     1      46.240   1.665   8.074  0.00  0.00    +0.000 A 
ATOM     15  C   UNL     1      46.929   2.515   7.217  0.00  0.00    +0.000 A 
ATOM     16  C   UNL     1      46.664   3.871   7.289  0.00  0.00    +0.000 A 
ATOM     17  N   UNL     1      45.761   4.417   8.132  0.00  0.00    +0.000 NA
ENDBRANCH  11  12
ENDBRANCH   9  11
ENDBRANCH   8   9
ENDBRANCH   5   8
ENDBRANCH   1   2
BRANCH   1  19
ATOM     18  C   UNL     1      48.905   9.785  15.855  0.00  0.00    +0.000 C 
ATOM     19  C   UNL     1      48.811   8.290  15.529  0.00  0.00    +0.000 C 
BRANCH  19  20
ATOM     20  N   UNL     1      49.785   7.403  16.221  0.00  0.00    +0.000 N 
ATOM     21  C   UNL     1      51.142   7.243  15.713  0.00  0.00    +0.000 C 
ATOM     22  C   UNL     1      49.394   6.870  17.458  0.00  0.00    +0.000 C 
ATOM     23  O   UNL     1      48.455   7.363  18.088  0.00  0.00    +0.000 OA
BRANCH  22  24
ATOM     24  C   UNL     1      49.979   5.597  17.924  0.00  0.00    +0.000 A 
ATOM     25  C   UNL     1      51.117   5.535  18.707  0.00  0.00    +0.000 A 
ATOM     26  S   UNL     1      51.900   4.030  18.644  0.00  0.00    +0.000 S 
ATOM     27  C   UNL     1      50.683   3.371  17.632  0.00  0.00    +0.000 A 
ATOM     28  C   UNL     1      50.698   2.100  17.047  0.00  0.00    +0.000 A 
ATOM     29  N   UNL     1      49.617   1.641  16.383  0.00  0.00    +0.000 NA
ATOM     30  C   UNL     1      48.528   2.431  16.311  0.00  0.00    +0.000 A 
ATOM     31  C   UNL     1      48.478   3.724  16.805  0.00  0.00    +0.000 A 
ATOM     32 CL   UNL     1      47.029   4.624  16.808  0.00  0.00    +0.000 Cl
ATOM     33  C   UNL     1      49.613   4.259  17.450  0.00  0.00    +0.000 A 
ENDBRANCH  22  24
ENDBRANCH  19  20
ENDBRANCH   1  19
TORSDOF 8
ENDMDL
MODEL 2
REMARK VINA RESULT:    -7.357      2.160      2.638
REMARK INTER + INTRA:         -12.132
REMARK INTER:                 -10.370
REMARK INTRA:                  -1.761
REMARK UNBOUND:                -1.334
REMARK  Name = 
REMARK  11 active torsions:
REMARK  status: ('A' for Active; 'I' for Inactive)
REMARK    1  A    between atoms: C_1  and  C_2
REMARK    2  A    between atoms: C_2  and  C_3
REMARK    3  A    between atoms: C_2  and  N_20
REMARK    4  A    between atoms: C_3  and  C_4
REMARK    5  A    between atoms: C_7  and  C_8
REMARK    6  A    between atoms: C_8  and  N_9
REMARK    7  A    between atoms: N_9  and  C_10
REMARK    8  A    between atoms: N_9  and  C_11
REMARK    9  A    between atoms: C_11  and  C_12
REMARK   10  A    between atoms: N_20  and  C_21
REMARK   11  A    between atoms: C_22  and  C_24
REMARK                            x       y       z     vdW  Elec       q    Type
REMARK                         _______ _______ _______ _____ _____    ______ ____
ROOT
ATOM      1  C   UNL     1      48.973   9.270  12.190  0.00  0.00    +0.000 C 
ENDROOT
BRANCH   1   2
ATOM      2  C   UNL     1      47.715   8.436  12.119  0.00  0.00    +0.000 A 
ATOM      3  C   UNL     1      47.786   7.075  11.804  0.00  0.00    +0.000 A 
ATOM      4  C   UNL     1      46.629   6.305  11.705  0.00  0.00    +0.000 A 
ATOM      5  C   UNL     1      45.375   6.872  11.961  0.00  0.00    +0.000 A 
ATOM      6  C   UNL     1      45.301   8.231  12.292  0.00  0.00    +0.000 A 
ATOM      7  C   UNL     1      46.460   9.003  12.373  0.00  0.00    +0.000 A 
BRANCH   5   8
ATOM      8  C   UNL     1      44.125   6.017  11.922  0.00  0.00    +0.000 C 
BRANCH   8   9
ATOM      9  N   UNL     1      44.394   4.627  11.497  0.00  0.00    +0.000 NA
ATOM     10  C   UNL     1      43.707   3.670  12.376  0.00  0.00    +0.000 C 
BRANCH   9  11
ATOM     11  C   UNL     1      43.928   4.416  10.109  0.00  0.00    +0.000 C 
BRANCH  11  12
ATOM     12  C   UNL     1      44.923   3.728   9.190  0.00  0.00    +0.000 A 
ATOM     13  C   UNL     1      45.084   2.343   9.228  0.00  0.00    +0.000 A 
ATOM     14  C   UNL     1      45.959   1.744   8.326  0.00  0.00    +0.000 A 
ATOM     15  C   UNL     1      46.652   2.537   7.419  0.00  0.00    +0.000 A 
ATOM     16  C   UNL     1      46.453   3.906   7.462  0.00  0.00    +0.000 A 
ATOM     17  N   UNL     1      45.609   4.516   8.322  0.00  0.00    +0.000 NA
ENDBRANCH  11  12
ENDBRANCH   9  11
ENDBRANCH   8   9
ENDBRANCH   5   8
ENDBRANCH   1   2
BRANCH   1  19
ATOM     18  C   UNL     1      50.458  10.806  13.567  0.00  0.00    +0.000 C 
ATOM     19  C   UNL     1      49.411   9.688  13.626  0.00  0.00    +0.000 C 
BRANCH  19  20
ATOM     20  N   UNL     1      49.744   8.520  14.486  0.00  0.00    +0.000 N 
ATOM     21  C   UNL     1      51.050   7.877  14.403  0.00  0.00    +0.000 C 
ATOM     22  C   UNL     1      48.817   8.179  15.482  0.00  0.00    +0.000 C 
ATOM     23  O   UNL     1      47.955   8.984  15.844  0.00  0.00    +0.000 OA
BRANCH  22  24
ATOM     24  C   UNL     1      48.747   6.787  15.970  0.00  0.00    +0.000 A 
ATOM     25  C   UNL     1      48.107   5.778  15.274  0.00  0.00    +0.000 A 
ATOM     26  S   UNL     1      47.672   4.456  16.247  0.00  0.00    +0.000 S 
ATOM     27  C   UNL     1      48.413   5.151  17.628  0.00  0.00    +0.000 A 
ATOM     28  C   UNL     1      48.376   4.636  18.929  0.00  0.00    +0.000 A 
ATOM     29  N   UNL     1      49.117   5.198  19.907  0.00  0.00    +0.000 NA
ATOM     30  C   UNL     1      49.893   6.254  19.595  0.00  0.00    +0.000 A 
ATOM     31  C   UNL     1      49.916   6.853  18.346  0.00  0.00    +0.000 A 
ATOM     32 CL   UNL     1      51.021   8.097  17.972  0.00  0.00    +0.000 Cl
ATOM     33  C   UNL     1      49.106   6.329  17.316  0.00  0.00    +0.000 A 
ENDBRANCH  22  24
ENDBRANCH  19  20
ENDBRANCH   1  19
TORSDOF 8
ENDMDL
MODEL 3
REMARK VINA RESULT:    -6.842      1.596      2.012
REMARK INTER + INTRA:         -11.376
REMARK INTER:                 -11.245
REMARK INTRA:                  -0.131
REMARK UNBOUND:                -1.334
REMARK  Name = 
REMARK  11 active torsions:
REMARK  status: ('A' for Active; 'I' for Inactive)
REMARK    1  A    between atoms: C_1  and  C_2
REMARK    2  A    between atoms: C_2  and  C_3
REMARK    3  A    between atoms: C_2  and  N_20
REMARK    4  A    between atoms: C_3  and  C_4
REMARK    5  A    between atoms: C_7  and  C_8
REMARK    6  A    between atoms: C_8  and  N_9
REMARK    7  A    between atoms: N_9  and  C_10
REMARK    8  A    between atoms: N_9  and  C_11
REMARK    9  A    between atoms: C_11  and  C_12
REMARK   10  A    between atoms: N_20  and  C_21
REMARK   11  A    between atoms: C_22  and  C_24
REMARK                            x       y       z     vdW  Elec       q    Type
REMARK                         _______ _______ _______ _____ _____    ______ ____
ROOT
ATOM      1  C   UNL     1      48.497   9.510  12.292  0.00  0.00    +0.000 C 
ENDROOT
BRANCH   1   2
ATOM      2  C   UNL     1      47.367   8.516  12.166  0.00  0.00    +0.000 A 
ATOM      3  C   UNL     1      47.580   7.277  11.554  0.00  0.00    +0.000 A 
ATOM      4  C   UNL     1      46.536   6.367  11.404  0.00  0.00    +0.000 A 
ATOM      5  C   UNL     1      45.261   6.661  11.903  0.00  0.00    +0.000 A 
ATOM      6  C   UNL     1      45.048   7.894  12.531  0.00  0.00    +0.000 A 
ATOM      7  C   UNL     1      46.091   8.810  12.663  0.00  0.00    +0.000 A 
BRANCH   5   8
ATOM      8  C   UNL     1      44.146   5.641  11.802  0.00  0.00    +0.000 C 
BRANCH   8   9
ATOM      9  N   UNL     1      44.620   4.314  11.353  0.00  0.00    +0.000 NA
ATOM     10  C   UNL     1      44.164   3.259  12.269  0.00  0.00    +0.000 C 
BRANCH   9  11
ATOM     11  C   UNL     1      44.107   4.019   9.997  0.00  0.00    +0.000 C 
BRANCH  11  12
ATOM     12  C   UNL     1      45.131   3.457   9.026  0.00  0.00    +0.000 A 
ATOM     13  C   UNL     1      45.385   2.086   8.977  0.00  0.00    +0.000 A 
ATOM     14  C   UNL     1      46.283   1.603   8.030  0.00  0.00    +0.000 A 
ATOM     15  C   UNL     1      46.908   2.495   7.166  0.00  0.00    +0.000 A 
ATOM     16  C   UNL     1      46.618   3.842   7.295  0.00  0.00    +0.000 A 
ATOM     17  N   UNL     1      45.749   4.341   8.201  0.00  0.00    +0.000 NA
ENDBRANCH  11  12
ENDBRANCH   9  11
ENDBRANCH   8   9
ENDBRANCH   5   8
ENDBRANCH   1   2
BRANCH   1  19
ATOM     18  C   UNL     1      50.708   8.359  12.793  0.00  0.00    +0.000 C 
ATOM     19  C   UNL     1      49.555   9.176  13.388  0.00  0.00    +0.000 C 
BRANCH  19  20
ATOM     20  N   UNL     1      48.940   8.639  14.632  0.00  0.00    +0.000 N 
ATOM     21  C   UNL     1      48.091   9.476  15.469  0.00  0.00    +0.000 C 
ATOM     22  C   UNL     1      49.078   7.263  14.867  0.00  0.00    +0.000 C 
ATOM     23  O   UNL     1      49.390   6.495  13.953  0.00  0.00    +0.000 OA
BRANCH  22  24
ATOM     24  C   UNL     1      49.039   6.749  16.251  0.00  0.00    +0.000 A 
ATOM     25  C   UNL     1      49.658   7.391  17.308  0.00  0.00    +0.000 A 
ATOM     26  S   UNL     1      49.959   6.373  18.633  0.00  0.00    +0.000 S 
ATOM     27  C   UNL     1      49.181   5.049  17.870  0.00  0.00    +0.000 A 
ATOM     28  C   UNL     1      49.113   3.740  18.361  0.00  0.00    +0.000 A 
ATOM     29  N   UNL     1      48.352   2.816  17.738  0.00  0.00    +0.000 NA
ATOM     30  C   UNL     1      47.658   3.190  16.646  0.00  0.00    +0.000 A 
ATOM     31  C   UNL     1      47.742   4.447  16.071  0.00  0.00    +0.000 A 
ATOM     32 CL   UNL     1      46.735   4.905  14.773  0.00  0.00    +0.000 Cl
ATOM     33  C   UNL     1      48.577   5.420  16.661  0.00  0.00    +0.000 A 
ENDBRANCH  22  24
ENDBRANCH  19  20
ENDBRANCH   1  19
TORSDOF 8
ENDMDL
MODEL 4
REMARK VINA RESULT:    -6.654      1.349      1.915
REMARK INTER + INTRA:         -11.100
REMARK INTER:                 -10.057
REMARK INTRA:                  -1.043
REMARK UNBOUND:                -1.334
REMARK  Name = 
REMARK  11 active torsions:
REMARK  status: ('A' for Active; 'I' for Inactive)
REMARK    1  A    between atoms: C_1  and  C_2
REMARK    2  A    between atoms: C_2  and  C_3
REMARK    3  A    between atoms: C_2  and  N_20
REMARK    4  A    between atoms: C_3  and  C_4
REMARK    5  A    between atoms: C_7  and  C_8
REMARK    6  A    between atoms: C_8  and  N_9
REMARK    7  A    between atoms: N_9  and  C_10
REMARK    8  A    between atoms: N_9  and  C_11
REMARK    9  A    between atoms: C_11  and  C_12
REMARK   10  A    between atoms: N_20  and  C_21
REMARK   11  A    between atoms: C_22  and  C_24
REMARK                            x       y       z     vdW  Elec       q    Type
REMARK                         _______ _______ _______ _____ _____    ______ ____
ROOT
ATOM      1  C   UNL     1      51.277   8.192  14.242  0.00  0.00    +0.000 C 
ENDROOT
BRANCH   1   2
ATOM      2  C   UNL     1      49.926   7.873  13.644  0.00  0.00    +0.000 A 
ATOM      3  C   UNL     1      48.857   7.509  14.469  0.00  0.00    +0.000 A 
ATOM      4  C   UNL     1      47.617   7.180  13.926  0.00  0.00    +0.000 A 
ATOM      5  C   UNL     1      47.407   7.250  12.543  0.00  0.00    +0.000 A 
ATOM      6  C   UNL     1      48.471   7.630  11.715  0.00  0.00    +0.000 A 
ATOM      7  C   UNL     1      49.716   7.940  12.261  0.00  0.00    +0.000 A 
BRANCH   5   8
ATOM      8  C   UNL     1      46.039   6.962  11.960  0.00  0.00    +0.000 C 
BRANCH   8   9
ATOM      9  N   UNL     1      45.821   5.524  11.693  0.00  0.00    +0.000 NA
ATOM     10  C   UNL     1      45.218   4.862  12.858  0.00  0.00    +0.000 C 
BRANCH   9  11
ATOM     11  C   UNL     1      44.923   5.349  10.530  0.00  0.00    +0.000 C 
BRANCH  11  12
ATOM     12  C   UNL     1      45.358   4.293   9.529  0.00  0.00    +0.000 A 
ATOM     13  C   UNL     1      45.084   2.944   9.756  0.00  0.00    +0.000 A 
ATOM     14  C   UNL     1      45.442   2.014   8.784  0.00  0.00    +0.000 A 
ATOM     15  C   UNL     1      46.068   2.449   7.622  0.00  0.00    +0.000 A 
ATOM     16  C   UNL     1      46.325   3.802   7.484  0.00  0.00    +0.000 A 
ATOM     17  N   UNL     1      45.986   4.729   8.406  0.00  0.00    +0.000 NA
ENDBRANCH  11  12
ENDBRANCH   9  11
ENDBRANCH   8   9
ENDBRANCH   5   8
ENDBRANCH   1   2
BRANCH   1  19
ATOM     18  C   UNL     1      51.883   9.642  16.240  0.00  0.00    +0.000 C 
ATOM     19  C   UNL     1      51.306   8.293  15.797  0.00  0.00    +0.000 C 
BRANCH  19  20
ATOM     20  N   UNL     1      51.892   7.084  16.438  0.00  0.00    +0.000 N 
ATOM     21  C   UNL     1      53.162   6.535  15.980  0.00  0.00    +0.000 C 
ATOM     22  C   UNL     1      51.258   6.607  17.595  0.00  0.00    +0.000 C 
ATOM     23  O   UNL     1      50.479   7.324  18.229  0.00  0.00    +0.000 OA
BRANCH  22  24
ATOM     24  C   UNL     1      51.370   5.179  17.955  0.00  0.00    +0.000 A 
ATOM     25  C   UNL     1      52.492   4.643  18.560  0.00  0.00    +0.000 A 
ATOM     26  S   UNL     1      52.626   2.961  18.364  0.00  0.00    +0.000 S 
ATOM     27  C   UNL     1      51.127   2.877  17.536  0.00  0.00    +0.000 A 
ATOM     28  C   UNL     1      50.579   1.735  16.942  0.00  0.00    +0.000 A 
ATOM     29  N   UNL     1      49.326   1.761  16.441  0.00  0.00    +0.000 NA
ATOM     30  C   UNL     1      48.621   2.905  16.540  0.00  0.00    +0.000 A 
ATOM     31  C   UNL     1      49.134   4.086  17.050  0.00  0.00    +0.000 A 
ATOM     32 CL   UNL     1      48.152   5.462  17.278  0.00  0.00    +0.000 Cl
ATOM     33  C   UNL     1      50.463   4.112  17.526  0.00  0.00    +0.000 A 
ENDBRANCH  22  24
ENDBRANCH  19  20
ENDBRANCH   1  19
TORSDOF 8
ENDMDL
MODEL 5
REMARK VINA RESULT:    -6.620      2.154      3.018
REMARK INTER + INTRA:         -11.050
REMARK INTER:                 -10.152
REMARK INTRA:                  -0.899
REMARK UNBOUND:                -1.334
REMARK  Name = 
REMARK  11 active torsions:
REMARK  status: ('A' for Active; 'I' for Inactive)
REMARK    1  A    between atoms: C_1  and  C_2
REMARK    2  A    between atoms: C_2  and  C_3
REMARK    3  A    between atoms: C_2  and  N_20
REMARK    4  A    between atoms: C_3  and  C_4
REMARK    5  A    between atoms: C_7  and  C_8
REMARK    6  A    between atoms: C_8  and  N_9
REMARK    7  A    between atoms: N_9  and  C_10
REMARK    8  A    between atoms: N_9  and  C_11
REMARK    9  A    between atoms: C_11  and  C_12
REMARK   10  A    between atoms: N_20  and  C_21
REMARK   11  A    between atoms: C_22  and  C_24
REMARK                            x       y       z     vdW  Elec       q    Type
REMARK                         _______ _______ _______ _____ _____    ______ ____
ROOT
ATOM      1  C   UNL     1      46.400   8.887  13.480  0.00  0.00    +0.000 C 
ENDROOT
BRANCH   1   2
ATOM      2  C   UNL     1      45.719   7.765  12.732  0.00  0.00    +0.000 A 
ATOM      3  C   UNL     1      44.929   8.040  11.611  0.00  0.00    +0.000 A 
ATOM      4  C   UNL     1      44.270   7.016  10.934  0.00  0.00    +0.000 A 
ATOM      5  C   UNL     1      44.424   5.684  11.340  0.00  0.00    +0.000 A 
ATOM      6  C   UNL     1      45.228   5.403  12.452  0.00  0.00    +0.000 A 
ATOM      7  C   UNL     1      45.870   6.433  13.138  0.00  0.00    +0.000 A 
BRANCH   5   8
ATOM      8  C   UNL     1      43.765   4.565  10.560  0.00  0.00    +0.000 C 
BRANCH   8   9
ATOM      9  N   UNL     1      44.521   3.295  10.628  0.00  0.00    +0.000 NA
ATOM     10  C   UNL     1      44.116   2.510  11.803  0.00  0.00    +0.000 C 
BRANCH   9  11
ATOM     11  C   UNL     1      44.280   2.489   9.412  0.00  0.00    +0.000 C 
BRANCH  11  12
ATOM     12  C   UNL     1      45.438   2.437   8.431  0.00  0.00    +0.000 A 
ATOM     13  C   UNL     1      45.791   3.563   7.688  0.00  0.00    +0.000 A 
ATOM     14  C   UNL     1      46.899   3.492   6.847  0.00  0.00    +0.000 A 
ATOM     15  C   UNL     1      47.617   2.306   6.763  0.00  0.00    +0.000 A 
ATOM     16  C   UNL     1      47.186   1.227   7.516  0.00  0.00    +0.000 A 
ATOM     17  N   UNL     1      46.120   1.265   8.343  0.00  0.00    +0.000 NA
ENDBRANCH  11  12
ENDBRANCH   9  11
ENDBRANCH   8   9
ENDBRANCH   5   8
ENDBRANCH   1   2
BRANCH   1  19
ATOM     18  C   UNL     1      48.216   9.398  11.777  0.00  0.00    +0.000 C 
ATOM     19  C   UNL     1      47.934   9.013  13.234  0.00  0.00    +0.000 C 
BRANCH  19  20
ATOM     20  N   UNL     1      48.697   7.853  13.768  0.00  0.00    +0.000 N 
ATOM     21  C   UNL     1      49.373   6.924  12.870  0.00  0.00    +0.000 C 
ATOM     22  C   UNL     1      48.874   7.792  15.157  0.00  0.00    +0.000 C 
ATOM     23  O   UNL     1      48.704   8.793  15.859  0.00  0.00    +0.000 OA
BRANCH  22  24
ATOM     24  C   UNL     1      49.076   6.485  15.814  0.00  0.00    +0.000 A 
ATOM     25  C   UNL     1      48.063   5.555  15.966  0.00  0.00    +0.000 A 
ATOM     26  S   UNL     1      48.362   4.426  17.198  0.00  0.00    +0.000 S 
ATOM     27  C   UNL     1      49.912   5.088  17.512  0.00  0.00    +0.000 A 
ATOM     28  C   UNL     1      50.778   4.703  18.541  0.00  0.00    +0.000 A 
ATOM     29  N   UNL     1      52.032   5.200  18.601  0.00  0.00    +0.000 NA
ATOM     30  C   UNL     1      52.423   6.063  17.644  0.00  0.00    +0.000 A 
ATOM     31  C   UNL     1      51.590   6.538  16.644  0.00  0.00    +0.000 A 
ATOM     32 CL   UNL     1      52.180   7.519  15.380  0.00  0.00    +0.000 Cl
ATOM     33  C   UNL     1      50.255   6.086  16.588  0.00  0.00    +0.000 A 
ENDBRANCH  22  24
ENDBRANCH  19  20
ENDBRANCH   1  19
TORSDOF 8
ENDMDL
MODEL 6
REMARK VINA RESULT:    -6.618      2.284      2.728
REMARK INTER + INTRA:         -11.047
REMARK INTER:                  -9.923
REMARK INTRA:                  -1.124
REMARK UNBOUND:                -1.334
REMARK  Name = 
REMARK  11 active torsions:
REMARK  status: ('A' for Active; 'I' for Inactive)
REMARK    1  A    between atoms: C_1  and  C_2
REMARK    2  A    between atoms: C_2  and  C_3
REMARK    3  A    between atoms: C_2  and  N_20
REMARK    4  A    between atoms: C_3  and  C_4
REMARK    5  A    between atoms: C_7  and  C_8
REMARK    6  A    between atoms: C_8  and  N_9
REMARK    7  A    between atoms: N_9  and  C_10
REMARK    8  A    between atoms: N_9  and  C_11
REMARK    9  A    between atoms: C_11  and  C_12
REMARK   10  A    between atoms: N_20  and  C_21
REMARK   11  A    between atoms: C_22  and  C_24
REMARK                            x       y       z     vdW  Elec       q    Type
REMARK                         _______ _______ _______ _____ _____    ______ ____
ROOT
ATOM      1  C   UNL     1      48.850   6.374  15.180  0.00  0.00    +0.000 C 
ENDROOT
BRANCH   1   2
ATOM      2  C   UNL     1      47.750   6.232  14.153  0.00  0.00    +0.000 A 
ATOM      3  C   UNL     1      47.154   4.988  13.924  0.00  0.00    +0.000 A 
ATOM      4  C   UNL     1      46.162   4.839  12.957  0.00  0.00    +0.000 A 
ATOM      5  C   UNL     1      45.713   5.946  12.226  0.00  0.00    +0.000 A 
ATOM      6  C   UNL     1      46.296   7.197  12.464  0.00  0.00    +0.000 A 
ATOM      7  C   UNL     1      47.302   7.338  13.420  0.00  0.00    +0.000 A 
BRANCH   5   8
ATOM      8  C   UNL     1      44.585   5.797  11.226  0.00  0.00    +0.000 C 
BRANCH   8   9
ATOM      9  N   UNL     1      44.385   4.398  10.791  0.00  0.00    +0.000 NA
ATOM     10  C   UNL     1      43.193   3.819  11.426  0.00  0.00    +0.000 C 
BRANCH   9  11
ATOM     11  C   UNL     1      44.217   4.337   9.322  0.00  0.00    +0.000 C 
BRANCH  11  12
ATOM     12  C   UNL     1      45.266   3.524   8.585  0.00  0.00    +0.000 A 
ATOM     13  C   UNL     1      45.395   2.154   8.816  0.00  0.00    +0.000 A 
ATOM     14  C   UNL     1      46.324   1.432   8.073  0.00  0.00    +0.000 A 
ATOM     15  C   UNL     1      47.103   2.091   7.130  0.00  0.00    +0.000 A 
ATOM     16  C   UNL     1      46.931   3.456   6.978  0.00  0.00    +0.000 A 
ATOM     17  N   UNL     1      46.035   4.183   7.680  0.00  0.00    +0.000 NA
ENDBRANCH  11  12
ENDBRANCH   9  11
ENDBRANCH   8   9
ENDBRANCH   5   8
ENDBRANCH   1   2
BRANCH   1  19
ATOM     18  C   UNL     1      50.484   8.088  14.255  0.00  0.00    +0.000 C 
ATOM     19  C   UNL     1      49.430   7.813  15.334  0.00  0.00    +0.000 C 
BRANCH  19  20
ATOM     20  N   UNL     1      49.824   8.125  16.735  0.00  0.00    +0.000 N 
ATOM     21  C   UNL     1      51.224   8.102  17.140  0.00  0.00    +0.000 C 
ATOM     22  C   UNL     1      48.818   8.598  17.589  0.00  0.00    +0.000 C 
ATOM     23  O   UNL     1      47.761   9.045  17.133  0.00  0.00    +0.000 OA
BRANCH  22  24
ATOM     24  C   UNL     1      48.936   8.389  19.046  0.00  0.00    +0.000 A 
ATOM     25  C   UNL     1      49.270   9.401  19.926  0.00  0.00    +0.000 A 
ATOM     26  S   UNL     1      49.885   8.835  21.404  0.00  0.00    +0.000 S 
ATOM     27  C   UNL     1      49.635   7.201  20.952  0.00  0.00    +0.000 A 
ATOM     28  C   UNL     1      50.021   6.075  21.688  0.00  0.00    +0.000 A 
ATOM     29  N   UNL     1      49.644   4.840  21.296  0.00  0.00    +0.000 NA
ATOM     30  C   UNL     1      48.883   4.725  20.190  0.00  0.00    +0.000 A 
ATOM     31  C   UNL     1      48.532   5.793  19.381  0.00  0.00    +0.000 A 
ATOM     32 CL   UNL     1      47.452   5.605  18.074  0.00  0.00    +0.000 Cl
ATOM     33  C   UNL     1      48.961   7.091  19.727  0.00  0.00    +0.000 A 
ENDBRANCH  22  24
ENDBRANCH  19  20
ENDBRANCH   1  19
TORSDOF 8
ENDMDL
MODEL 7
REMARK VINA RESULT:    -6.519      2.325      3.099
REMARK INTER + INTRA:         -10.901
REMARK INTER:                  -8.857
REMARK INTRA:                  -2.044
REMARK UNBOUND:                -1.334
REMARK  Name = 
REMARK  11 active torsions:
REMARK  status: ('A' for Active; 'I' for Inactive)
REMARK    1  A    between atoms: C_1  and  C_2
REMARK    2  A    between atoms: C_2  and  C_3
REMARK    3  A    between atoms: C_2  and  N_20
REMARK    4  A    between atoms: C_3  and  C_4
REMARK    5  A    between atoms: C_7  and  C_8
REMARK    6  A    between atoms: C_8  and  N_9
REMARK    7  A    between atoms: N_9  and  C_10
REMARK    8  A    between atoms: N_9  and  C_11
REMARK    9  A    between atoms: C_11  and  C_12
REMARK   10  A    between atoms: N_20  and  C_21
REMARK   11  A    between atoms: C_22  and  C_24
REMARK                            x       y       z     vdW  Elec       q    Type
REMARK                         _______ _______ _______ _____ _____    ______ ____
ROOT
ATOM      1  C   UNL     1      50.466   9.526  11.750  0.00  0.00    +0.000 C 
ENDROOT
BRANCH   1   2
ATOM      2  C   UNL     1      49.102   8.893  11.902  0.00  0.00    +0.000 A 
ATOM      3  C   UNL     1      48.971   7.501  11.954  0.00  0.00    +0.000 A 
ATOM      4  C   UNL     1      47.715   6.907  12.061  0.00  0.00    +0.000 A 
ATOM      5  C   UNL     1      46.563   7.697  12.161  0.00  0.00    +0.000 A 
ATOM      6  C   UNL     1      46.692   9.091  12.125  0.00  0.00    +0.000 A 
ATOM      7  C   UNL     1      47.949   9.681  11.999  0.00  0.00    +0.000 A 
BRANCH   5   8
ATOM      8  C   UNL     1      45.206   7.051  12.349  0.00  0.00    +0.000 C 
BRANCH   8   9
ATOM      9  N   UNL     1      45.222   5.595  12.085  0.00  0.00    +0.000 NA
ATOM     10  C   UNL     1      44.959   4.839  13.318  0.00  0.00    +0.000 C 
BRANCH   9  11
ATOM     11  C   UNL     1      44.191   5.245  11.084  0.00  0.00    +0.000 C 
BRANCH  11  12
ATOM     12  C   UNL     1      44.643   4.280  10.001  0.00  0.00    +0.000 A 
ATOM     13  C   UNL     1      45.443   4.720   8.947  0.00  0.00    +0.000 A 
ATOM     14  C   UNL     1      45.890   3.792   8.010  0.00  0.00    +0.000 A 
ATOM     15  C   UNL     1      45.522   2.459   8.143  0.00  0.00    +0.000 A 
ATOM     16  C   UNL     1      44.707   2.108   9.205  0.00  0.00    +0.000 A 
ATOM     17  N   UNL     1      44.261   2.983  10.132  0.00  0.00    +0.000 NA
ENDBRANCH  11  12
ENDBRANCH   9  11
ENDBRANCH   8   9
ENDBRANCH   5   8
ENDBRANCH   1   2
BRANCH   1  19
ATOM     18  C   UNL     1      51.798  11.544  12.534  0.00  0.00    +0.000 C 
ATOM     19  C   UNL     1      50.958  10.343  12.983  0.00  0.00    +0.000 C 
BRANCH  19  20
ATOM     20  N   UNL     1      51.553   9.482  14.041  0.00  0.00    +0.000 N 
ATOM     21  C   UNL     1      52.583   8.502  13.716  0.00  0.00    +0.000 C 
ATOM     22  C   UNL     1      51.203   9.770  15.368  0.00  0.00    +0.000 C 
ATOM     23  O   UNL     1      50.710  10.860  15.668  0.00  0.00    +0.000 OA
BRANCH  22  24
ATOM     24  C   UNL     1      51.246   8.699  16.385  0.00  0.00    +0.000 A 
ATOM     25  C   UNL     1      52.297   8.544  17.269  0.00  0.00    +0.000 A 
ATOM     26  S   UNL     1      52.401   6.983  17.928  0.00  0.00    +0.000 S 
ATOM     27  C   UNL     1      50.975   6.481  17.119  0.00  0.00    +0.000 A 
ATOM     28  C   UNL     1      50.448   5.185  17.109  0.00  0.00    +0.000 A 
ATOM     29  N   UNL     1      49.243   4.942  16.552  0.00  0.00    +0.000 NA
ATOM     30  C   UNL     1      48.564   5.977  16.021  0.00  0.00    +0.000 A 
ATOM     31  C   UNL     1      49.065   7.266  15.935  0.00  0.00    +0.000 A 
ATOM     32 CL   UNL     1      48.105   8.562  15.379  0.00  0.00    +0.000 Cl
ATOM     33  C   UNL     1      50.348   7.543  16.451  0.00  0.00    +0.000 A 
ENDBRANCH  22  24
ENDBRANCH  19  20
ENDBRANCH   1  19
TORSDOF 8
ENDMDL
MODEL 8
REMARK VINA RESULT:    -6.441      2.084      2.940
REMARK INTER + INTRA:         -10.788
REMARK INTER:                  -9.533
REMARK INTRA:                  -1.254
REMARK UNBOUND:                -1.334
REMARK  Name = 
REMARK  11 active torsions:
REMARK  status: ('A' for Active; 'I' for Inactive)
REMARK    1  A    between atoms: C_1  and  C_2
REMARK    2  A    between atoms: C_2  and  C_3
REMARK    3  A    between atoms: C_2  and  N_20
REMARK    4  A    between atoms: C_3  and  C_4
REMARK    5  A    between atoms: C_7  and  C_8
REMARK    6  A    between atoms: C_8  and  N_9
REMARK    7  A    between atoms: N_9  and  C_10
REMARK    8  A    between atoms: N_9  and  C_11
REMARK    9  A    between atoms: C_11  and  C_12
REMARK   10  A    between atoms: N_20  and  C_21
REMARK   11  A    between atoms: C_22  and  C_24
REMARK                            x       y       z     vdW  Elec       q    Type
REMARK                         _______ _______ _______ _____ _____    ______ ____
ROOT
ATOM      1  C   UNL     1      47.670   9.864  13.478  0.00  0.00    +0.000 C 
ENDROOT
BRANCH   1   2
ATOM      2  C   UNL     1      46.740   8.806  12.932  0.00  0.00    +0.000 A 
ATOM      3  C   UNL     1      45.633   9.169  12.158  0.00  0.00    +0.000 A 
ATOM      4  C   UNL     1      44.751   8.203  11.678  0.00  0.00    +0.000 A 
ATOM      5  C   UNL     1      44.983   6.844  11.928  0.00  0.00    +0.000 A 
ATOM      6  C   UNL     1      46.098   6.476  12.690  0.00  0.00    +0.000 A 
ATOM      7  C   UNL     1      46.969   7.447  13.184  0.00  0.00    +0.000 A 
BRANCH   5   8
ATOM      8  C   UNL     1      44.063   5.791  11.346  0.00  0.00    +0.000 C 
BRANCH   8   9
ATOM      9  N   UNL     1      44.753   4.510  11.080  0.00  0.00    +0.000 NA
ATOM     10  C   UNL     1      44.575   3.578  12.201  0.00  0.00    +0.000 C 
BRANCH   9  11
ATOM     11  C   UNL     1      44.215   3.884   9.852  0.00  0.00    +0.000 C 
BRANCH  11  12
ATOM     12  C   UNL     1      45.259   3.372   8.876  0.00  0.00    +0.000 A 
ATOM     13  C   UNL     1      45.546   2.010   8.792  0.00  0.00    +0.000 A 
ATOM     14  C   UNL     1      46.463   1.574   7.840  0.00  0.00    +0.000 A 
ATOM     15  C   UNL     1      47.073   2.503   7.005  0.00  0.00    +0.000 A 
ATOM     16  C   UNL     1      46.750   3.839   7.168  0.00  0.00    +0.000 A 
ATOM     17  N   UNL     1      45.862   4.292   8.079  0.00  0.00    +0.000 NA
ENDBRANCH  11  12
ENDBRANCH   9  11
ENDBRANCH   8   9
ENDBRANCH   5   8
ENDBRANCH   1   2
BRANCH   1  19
ATOM     18  C   UNL     1      48.892   9.870  11.249  0.00  0.00    +0.000 C 
ATOM     19  C   UNL     1      49.057   9.956  12.771  0.00  0.00    +0.000 C 
BRANCH  19  20
ATOM     20  N   UNL     1      50.070   9.049  13.376  0.00  0.00    +0.000 N 
ATOM     21  C   UNL     1      50.550   7.877  12.655  0.00  0.00    +0.000 C 
ATOM     22  C   UNL     1      50.654   9.463  14.582  0.00  0.00    +0.000 C 
ATOM     23  O   UNL     1      50.587  10.641  14.944  0.00  0.00    +0.000 OA
BRANCH  22  24
ATOM     24  C   UNL     1      51.187   8.455  15.520  0.00  0.00    +0.000 A 
ATOM     25  C   UNL     1      52.517   8.077  15.541  0.00  0.00    +0.000 A 
ATOM     26  S   UNL     1      52.778   6.564  16.267  0.00  0.00    +0.000 S 
ATOM     27  C   UNL     1      51.119   6.402  16.668  0.00  0.00    +0.000 A 
ATOM     28  C   UNL     1      50.518   5.279  17.246  0.00  0.00    +0.000 A 
ATOM     29  N   UNL     1      49.229   5.323  17.644  0.00  0.00    +0.000 NA
ATOM     30  C   UNL     1      48.549   6.473  17.481  0.00  0.00    +0.000 A 
ATOM     31  C   UNL     1      49.065   7.593  16.850  0.00  0.00    +0.000 A 
ATOM     32 CL   UNL     1      48.205   9.065  16.796  0.00  0.00    +0.000 Cl
ATOM     33  C   UNL     1      50.390   7.561  16.365  0.00  0.00    +0.000 A 
ENDBRANCH  22  24
ENDBRANCH  19  20
ENDBRANCH   1  19
TORSDOF 8
ENDMDL
MODEL 9
REMARK VINA RESULT:    -6.228      3.179      7.537
REMARK INTER + INTRA:         -10.474
REMARK INTER:                  -8.664
REMARK INTRA:                  -1.810
REMARK UNBOUND:                -1.334
REMARK  Name = 
REMARK  11 active torsions:
REMARK  status: ('A' for Active; 'I' for Inactive)
REMARK    1  A    between atoms: C_1  and  C_2
REMARK    2  A    between atoms: C_2  and  C_3
REMARK    3  A    between atoms: C_2  and  N_20
REMARK    4  A    between atoms: C_3  and  C_4
REMARK    5  A    between atoms: C_7  and  C_8
REMARK    6  A    between atoms: C_8  and  N_9
REMARK    7  A    between atoms: N_9  and  C_10
REMARK    8  A    between atoms: N_9  and  C_11
REMARK    9  A    between atoms: C_11  and  C_12
REMARK   10  A    between atoms: N_20  and  C_21
REMARK   11  A    between atoms: C_22  and  C_24
REMARK                            x       y       z     vdW  Elec       q    Type
REMARK                         _______ _______ _______ _____ _____    ______ ____
ROOT
ATOM      1  C   UNL     1      49.491   9.138  12.884  0.00  0.00    +0.000 C 
ENDROOT
BRANCH   1   2
ATOM      2  C   UNL     1      49.242   8.826  14.342  0.00  0.00    +0.000 A 
ATOM      3  C   UNL     1      49.446   7.533  14.833  0.00  0.00    +0.000 A 
ATOM      4  C   UNL     1      49.188   7.228  16.168  0.00  0.00    +0.000 A 
ATOM      5  C   UNL     1      48.760   8.225  17.053  0.00  0.00    +0.000 A 
ATOM      6  C   UNL     1      48.570   9.525  16.569  0.00  0.00    +0.000 A 
ATOM      7  C   UNL     1      48.811   9.822  15.227  0.00  0.00    +0.000 A 
BRANCH   5   8
ATOM      8  C   UNL     1      48.549   7.908  18.519  0.00  0.00    +0.000 C 
BRANCH   8   9
ATOM      9  N   UNL     1      49.435   6.829  19.007  0.00  0.00    +0.000 NA
ATOM     10  C   UNL     1      50.243   7.292  20.144  0.00  0.00    +0.000 C 
BRANCH   9  11
ATOM     11  C   UNL     1      48.634   5.663  19.436  0.00  0.00    +0.000 C 
BRANCH  11  12
ATOM     12  C   UNL     1      48.718   4.450  18.527  0.00  0.00    +0.000 A 
ATOM     13  C   UNL     1      47.578   3.957  17.891  0.00  0.00    +0.000 A 
ATOM     14  C   UNL     1      47.708   2.884  17.015  0.00  0.00    +0.000 A 
ATOM     15  C   UNL     1      48.963   2.326  16.802  0.00  0.00    +0.000 A 
ATOM     16  C   UNL     1      50.040   2.858  17.489  0.00  0.00    +0.000 A 
ATOM     17  N   UNL     1      49.947   3.901  18.342  0.00  0.00    +0.000 NA
ENDBRANCH  11  12
ENDBRANCH   9  11
ENDBRANCH   8   9
ENDBRANCH   5   8
ENDBRANCH   1   2
BRANCH   1  19
ATOM     18  C   UNL     1      47.821  10.805  11.938  0.00  0.00    +0.000 C 
ATOM     19  C   UNL     1      48.208   9.323  12.018  0.00  0.00    +0.000 C 
BRANCH  19  20
ATOM     20  N   UNL     1      47.121   8.379  12.395  0.00  0.00    +0.000 N 
ATOM     21  C   UNL     1      46.004   8.815  13.224  0.00  0.00    +0.000 C 
ATOM     22  C   UNL     1      47.136   7.117  11.784  0.00  0.00    +0.000 C 
ATOM     23  O   UNL     1      47.798   6.917  10.762  0.00  0.00    +0.000 OA
BRANCH  22  24
ATOM     24  C   UNL     1      46.512   5.966  12.468  0.00  0.00    +0.000 A 
ATOM     25  C   UNL     1      47.179   5.194  13.401  0.00  0.00    +0.000 A 
ATOM     26  S   UNL     1      46.496   3.654  13.617  0.00  0.00    +0.000 S 
ATOM     27  C   UNL     1      45.217   4.002  12.529  0.00  0.00    +0.000 A 
ATOM     28  C   UNL     1      44.235   3.103  12.101  0.00  0.00    +0.000 A 
ATOM     29  N   UNL     1      43.197   3.532  11.352  0.00  0.00    +0.000 NA
ATOM     30  C   UNL     1      43.130   4.841  11.042  0.00  0.00    +0.000 A 
ATOM     31  C   UNL     1      44.108   5.764  11.374  0.00  0.00    +0.000 A 
ATOM     32 CL   UNL     1      43.901   7.431  11.077  0.00  0.00    +0.000 Cl
ATOM     33  C   UNL     1      45.238   5.338  12.104  0.00  0.00    +0.000 A 
ENDBRANCH  22  24
ENDBRANCH  19  20
ENDBRANCH   1  19
TORSDOF 8
ENDMDL
