MODEL 1
REMARK VINA RESULT:    -7.107      0.000      0.000
REMARK INTER + INTRA:         -12.172
REMARK INTER:                 -10.639
REMARK INTRA:                  -1.533
REMARK UNBOUND:                -1.533
REMARK  Name = 
REMARK  9 active torsions:
REMARK  status: ('A' for Active; 'I' for Inactive)
REMARK    1  A    between atoms: C_2  and  C_19
REMARK    2  A    between atoms: N_3  and  C_4
REMARK    3  A    between atoms: C_4  and  C_5
REMARK    4  A    between atoms: C_9  and  C_10
REMARK    5  A    between atoms: C_10  and  S_11
REMARK    6  A    between atoms: S_11  and  N_14
REMARK    7  A    between atoms: N_14  and  C_15
REMARK    8  A    between atoms: C_15  and  C_16
REMARK    9  A    between atoms: C_16  and  O_17
REMARK                            x       y       z     vdW  Elec       q    Type
REMARK                         _______ _______ _______ _____ _____    ______ ____
ROOT
ATOM      1  C   UNL     1      46.740   7.989  12.753  0.00  0.00    +0.000 C 
ENDROOT
BRANCH   1   2
ATOM      2  C   UNL     1      45.405   7.455  12.312  0.00  0.00    +0.000 A 
ATOM      3  C   UNL     1      44.603   8.142  11.403  0.00  0.00    +0.000 A 
ATOM      4  C   UNL     1      43.403   7.565  11.013  0.00  0.00    +0.000 A 
ATOM      5  N   UNL     1      42.957   6.368  11.460  0.00  0.00    +0.000 NA
ATOM      6  C   UNL     1      43.707   5.742  12.399  0.00  0.00    +0.000 A 
ATOM      7  C   UNL     1      44.932   6.248  12.832  0.00  0.00    +0.000 A 
BRANCH   6   8
ATOM      8  C   UNL     1      43.242   4.413  12.904  0.00  0.00    +0.000 C 
BRANCH   8   9
ATOM      9  S   UNL     1      43.849   3.099  11.857  0.00  0.00    +0.000 S 
ATOM     10  O   UNL     1      45.215   2.842  12.268  0.00  0.00    +0.000 OA
ATOM     11  O   UNL     1      42.896   2.013  11.780  0.00  0.00    +0.000 OA
BRANCH   9  12
ATOM     12  N   UNL     1      43.941   3.779  10.323  0.00  0.00    +0.000 NA
ATOM     13  H   UNL     1      43.943   4.801  10.300  0.00  0.00    +0.000 HD
BRANCH  12  14
ATOM     14  C   UNL     1      44.779   3.096   9.311  0.00  0.00    +0.000 C 
BRANCH  14  15
ATOM     15  C   UNL     1      45.531   4.093   8.425  0.00  0.00    +0.000 C 
BRANCH  15  16
ATOM     16  O   UNL     1      45.526   5.382   9.034  0.00  0.00    +0.000 OA
ATOM     17  H   UNL     1      46.470   5.598   9.183  0.00  0.00    +0.000 HD
ENDBRANCH  15  16
ENDBRANCH  14  15
ENDBRANCH  12  14
ENDBRANCH   9  12
ENDBRANCH   8   9
ENDBRANCH   6   8
ENDBRANCH   1   2
BRANCH   1  20
ATOM     18  O   UNL     1      48.845   6.167  13.240  0.00  0.00    +0.000 OA
ATOM     19  C   UNL     1      48.211   6.619  14.189  0.00  0.00    +0.000 C 
ATOM     20  N   UNL     1      47.137   7.455  14.029  0.00  0.00    +0.000 N 
ATOM     21  H   UNL     1      46.720   7.888  14.844  0.00  0.00    +0.000 HD
BRANCH  19  22
ATOM     22  C   UNL     1      48.549   6.280  15.575  0.00  0.00    +0.000 A 
ATOM     23  C   UNL     1      49.261   7.175  16.360  0.00  0.00    +0.000 A 
ATOM     24  S   UNL     1      49.565   6.603  17.939  0.00  0.00    +0.000 S 
ATOM     25  C   UNL     1      48.709   5.160  17.642  0.00  0.00    +0.000 A 
ATOM     26  N   UNL     1      48.563   4.219  18.615  0.00  0.00    +0.000 NA
ATOM     27  C   UNL     1      47.856   3.198  18.264  0.00  0.00    +0.000 A 
ATOM     28  N   UNL     1      47.289   3.026  17.028  0.00  0.00    +0.000 N 
ATOM     29  C   UNL     1      47.464   3.917  15.998  0.00  0.00    +0.000 A 
ATOM     30  O   UNL     1      47.034   3.679  14.873  0.00  0.00    +0.000 OA
ATOM     31  C   UNL     1      48.222   5.105  16.352  0.00  0.00    +0.000 A 
ATOM     32  H   UNL     1      46.764   2.192  16.812  0.00  0.00    +0.000 HD
ENDBRANCH  19  22
ENDBRANCH   1  20
TORSDOF 9
ENDMDL
MODEL 2
REMARK VINA RESULT:    -6.683      2.567      7.150
REMARK INTER + INTRA:         -11.536
REMARK INTER:                 -10.266
REMARK INTRA:                  -1.271
REMARK UNBOUND:                -1.533
REMARK  Name = 
REMARK  9 active torsions:
REMARK  status: ('A' for Active; 'I' for Inactive)
REMARK    1  A    between atoms: C_2  and  C_19
REMARK    2  A    between atoms: N_3  and  C_4
REMARK    3  A    between atoms: C_4  and  C_5
REMARK    4  A    between atoms: C_9  and  C_10
REMARK    5  A    between atoms: C_10  and  S_11
REMARK    6  A    between atoms: S_11  and  N_14
REMARK    7  A    between atoms: N_14  and  C_15
REMARK    8  A    between atoms: C_15  and  C_16
REMARK    9  A    between atoms: C_16  and  O_17
REMARK                            x       y       z     vdW  Elec       q    Type
REMARK                         _______ _______ _______ _____ _____    ______ ____
ROOT
ATOM      1  C   UNL     1      48.485   7.409  12.914  0.00  0.00    +0.000 C 
ENDROOT
BRANCH   1   2
ATOM      2  C   UNL     1      48.930   6.936  14.270  0.00  0.00    +0.000 A 
ATOM      3  C   UNL     1      50.178   7.271  14.791  0.00  0.00    +0.000 A 
ATOM      4  C   UNL     1      50.500   6.831  16.067  0.00  0.00    +0.000 A 
ATOM      5  N   UNL     1      49.675   6.093  16.845  0.00  0.00    +0.000 NA
ATOM      6  C   UNL     1      48.494   5.709  16.302  0.00  0.00    +0.000 A 
ATOM      7  C   UNL     1      48.090   6.122  15.033  0.00  0.00    +0.000 A 
BRANCH   6   8
ATOM      8  C   UNL     1      47.559   4.899  17.143  0.00  0.00    +0.000 C 
BRANCH   8   9
ATOM      9  S   UNL     1      47.925   3.158  16.985  0.00  0.00    +0.000 S 
ATOM     10  O   UNL     1      46.855   2.448  17.660  0.00  0.00    +0.000 OA
ATOM     11  O   UNL     1      48.272   2.822  15.621  0.00  0.00    +0.000 OA
BRANCH   9  12
ATOM     12  N   UNL     1      49.304   2.921  17.914  0.00  0.00    +0.000 NA
ATOM     13  H   UNL     1      49.140   2.535  18.846  0.00  0.00    +0.000 HD
BRANCH  12  14
ATOM     14  C   UNL     1      50.537   2.475  17.224  0.00  0.00    +0.000 C 
BRANCH  14  15
ATOM     15  C   UNL     1      51.800   2.998  17.913  0.00  0.00    +0.000 C 
BRANCH  15  16
ATOM     16  O   UNL     1      52.428   1.943  18.637  0.00  0.00    +0.000 OA
ATOM     17  H   UNL     1      52.517   1.209  17.994  0.00  0.00    +0.000 HD
ENDBRANCH  15  16
ENDBRANCH  14  15
ENDBRANCH  12  14
ENDBRANCH   9  12
ENDBRANCH   8   9
ENDBRANCH   6   8
ENDBRANCH   1   2
BRANCH   1  20
ATOM     18  O   UNL     1      45.917   7.889  11.836  0.00  0.00    +0.000 OA
ATOM     19  C   UNL     1      46.421   6.777  11.713  0.00  0.00    +0.000 C 
ATOM     20  N   UNL     1      47.632   6.449  12.263  0.00  0.00    +0.000 N 
ATOM     21  H   UNL     1      48.053   5.557  12.038  0.00  0.00    +0.000 HD
BRANCH  19  22
ATOM     22  C   UNL     1      45.748   5.702  10.975  0.00  0.00    +0.000 A 
ATOM     23  C   UNL     1      45.933   5.572   9.607  0.00  0.00    +0.000 A 
ATOM     24  S   UNL     1      45.066   4.271   8.924  0.00  0.00    +0.000 S 
ATOM     25  C   UNL     1      44.455   3.805  10.444  0.00  0.00    +0.000 A 
ATOM     26  N   UNL     1      43.644   2.719  10.572  0.00  0.00    +0.000 NA
ATOM     27  C   UNL     1      43.292   2.459  11.786  0.00  0.00    +0.000 A 
ATOM     28  N   UNL     1      43.667   3.190  12.884  0.00  0.00    +0.000 N 
ATOM     29  C   UNL     1      44.429   4.329  12.794  0.00  0.00    +0.000 A 
ATOM     30  O   UNL     1      44.655   5.020  13.784  0.00  0.00    +0.000 OA
ATOM     31  C   UNL     1      44.884   4.645  11.452  0.00  0.00    +0.000 A 
ATOM     32  H   UNL     1      43.337   2.944  13.805  0.00  0.00    +0.000 HD
ENDBRANCH  19  22
ENDBRANCH   1  20
TORSDOF 9
ENDMDL
MODEL 3
REMARK VINA RESULT:    -6.584      1.742      2.565
REMARK INTER + INTRA:         -11.388
REMARK INTER:                  -9.177
REMARK INTRA:                  -2.211
REMARK UNBOUND:                -1.533
REMARK  Name = 
REMARK  9 active torsions:
REMARK  status: ('A' for Active; 'I' for Inactive)
REMARK    1  A    between atoms: C_2  and  C_19
REMARK    2  A    between atoms: N_3  and  C_4
REMARK    3  A    between atoms: C_4  and  C_5
REMARK    4  A    between atoms: C_9  and  C_10
REMARK    5  A    between atoms: C_10  and  S_11
REMARK    6  A    between atoms: S_11  and  N_14
REMARK    7  A    between atoms: N_14  and  C_15
REMARK    8  A    between atoms: C_15  and  C_16
REMARK    9  A    between atoms: C_16  and  O_17
REMARK                            x       y       z     vdW  Elec       q    Type
REMARK                         _______ _______ _______ _____ _____    ______ ____
ROOT
ATOM      1  C   UNL     1      48.900   7.731  13.010  0.00  0.00    +0.000 C 
ENDROOT
BRANCH   1   2
ATOM      2  C   UNL     1      47.510   7.512  12.479  0.00  0.00    +0.000 A 
ATOM      3  C   UNL     1      46.404   8.162  13.024  0.00  0.00    +0.000 A 
ATOM      4  C   UNL     1      45.160   7.940  12.453  0.00  0.00    +0.000 A 
ATOM      5  N   UNL     1      44.946   7.128  11.392  0.00  0.00    +0.000 NA
ATOM      6  C   UNL     1      46.014   6.442  10.915  0.00  0.00    +0.000 A 
ATOM      7  C   UNL     1      47.300   6.621  11.423  0.00  0.00    +0.000 A 
BRANCH   6   8
ATOM      8  C   UNL     1      45.809   5.544   9.737  0.00  0.00    +0.000 C 
BRANCH   8   9
ATOM      9  S   UNL     1      44.733   4.185  10.168  0.00  0.00    +0.000 S 
ATOM     10  O   UNL     1      43.381   4.616   9.865  0.00  0.00    +0.000 OA
ATOM     11  O   UNL     1      45.234   2.936   9.636  0.00  0.00    +0.000 OA
BRANCH   9  12
ATOM     12  N   UNL     1      44.826   4.076  11.842  0.00  0.00    +0.000 NA
ATOM     13  H   UNL     1      45.400   4.791  12.293  0.00  0.00    +0.000 HD
BRANCH  12  14
ATOM     14  C   UNL     1      43.614   3.646  12.578  0.00  0.00    +0.000 C 
BRANCH  14  15
ATOM     15  C   UNL     1      42.939   4.814  13.301  0.00  0.00    +0.000 C 
BRANCH  15  16
ATOM     16  O   UNL     1      42.408   5.732  12.348  0.00  0.00    +0.000 OA
ATOM     17  H   UNL     1      41.764   6.275  12.848  0.00  0.00    +0.000 HD
ENDBRANCH  15  16
ENDBRANCH  14  15
ENDBRANCH  12  14
ENDBRANCH   9  12
ENDBRANCH   8   9
ENDBRANCH   6   8
ENDBRANCH   1   2
BRANCH   1  20
ATOM     18  O   UNL     1      48.758   8.527  15.717  0.00  0.00    +0.000 OA
ATOM     19  C   UNL     1      49.020   7.359  15.448  0.00  0.00    +0.000 C 
ATOM     20  N   UNL     1      49.169   6.912  14.162  0.00  0.00    +0.000 N 
ATOM     21  H   UNL     1      49.274   5.919  13.991  0.00  0.00    +0.000 HD
BRANCH  19  22
ATOM     22  C   UNL     1      49.211   6.350  16.496  0.00  0.00    +0.000 A 
ATOM     23  C   UNL     1      50.159   6.547  17.490  0.00  0.00    +0.000 A 
ATOM     24  S   UNL     1      50.242   5.265  18.614  0.00  0.00    +0.000 S 
ATOM     25  C   UNL     1      48.977   4.427  17.838  0.00  0.00    +0.000 A 
ATOM     26  N   UNL     1      48.526   3.236  18.320  0.00  0.00    +0.000 NA
ATOM     27  C   UNL     1      47.537   2.737  17.658  0.00  0.00    +0.000 A 
ATOM     28  N   UNL     1      46.964   3.312  16.553  0.00  0.00    +0.000 N 
ATOM     29  C   UNL     1      47.428   4.478  15.995  0.00  0.00    +0.000 A 
ATOM     30  O   UNL     1      46.962   4.907  14.944  0.00  0.00    +0.000 OA
ATOM     31  C   UNL     1      48.518   5.102  16.725  0.00  0.00    +0.000 A 
ATOM     32  H   UNL     1      46.205   2.857  16.068  0.00  0.00    +0.000 HD
ENDBRANCH  19  22
ENDBRANCH   1  20
TORSDOF 9
ENDMDL
MODEL 4
REMARK VINA RESULT:    -6.578      2.724      3.433
REMARK INTER + INTRA:         -11.379
REMARK INTER:                 -10.581
REMARK INTRA:                  -0.797
REMARK UNBOUND:                -1.533
REMARK  Name = 
REMARK  9 active torsions:
REMARK  status: ('A' for Active; 'I' for Inactive)
REMARK    1  A    between atoms: C_2  and  C_19
REMARK    2  A    between atoms: N_3  and  C_4
REMARK    3  A    between atoms: C_4  and  C_5
REMARK    4  A    between atoms: C_9  and  C_10
REMARK    5  A    between atoms: C_10  and  S_11
REMARK    6  A    between atoms: S_11  and  N_14
REMARK    7  A    between atoms: N_14  and  C_15
REMARK    8  A    between atoms: C_15  and  C_16
REMARK    9  A    between atoms: C_16  and  O_17
REMARK                            x       y       z     vdW  Elec       q    Type
REMARK                         _______ _______ _______ _____ _____    ______ ____
ROOT
ATOM      1  C   UNL     1      46.205   3.912  14.212  0.00  0.00    +0.000 C 
ENDROOT
BRANCH   1   2
ATOM      2  C   UNL     1      46.112   4.681  12.924  0.00  0.00    +0.000 A 
ATOM      3  C   UNL     1      46.903   5.803  12.679  0.00  0.00    +0.000 A 
ATOM      4  C   UNL     1      46.789   6.435  11.450  0.00  0.00    +0.000 A 
ATOM      5  N   UNL     1      45.955   6.032  10.463  0.00  0.00    +0.000 NA
ATOM      6  C   UNL     1      45.136   4.987  10.737  0.00  0.00    +0.000 A 
ATOM      7  C   UNL     1      45.199   4.288  11.942  0.00  0.00    +0.000 A 
BRANCH   6   8
ATOM      8  C   UNL     1      44.209   4.515   9.662  0.00  0.00    +0.000 C 
BRANCH   8   9
ATOM      9  S   UNL     1      45.012   3.290   8.639  0.00  0.00    +0.000 S 
ATOM     10  O   UNL     1      45.560   2.294   9.540  0.00  0.00    +0.000 OA
ATOM     11  O   UNL     1      44.157   2.887   7.543  0.00  0.00    +0.000 OA
BRANCH   9  12
ATOM     12  N   UNL     1      46.329   4.088   7.966  0.00  0.00    +0.000 NA
ATOM     13  H   UNL     1      46.995   4.472   8.639  0.00  0.00    +0.000 HD
BRANCH  12  14
ATOM     14  C   UNL     1      46.900   3.546   6.711  0.00  0.00    +0.000 C 
BRANCH  14  15
ATOM     15  C   UNL     1      47.804   2.339   6.969  0.00  0.00    +0.000 C 
BRANCH  15  16
ATOM     16  O   UNL     1      48.392   1.903   5.745  0.00  0.00    +0.000 OA
ATOM     17  H   UNL     1      47.693   2.026   5.069  0.00  0.00    +0.000 HD
ENDBRANCH  15  16
ENDBRANCH  14  15
ENDBRANCH  12  14
ENDBRANCH   9  12
ENDBRANCH   8   9
ENDBRANCH   6   8
ENDBRANCH   1   2
BRANCH   1  20
ATOM     18  O   UNL     1      46.534   3.383  16.968  0.00  0.00    +0.000 OA
ATOM     19  C   UNL     1      47.369   4.067  16.385  0.00  0.00    +0.000 C 
ATOM     20  N   UNL     1      47.246   4.420  15.066  0.00  0.00    +0.000 N 
ATOM     21  H   UNL     1      48.015   4.889  14.605  0.00  0.00    +0.000 HD
BRANCH  19  22
ATOM     22  C   UNL     1      48.564   4.576  17.068  0.00  0.00    +0.000 A 
ATOM     23  C   UNL     1      48.589   5.875  17.554  0.00  0.00    +0.000 A 
ATOM     24  S   UNL     1      50.063   6.288  18.310  0.00  0.00    +0.000 S 
ATOM     25  C   UNL     1      50.697   4.728  18.058  0.00  0.00    +0.000 A 
ATOM     26  N   UNL     1      51.941   4.397  18.499  0.00  0.00    +0.000 NA
ATOM     27  C   UNL     1      52.274   3.170  18.278  0.00  0.00    +0.000 A 
ATOM     28  N   UNL     1      51.482   2.245  17.647  0.00  0.00    +0.000 N 
ATOM     29  C   UNL     1      50.248   2.552  17.129  0.00  0.00    +0.000 A 
ATOM     30  O   UNL     1      49.612   1.730  16.474  0.00  0.00    +0.000 OA
ATOM     31  C   UNL     1      49.809   3.912  17.385  0.00  0.00    +0.000 A 
ATOM     32  H   UNL     1      51.813   1.305  17.486  0.00  0.00    +0.000 HD
ENDBRANCH  19  22
ENDBRANCH   1  20
TORSDOF 9
ENDMDL
MODEL 5
REMARK VINA RESULT:    -6.544      1.844      2.109
REMARK INTER + INTRA:         -11.328
REMARK INTER:                 -10.400
REMARK INTRA:                  -0.928
REMARK UNBOUND:                -1.533
REMARK  Name = 
REMARK  9 active torsions:
REMARK  status: ('A' for Active; 'I' for Inactive)
REMARK    1  A    between atoms: C_2  and  C_19
REMARK    2  A    between atoms: N_3  and  C_4
REMARK    3  A    between atoms: C_4  and  C_5
REMARK    4  A    between atoms: C_9  and  C_10
REMARK    5  A    between atoms: C_10  and  S_11
REMARK    6  A    between atoms: S_11  and  N_14
REMARK    7  A    between atoms: N_14  and  C_15
REMARK    8  A    between atoms: C_15  and  C_16
REMARK    9  A    between atoms: C_16  and  O_17
REMARK                            x       y       z     vdW  Elec       q    Type
REMARK                         _______ _______ _______ _____ _____    ______ ____
ROOT
ATOM      1  C   UNL     1      46.545   7.305  12.151  0.00  0.00    +0.000 C 
ENDROOT
BRANCH   1   2
ATOM      2  C   UNL     1      45.379   6.501  11.644  0.00  0.00    +0.000 A 
ATOM      3  C   UNL     1      44.125   6.564  12.250  0.00  0.00    +0.000 A 
ATOM      4  C   UNL     1      43.088   5.825  11.700  0.00  0.00    +0.000 A 
ATOM      5  N   UNL     1      43.214   5.041  10.604  0.00  0.00    +0.000 NA
ATOM      6  C   UNL     1      44.453   4.926  10.066  0.00  0.00    +0.000 A 
ATOM      7  C   UNL     1      45.544   5.648  10.551  0.00  0.00    +0.000 A 
BRANCH   6   8
ATOM      8  C   UNL     1      44.620   4.072   8.850  0.00  0.00    +0.000 C 
BRANCH   8   9
ATOM      9  S   UNL     1      44.912   2.373   9.315  0.00  0.00    +0.000 S 
ATOM     10  O   UNL     1      45.389   2.395  10.684  0.00  0.00    +0.000 OA
ATOM     11  O   UNL     1      43.791   1.534   8.949  0.00  0.00    +0.000 OA
BRANCH   9  12
ATOM     12  N   UNL     1      46.215   1.886   8.372  0.00  0.00    +0.000 NA
ATOM     13  H   UNL     1      46.210   0.902   8.098  0.00  0.00    +0.000 HD
BRANCH  12  14
ATOM     14  C   UNL     1      46.744   2.844   7.374  0.00  0.00    +0.000 C 
BRANCH  14  15
ATOM     15  C   UNL     1      47.557   2.143   6.283  0.00  0.00    +0.000 C 
BRANCH  15  16
ATOM     16  O   UNL     1      48.884   2.666   6.256  0.00  0.00    +0.000 OA
ATOM     17  H   UNL     1      49.469   1.882   6.311  0.00  0.00    +0.000 HD
ENDBRANCH  15  16
ENDBRANCH  14  15
ENDBRANCH  12  14
ENDBRANCH   9  12
ENDBRANCH   8   9
ENDBRANCH   6   8
ENDBRANCH   1   2
BRANCH   1  20
ATOM     18  O   UNL     1      49.136   6.548  12.984  0.00  0.00    +0.000 OA
ATOM     19  C   UNL     1      48.233   6.608  13.813  0.00  0.00    +0.000 C 
ATOM     20  N   UNL     1      46.939   6.903  13.475  0.00  0.00    +0.000 N 
ATOM     21  H   UNL     1      46.256   7.049  14.209  0.00  0.00    +0.000 HD
BRANCH  19  22
ATOM     22  C   UNL     1      48.473   6.346  15.236  0.00  0.00    +0.000 A 
ATOM     23  C   UNL     1      49.151   7.276  16.012  0.00  0.00    +0.000 A 
ATOM     24  S   UNL     1      49.340   6.794  17.639  0.00  0.00    +0.000 S 
ATOM     25  C   UNL     1      48.476   5.350  17.371  0.00  0.00    +0.000 A 
ATOM     26  N   UNL     1      48.248   4.471  18.386  0.00  0.00    +0.000 NA
ATOM     27  C   UNL     1      47.545   3.443  18.050  0.00  0.00    +0.000 A 
ATOM     28  N   UNL     1      47.056   3.206  16.791  0.00  0.00    +0.000 N 
ATOM     29  C   UNL     1      47.316   4.031  15.724  0.00  0.00    +0.000 A 
ATOM     30  O   UNL     1      46.956   3.733  14.589  0.00  0.00    +0.000 OA
ATOM     31  C   UNL     1      48.073   5.225  16.057  0.00  0.00    +0.000 A 
ATOM     32  H   UNL     1      46.530   2.369  16.590  0.00  0.00    +0.000 HD
ENDBRANCH  19  22
ENDBRANCH   1  20
TORSDOF 9
ENDMDL
MODEL 6
REMARK VINA RESULT:    -6.543      2.771      7.831
REMARK INTER + INTRA:         -11.327
REMARK INTER:                  -9.902
REMARK INTRA:                  -1.425
REMARK UNBOUND:                -1.533
REMARK  Name = 
REMARK  9 active torsions:
REMARK  status: ('A' for Active; 'I' for Inactive)
REMARK    1  A    between atoms: C_2  and  C_19
REMARK    2  A    between atoms: N_3  and  C_4
REMARK    3  A    between atoms: C_4  and  C_5
REMARK    4  A    between atoms: C_9  and  C_10
REMARK    5  A    between atoms: C_10  and  S_11
REMARK    6  A    between atoms: S_11  and  N_14
REMARK    7  A    between atoms: N_14  and  C_15
REMARK    8  A    between atoms: C_15  and  C_16
REMARK    9  A    between atoms: C_16  and  O_17
REMARK                            x       y       z     vdW  Elec       q    Type
REMARK                         _______ _______ _______ _____ _____    ______ ____
ROOT
ATOM      1  C   UNL     1      48.407   6.369  14.868  0.00  0.00    +0.000 C 
ENDROOT
BRANCH   1   2
ATOM      2  C   UNL     1      48.419   5.650  16.188  0.00  0.00    +0.000 A 
ATOM      3  C   UNL     1      47.577   4.567  16.442  0.00  0.00    +0.000 A 
ATOM      4  C   UNL     1      47.675   3.929  17.669  0.00  0.00    +0.000 A 
ATOM      5  N   UNL     1      48.542   4.290  18.645  0.00  0.00    +0.000 NA
ATOM      6  C   UNL     1      49.303   5.388  18.419  0.00  0.00    +0.000 A 
ATOM      7  C   UNL     1      49.275   6.076  17.206  0.00  0.00    +0.000 A 
BRANCH   6   8
ATOM      8  C   UNL     1      50.276   5.804  19.476  0.00  0.00    +0.000 C 
BRANCH   8   9
ATOM      9  S   UNL     1      51.851   4.999  19.228  0.00  0.00    +0.000 S 
ATOM     10  O   UNL     1      52.409   5.550  18.008  0.00  0.00    +0.000 OA
ATOM     11  O   UNL     1      52.630   4.994  20.447  0.00  0.00    +0.000 OA
BRANCH   9  12
ATOM     12  N   UNL     1      51.467   3.399  18.886  0.00  0.00    +0.000 NA
ATOM     13  H   UNL     1      50.652   3.032  19.383  0.00  0.00    +0.000 HD
BRANCH  12  14
ATOM     14  C   UNL     1      51.662   2.921  17.498  0.00  0.00    +0.000 C 
BRANCH  14  15
ATOM     15  C   UNL     1      50.878   1.635  17.221  0.00  0.00    +0.000 C 
BRANCH  15  16
ATOM     16  O   UNL     1      50.018   1.825  16.099  0.00  0.00    +0.000 OA
ATOM     17  H   UNL     1      50.601   2.156  15.384  0.00  0.00    +0.000 HD
ENDBRANCH  15  16
ENDBRANCH  14  15
ENDBRANCH  12  14
ENDBRANCH   9  12
ENDBRANCH   8   9
ENDBRANCH   6   8
ENDBRANCH   1   2
BRANCH   1  20
ATOM     18  O   UNL     1      47.873   6.992  12.163  0.00  0.00    +0.000 OA
ATOM     19  C   UNL     1      46.991   6.482  12.847  0.00  0.00    +0.000 C 
ATOM     20  N   UNL     1      47.153   6.211  14.181  0.00  0.00    +0.000 N 
ATOM     21  H   UNL     1      46.437   5.689  14.671  0.00  0.00    +0.000 HD
BRANCH  19  22
ATOM     22  C   UNL     1      45.680   6.138  12.285  0.00  0.00    +0.000 A 
ATOM     23  C   UNL     1      44.902   7.115  11.683  0.00  0.00    +0.000 A 
ATOM     24  S   UNL     1      43.410   6.529  11.096  0.00  0.00    +0.000 S 
ATOM     25  C   UNL     1      43.778   4.938  11.582  0.00  0.00    +0.000 A 
ATOM     26  N   UNL     1      42.912   3.915  11.346  0.00  0.00    +0.000 NA
ATOM     27  C   UNL     1      43.340   2.759  11.729  0.00  0.00    +0.000 A 
ATOM     28  N   UNL     1      44.549   2.532  12.334  0.00  0.00    +0.000 N 
ATOM     29  C   UNL     1      45.425   3.543  12.649  0.00  0.00    +0.000 A 
ATOM     30  O   UNL     1      46.449   3.318  13.288  0.00  0.00    +0.000 OA
ATOM     31  C   UNL     1      45.008   4.861  12.205  0.00  0.00    +0.000 A 
ATOM     32  H   UNL     1      44.814   1.604  12.629  0.00  0.00    +0.000 HD
ENDBRANCH  19  22
ENDBRANCH   1  20
TORSDOF 9
ENDMDL
MODEL 7
REMARK VINA RESULT:    -6.457      2.432      7.336
REMARK INTER + INTRA:         -11.198
REMARK INTER:                  -9.659
REMARK INTRA:                  -1.539
REMARK UNBOUND:                -1.533
REMARK  Name = 
REMARK  9 active torsions:
REMARK  status: ('A' for Active; 'I' for Inactive)
REMARK    1  A    between atoms: C_2  and  C_19
REMARK    2  A    between atoms: N_3  and  C_4
REMARK    3  A    between atoms: C_4  and  C_5
REMARK    4  A    between atoms: C_9  and  C_10
REMARK    5  A    between atoms: C_10  and  S_11
REMARK    6  A    between atoms: S_11  and  N_14
REMARK    7  A    between atoms: N_14  and  C_15
REMARK    8  A    between atoms: C_15  and  C_16
REMARK    9  A    between atoms: C_16  and  O_17
REMARK                            x       y       z     vdW  Elec       q    Type
REMARK                         _______ _______ _______ _____ _____    ______ ____
ROOT
ATOM      1  C   UNL     1      47.931   7.579  12.385  0.00  0.00    +0.000 C 
ENDROOT
BRANCH   1   2
ATOM      2  C   UNL     1      48.796   7.480  13.611  0.00  0.00    +0.000 A 
ATOM      3  C   UNL     1      50.149   7.812  13.583  0.00  0.00    +0.000 A 
ATOM      4  C   UNL     1      50.872   7.735  14.765  0.00  0.00    +0.000 A 
ATOM      5  N   UNL     1      50.345   7.356  15.953  0.00  0.00    +0.000 NA
ATOM      6  C   UNL     1      49.048   6.963  15.955  0.00  0.00    +0.000 A 
ATOM      7  C   UNL     1      48.250   7.026  14.814  0.00  0.00    +0.000 A 
BRANCH   6   8
ATOM      8  C   UNL     1      48.438   6.548  17.256  0.00  0.00    +0.000 C 
BRANCH   8   9
ATOM      9  S   UNL     1      48.593   4.783  17.483  0.00  0.00    +0.000 S 
ATOM     10  O   UNL     1      48.698   4.558  18.912  0.00  0.00    +0.000 OA
ATOM     11  O   UNL     1      47.603   4.069  16.706  0.00  0.00    +0.000 OA
BRANCH   9  12
ATOM     12  N   UNL     1      50.095   4.396  16.836  0.00  0.00    +0.000 NA
ATOM     13  H   UNL     1      50.631   5.189  16.477  0.00  0.00    +0.000 HD
BRANCH  12  14
ATOM     14  C   UNL     1      50.873   3.317  17.487  0.00  0.00    +0.000 C 
BRANCH  14  15
ATOM     15  C   UNL     1      50.234   1.942  17.273  0.00  0.00    +0.000 C 
BRANCH  15  16
ATOM     16  O   UNL     1      49.728   1.846  15.943  0.00  0.00    +0.000 OA
ATOM     17  H   UNL     1      49.920   0.927  15.663  0.00  0.00    +0.000 HD
ENDBRANCH  15  16
ENDBRANCH  14  15
ENDBRANCH  12  14
ENDBRANCH   9  12
ENDBRANCH   8   9
ENDBRANCH   6   8
ENDBRANCH   1   2
BRANCH   1  20
ATOM     18  O   UNL     1      45.133   7.343  12.706  0.00  0.00    +0.000 OA
ATOM     19  C   UNL     1      45.775   6.376  12.308  0.00  0.00    +0.000 C 
ATOM     20  N   UNL     1      47.140   6.393  12.189  0.00  0.00    +0.000 N 
ATOM     21  H   UNL     1      47.609   5.609  11.751  0.00  0.00    +0.000 HD
BRANCH  19  22
ATOM     22  C   UNL     1      45.122   5.113  11.944  0.00  0.00    +0.000 A 
ATOM     23  C   UNL     1      44.420   4.390  12.897  0.00  0.00    +0.000 A 
ATOM     24  S   UNL     1      43.738   2.948  12.290  0.00  0.00    +0.000 S 
ATOM     25  C   UNL     1      44.315   3.269  10.719  0.00  0.00    +0.000 A 
ATOM     26  N   UNL     1      44.050   2.420   9.688  0.00  0.00    +0.000 NA
ATOM     27  C   UNL     1      44.511   2.811   8.548  0.00  0.00    +0.000 A 
ATOM     28  N   UNL     1      45.221   3.967   8.344  0.00  0.00    +0.000 N 
ATOM     29  C   UNL     1      45.566   4.818   9.365  0.00  0.00    +0.000 A 
ATOM     30  O   UNL     1      46.294   5.786   9.164  0.00  0.00    +0.000 OA
ATOM     31  C   UNL     1      45.038   4.444  10.665  0.00  0.00    +0.000 A 
ATOM     32  H   UNL     1      45.572   4.202   7.428  0.00  0.00    +0.000 HD
ENDBRANCH  19  22
ENDBRANCH   1  20
TORSDOF 9
ENDMDL
MODEL 8
REMARK VINA RESULT:    -6.329      3.145      5.262
REMARK INTER + INTRA:         -11.006
REMARK INTER:                  -9.842
REMARK INTRA:                  -1.164
REMARK UNBOUND:                -1.533
REMARK  Name = 
REMARK  9 active torsions:
REMARK  status: ('A' for Active; 'I' for Inactive)
REMARK    1  A    between atoms: C_2  and  C_19
REMARK    2  A    between atoms: N_3  and  C_4
REMARK    3  A    between atoms: C_4  and  C_5
REMARK    4  A    between atoms: C_9  and  C_10
REMARK    5  A    between atoms: C_10  and  S_11
REMARK    6  A    between atoms: S_11  and  N_14
REMARK    7  A    between atoms: N_14  and  C_15
REMARK    8  A    between atoms: C_15  and  C_16
REMARK    9  A    between atoms: C_16  and  O_17
REMARK                            x       y       z     vdW  Elec       q    Type
REMARK                         _______ _______ _______ _____ _____    ______ ____
ROOT
ATOM      1  C   UNL     1      46.014   4.920  13.978  0.00  0.00    +0.000 C 
ENDROOT
BRANCH   1   2
ATOM      2  C   UNL     1      45.041   4.470  12.924  0.00  0.00    +0.000 A 
ATOM      3  C   UNL     1      43.674   4.719  13.033  0.00  0.00    +0.000 A 
ATOM      4  C   UNL     1      42.844   4.309  11.999  0.00  0.00    +0.000 A 
ATOM      5  N   UNL     1      43.278   3.680  10.882  0.00  0.00    +0.000 NA
ATOM      6  C   UNL     1      44.598   3.376  10.818  0.00  0.00    +0.000 A 
ATOM      7  C   UNL     1      45.499   3.767  11.807  0.00  0.00    +0.000 A 
BRANCH   6   8
ATOM      8  C   UNL     1      45.106   2.689   9.591  0.00  0.00    +0.000 C 
BRANCH   8   9
ATOM      9  S   UNL     1      45.377   3.872   8.280  0.00  0.00    +0.000 S 
ATOM     10  O   UNL     1      44.326   3.655   7.305  0.00  0.00    +0.000 OA
ATOM     11  O   UNL     1      45.611   5.196   8.814  0.00  0.00    +0.000 OA
BRANCH   9  12
ATOM     12  N   UNL     1      46.806   3.380   7.546  0.00  0.00    +0.000 NA
ATOM     13  H   UNL     1      47.645   3.473   8.122  0.00  0.00    +0.000 HD
BRANCH  12  14
ATOM     14  C   UNL     1      46.754   2.207   6.643  0.00  0.00    +0.000 C 
BRANCH  14  15
ATOM     15  C   UNL     1      47.623   2.405   5.398  0.00  0.00    +0.000 C 
BRANCH  15  16
ATOM     16  O   UNL     1      48.829   1.655   5.525  0.00  0.00    +0.000 OA
ATOM     17  H   UNL     1      49.441   2.238   6.022  0.00  0.00    +0.000 HD
ENDBRANCH  15  16
ENDBRANCH  14  15
ENDBRANCH  12  14
ENDBRANCH   9  12
ENDBRANCH   8   9
ENDBRANCH   6   8
ENDBRANCH   1   2
BRANCH   1  20
ATOM     18  O   UNL     1      48.464   5.836  12.908  0.00  0.00    +0.000 OA
ATOM     19  C   UNL     1      47.598   6.652  13.209  0.00  0.00    +0.000 C 
ATOM     20  N   UNL     1      46.412   6.290  13.792  0.00  0.00    +0.000 N 
ATOM     21  H   UNL     1      45.688   6.988  13.917  0.00  0.00    +0.000 HD
BRANCH  19  22
ATOM     22  C   UNL     1      47.780   8.090  12.980  0.00  0.00    +0.000 A 
ATOM     23  C   UNL     1      48.986   8.699  13.292  0.00  0.00    +0.000 A 
ATOM     24  S   UNL     1      49.006  10.374  12.964  0.00  0.00    +0.000 S 
ATOM     25  C   UNL     1      47.419  10.330  12.346  0.00  0.00    +0.000 A 
ATOM     26  N   UNL     1      46.825  11.454  11.858  0.00  0.00    +0.000 NA
ATOM     27  C   UNL     1      45.641  11.264  11.383  0.00  0.00    +0.000 A 
ATOM     28  N   UNL     1      44.990  10.058  11.359  0.00  0.00    +0.000 N 
ATOM     29  C   UNL     1      45.525   8.914  11.898  0.00  0.00    +0.000 A 
ATOM     30  O   UNL     1      44.871   7.876  11.958  0.00  0.00    +0.000 OA
ATOM     31  C   UNL     1      46.874   9.064  12.413  0.00  0.00    +0.000 A 
ATOM     32  H   UNL     1      44.053   9.983  10.991  0.00  0.00    +0.000 HD
ENDBRANCH  19  22
ENDBRANCH   1  20
TORSDOF 9
ENDMDL
MODEL 9
REMARK VINA RESULT:    -6.304      2.529      3.234
REMARK INTER + INTRA:         -10.969
REMARK INTER:                  -9.668
REMARK INTRA:                  -1.301
REMARK UNBOUND:                -1.533
REMARK  Name = 
REMARK  9 active torsions:
REMARK  status: ('A' for Active; 'I' for Inactive)
REMARK    1  A    between atoms: C_2  and  C_19
REMARK    2  A    between atoms: N_3  and  C_4
REMARK    3  A    between atoms: C_4  and  C_5
REMARK    4  A    between atoms: C_9  and  C_10
REMARK    5  A    between atoms: C_10  and  S_11
REMARK    6  A    between atoms: S_11  and  N_14
REMARK    7  A    between atoms: N_14  and  C_15
REMARK    8  A    between atoms: C_15  and  C_16
REMARK    9  A    between atoms: C_16  and  O_17
REMARK                            x       y       z     vdW  Elec       q    Type
REMARK                         _______ _______ _______ _____ _____    ______ ____
ROOT
ATOM      1  C   UNL     1      48.583   7.017  14.225  0.00  0.00    +0.000 C 
ENDROOT
BRANCH   1   2
ATOM      2  C   UNL     1      47.438   6.615  13.337  0.00  0.00    +0.000 A 
ATOM      3  C   UNL     1      46.832   7.519  12.466  0.00  0.00    +0.000 A 
ATOM      4  C   UNL     1      45.808   7.062  11.648  0.00  0.00    +0.000 A 
ATOM      5  N   UNL     1      45.356   5.786  11.640  0.00  0.00    +0.000 NA
ATOM      6  C   UNL     1      45.900   4.933  12.543  0.00  0.00    +0.000 A 
ATOM      7  C   UNL     1      46.942   5.310  13.388  0.00  0.00    +0.000 A 
BRANCH   6   8
ATOM      8  C   UNL     1      45.425   3.515  12.550  0.00  0.00    +0.000 C 
BRANCH   8   9
ATOM      9  S   UNL     1      43.657   3.446  12.304  0.00  0.00    +0.000 S 
ATOM     10  O   UNL     1      43.254   2.082  12.583  0.00  0.00    +0.000 OA
ATOM     11  O   UNL     1      42.996   4.550  12.968  0.00  0.00    +0.000 OA
BRANCH   9  12
ATOM     12  N   UNL     1      43.444   3.670  10.652  0.00  0.00    +0.000 NA
ATOM     13  H   UNL     1      43.131   4.604  10.377  0.00  0.00    +0.000 HD
BRANCH  12  14
ATOM     14  C   UNL     1      44.389   2.994   9.733  0.00  0.00    +0.000 C 
BRANCH  14  15
ATOM     15  C   UNL     1      44.618   3.802   8.453  0.00  0.00    +0.000 C 
BRANCH  15  16
ATOM     16  O   UNL     1      45.316   5.008   8.759  0.00  0.00    +0.000 OA
ATOM     17  H   UNL     1      45.694   4.864   9.652  0.00  0.00    +0.000 HD
ENDBRANCH  15  16
ENDBRANCH  14  15
ENDBRANCH  12  14
ENDBRANCH   9  12
ENDBRANCH   8   9
ENDBRANCH   6   8
ENDBRANCH   1   2
BRANCH   1  20
ATOM     18  O   UNL     1      50.437   6.102  16.150  0.00  0.00    +0.000 OA
ATOM     19  C   UNL     1      49.286   6.348  16.496  0.00  0.00    +0.000 C 
ATOM     20  N   UNL     1      48.314   6.732  15.610  0.00  0.00    +0.000 N 
ATOM     21  H   UNL     1      47.413   7.030  15.961  0.00  0.00    +0.000 HD
BRANCH  19  22
ATOM     22  C   UNL     1      48.857   6.228  17.894  0.00  0.00    +0.000 A 
ATOM     23  C   UNL     1      49.042   5.037  18.581  0.00  0.00    +0.000 A 
ATOM     24  S   UNL     1      48.475   5.086  20.190  0.00  0.00    +0.000 S 
ATOM     25  C   UNL     1      48.011   6.718  20.038  0.00  0.00    +0.000 A 
ATOM     26  N   UNL     1      47.467   7.394  21.087  0.00  0.00    +0.000 NA
ATOM     27  C   UNL     1      47.205   8.633  20.842  0.00  0.00    +0.000 A 
ATOM     28  N   UNL     1      47.427   9.258  19.642  0.00  0.00    +0.000 N 
ATOM     29  C   UNL     1      47.913   8.600  18.539  0.00  0.00    +0.000 A 
ATOM     30  O   UNL     1      47.996   9.163  17.450  0.00  0.00    +0.000 OA
ATOM     31  C   UNL     1      48.261   7.209  18.772  0.00  0.00    +0.000 A 
ATOM     32  H   UNL     1      47.177  10.227  19.510  0.00  0.00    +0.000 HD
ENDBRANCH  19  22
ENDBRANCH   1  20
TORSDOF 9
ENDMDL
