MODEL 1
REMARK VINA RESULT:    -8.483      0.000      0.000
REMARK INTER + INTRA:         -10.546
REMARK INTER:                  -9.971
REMARK INTRA:                  -0.575
REMARK UNBOUND:                -0.575
REMARK  Name = 
REMARK  3 active torsions:
REMARK  status: ('A' for Active; 'I' for Inactive)
REMARK    1  A    between atoms: C_2  and  C_11
REMARK    2  A    between atoms: N_3  and  C_4
REMARK    3  A    between atoms: C_4  and  C_5
REMARK                            x       y       z     vdW  Elec       q    Type
REMARK                         _______ _______ _______ _____ _____    ______ ____
ROOT
ATOM      1  N   UNL     1      43.840   5.800  11.035  0.00  0.00    +0.000 NA
ATOM      2  C   UNL     1      45.059   5.645  10.662  0.00  0.00    +0.000 C 
ATOM      3  N   UNL     1      45.485   5.194   9.448  0.00  0.00    +0.000 N 
ATOM      4  H   UNL     1      43.217   5.555  10.264  0.00  0.00    +0.000 HD
ATOM      5  H   UNL     1      46.484   5.009   9.376  0.00  0.00    +0.000 HD
ENDROOT
BRANCH   2   6
ATOM      6  C   UNL     1      46.113   6.006  11.607  0.00  0.00    +0.000 A 
ATOM      7  C   UNL     1      46.893   7.138  11.412  0.00  0.00    +0.000 A 
ATOM      8  S   UNL     1      48.034   7.405  12.652  0.00  0.00    +0.000 S 
ATOM      9  C   UNL     1      47.504   6.035  13.510  0.00  0.00    +0.000 A 
ATOM     10  N   UNL     1      48.044   5.709  14.716  0.00  0.00    +0.000 NA
ATOM     11  C   UNL     1      47.515   4.670  15.273  0.00  0.00    +0.000 A 
ATOM     12  N   UNL     1      46.511   3.915  14.727  0.00  0.00    +0.000 N 
ATOM     13  C   UNL     1      45.989   4.158  13.480  0.00  0.00    +0.000 A 
ATOM     14  O   UNL     1      45.196   3.377  12.961  0.00  0.00    +0.000 OA
ATOM     15  C   UNL     1      46.502   5.358  12.840  0.00  0.00    +0.000 A 
ATOM     16  H   UNL     1      46.174   3.087  15.197  0.00  0.00    +0.000 HD
ENDBRANCH   2   6
BRANCH   3  17
ATOM     17  C   UNL     1      44.755   4.233   8.647  0.00  0.00    +0.000 C 
BRANCH  17  18
ATOM     18  C   UNL     1      45.656   3.184   8.064  0.00  0.00    +0.000 A 
ATOM     19  C   UNL     1      46.600   3.458   7.068  0.00  0.00    +0.000 A 
ATOM     20  C   UNL     1      47.429   2.446   6.600  0.00  0.00    +0.000 A 
ATOM     21  C   UNL     1      47.302   1.187   7.158  0.00  0.00    +0.000 A 
ATOM     22  N   UNL     1      46.424   0.884   8.137  0.00  0.00    +0.000 NA
ATOM     23  C   UNL     1      45.626   1.888   8.569  0.00  0.00    +0.000 A 
ENDBRANCH  17  18
ENDBRANCH   3  17
TORSDOF 3
ENDMDL
MODEL 2
REMARK VINA RESULT:    -8.328      2.060      2.956
REMARK INTER + INTRA:         -10.363
REMARK INTER:                  -9.718
REMARK INTRA:                  -0.646
REMARK UNBOUND:                -0.575
REMARK  Name = 
REMARK  3 active torsions:
REMARK  status: ('A' for Active; 'I' for Inactive)
REMARK    1  A    between atoms: C_2  and  C_11
REMARK    2  A    between atoms: N_3  and  C_4
REMARK    3  A    between atoms: C_4  and  C_5
REMARK                            x       y       z     vdW  Elec       q    Type
REMARK                         _______ _______ _______ _____ _____    ______ ____
ROOT
ATOM      1  N   UNL     1      43.996   2.386  12.392  0.00  0.00    +0.000 NA
ATOM      2  C   UNL     1      44.557   3.261  11.636  0.00  0.00    +0.000 C 
ATOM      3  N   UNL     1      44.585   3.257  10.274  0.00  0.00    +0.000 N 
ATOM      4  H   UNL     1      43.541   1.680  11.811  0.00  0.00    +0.000 HD
ATOM      5  H   UNL     1      45.188   3.958   9.847  0.00  0.00    +0.000 HD
ENDROOT
BRANCH   2   6
ATOM      6  C   UNL     1      45.212   4.398  12.279  0.00  0.00    +0.000 A 
ATOM      7  C   UNL     1      46.291   4.213  13.134  0.00  0.00    +0.000 A 
ATOM      8  S   UNL     1      46.939   5.670  13.741  0.00  0.00    +0.000 S 
ATOM      9  C   UNL     1      45.822   6.601  12.857  0.00  0.00    +0.000 A 
ATOM     10  N   UNL     1      45.859   7.960  12.889  0.00  0.00    +0.000 NA
ATOM     11  C   UNL     1      44.981   8.536  12.136  0.00  0.00    +0.000 A 
ATOM     12  N   UNL     1      44.056   7.877  11.369  0.00  0.00    +0.000 N 
ATOM     13  C   UNL     1      43.929   6.509  11.365  0.00  0.00    +0.000 A 
ATOM     14  O   UNL     1      42.997   5.961  10.783  0.00  0.00    +0.000 OA
ATOM     15  C   UNL     1      44.939   5.811  12.143  0.00  0.00    +0.000 A 
ATOM     16  H   UNL     1      43.367   8.389  10.837  0.00  0.00    +0.000 HD
ENDBRANCH   2   6
BRANCH   3  17
ATOM     17  C   UNL     1      44.605   2.049   9.475  0.00  0.00    +0.000 C 
BRANCH  17  18
ATOM     18  C   UNL     1      45.635   2.110   8.385  0.00  0.00    +0.000 A 
ATOM     19  C   UNL     1      45.987   3.297   7.734  0.00  0.00    +0.000 A 
ATOM     20  C   UNL     1      46.978   3.288   6.759  0.00  0.00    +0.000 A 
ATOM     21  C   UNL     1      47.605   2.088   6.477  0.00  0.00    +0.000 A 
ATOM     22  N   UNL     1      47.315   0.925   7.097  0.00  0.00    +0.000 NA
ATOM     23  C   UNL     1      46.344   0.963   8.037  0.00  0.00    +0.000 A 
ENDBRANCH  17  18
ENDBRANCH   3  17
TORSDOF 3
ENDMDL
MODEL 3
REMARK VINA RESULT:    -7.845      1.574      1.838
REMARK INTER + INTRA:          -9.796
REMARK INTER:                  -9.243
REMARK INTRA:                  -0.553
REMARK UNBOUND:                -0.575
REMARK  Name = 
REMARK  3 active torsions:
REMARK  status: ('A' for Active; 'I' for Inactive)
REMARK    1  A    between atoms: C_2  and  C_11
REMARK    2  A    between atoms: N_3  and  C_4
REMARK    3  A    between atoms: C_4  and  C_5
REMARK                            x       y       z     vdW  Elec       q    Type
REMARK                         _______ _______ _______ _____ _____    ______ ____
ROOT
ATOM      1  N   UNL     1      44.481   2.786  12.396  0.00  0.00    +0.000 NA
ATOM      2  C   UNL     1      44.738   3.619  11.451  0.00  0.00    +0.000 C 
ATOM      3  N   UNL     1      44.565   3.410  10.116  0.00  0.00    +0.000 N 
ATOM      4  H   UNL     1      44.094   1.931  11.995  0.00  0.00    +0.000 HD
ATOM      5  H   UNL     1      44.946   4.132   9.507  0.00  0.00    +0.000 HD
ENDROOT
BRANCH   2   6
ATOM      6  C   UNL     1      45.243   4.938  11.824  0.00  0.00    +0.000 A 
ATOM      7  C   UNL     1      44.744   6.090  11.229  0.00  0.00    +0.000 A 
ATOM      8  S   UNL     1      45.434   7.527  11.838  0.00  0.00    +0.000 S 
ATOM      9  C   UNL     1      46.399   6.663  12.941  0.00  0.00    +0.000 A 
ATOM     10  N   UNL     1      47.212   7.310  13.820  0.00  0.00    +0.000 NA
ATOM     11  C   UNL     1      47.852   6.529  14.627  0.00  0.00    +0.000 A 
ATOM     12  N   UNL     1      47.771   5.162  14.622  0.00  0.00    +0.000 N 
ATOM     13  C   UNL     1      47.026   4.463  13.703  0.00  0.00    +0.000 A 
ATOM     14  O   UNL     1      47.091   3.238  13.635  0.00  0.00    +0.000 OA
ATOM     15  C   UNL     1      46.231   5.296  12.817  0.00  0.00    +0.000 A 
ATOM     16  H   UNL     1      48.334   4.609  15.251  0.00  0.00    +0.000 HD
ENDBRANCH   2   6
BRANCH   3  17
ATOM     17  C   UNL     1      44.705   2.116   9.481  0.00  0.00    +0.000 C 
BRANCH  17  18
ATOM     18  C   UNL     1      45.679   2.150   8.339  0.00  0.00    +0.000 A 
ATOM     19  C   UNL     1      45.980   3.317   7.629  0.00  0.00    +0.000 A 
ATOM     20  C   UNL     1      46.921   3.284   6.606  0.00  0.00    +0.000 A 
ATOM     21  C   UNL     1      47.551   2.083   6.336  0.00  0.00    +0.000 A 
ATOM     22  N   UNL     1      47.310   0.940   7.012  0.00  0.00    +0.000 NA
ATOM     23  C   UNL     1      46.386   1.000   7.998  0.00  0.00    +0.000 A 
ENDBRANCH  17  18
ENDBRANCH   3  17
TORSDOF 3
ENDMDL
MODEL 4
REMARK VINA RESULT:    -7.377      3.839      6.766
REMARK INTER + INTRA:          -9.246
REMARK INTER:                  -8.658
REMARK INTRA:                  -0.588
REMARK UNBOUND:                -0.575
REMARK  Name = 
REMARK  3 active torsions:
REMARK  status: ('A' for Active; 'I' for Inactive)
REMARK    1  A    between atoms: C_2  and  C_11
REMARK    2  A    between atoms: N_3  and  C_4
REMARK    3  A    between atoms: C_4  and  C_5
REMARK                            x       y       z     vdW  Elec       q    Type
REMARK                         _______ _______ _______ _____ _____    ______ ____
ROOT
ATOM      1  N   UNL     1      46.917   3.235  13.721  0.00  0.00    +0.000 NA
ATOM      2  C   UNL     1      46.753   4.394  14.250  0.00  0.00    +0.000 C 
ATOM      3  N   UNL     1      47.156   4.783  15.493  0.00  0.00    +0.000 N 
ATOM      4  H   UNL     1      47.430   2.636  14.371  0.00  0.00    +0.000 HD
ATOM      5  H   UNL     1      46.822   5.697  15.794  0.00  0.00    +0.000 HD
ENDROOT
BRANCH   2   6
ATOM      6  C   UNL     1      46.093   5.422  13.449  0.00  0.00    +0.000 A 
ATOM      7  C   UNL     1      46.741   6.609  13.132  0.00  0.00    +0.000 A 
ATOM      8  S   UNL     1      45.815   7.653  12.152  0.00  0.00    +0.000 S 
ATOM      9  C   UNL     1      44.528   6.543  12.088  0.00  0.00    +0.000 A 
ATOM     10  N   UNL     1      43.412   6.802  11.354  0.00  0.00    +0.000 NA
ATOM     11  C   UNL     1      42.536   5.852  11.362  0.00  0.00    +0.000 A 
ATOM     12  N   UNL     1      42.664   4.676  12.052  0.00  0.00    +0.000 N 
ATOM     13  C   UNL     1      43.735   4.403  12.868  0.00  0.00    +0.000 A 
ATOM     14  O   UNL     1      43.748   3.405  13.585  0.00  0.00    +0.000 OA
ATOM     15  C   UNL     1      44.782   5.410  12.840  0.00  0.00    +0.000 A 
ATOM     16  H   UNL     1      41.920   3.993  12.052  0.00  0.00    +0.000 HD
ENDBRANCH   2   6
BRANCH   3  17
ATOM     17  C   UNL     1      47.221   3.890  16.631  0.00  0.00    +0.000 C 
BRANCH  17  18
ATOM     18  C   UNL     1      48.622   3.427  16.906  0.00  0.00    +0.000 A 
ATOM     19  C   UNL     1      49.532   4.165  17.671  0.00  0.00    +0.000 A 
ATOM     20  C   UNL     1      50.802   3.658  17.920  0.00  0.00    +0.000 A 
ATOM     21  C   UNL     1      51.120   2.412  17.408  0.00  0.00    +0.000 A 
ATOM     22  N   UNL     1      50.265   1.657  16.687  0.00  0.00    +0.000 NA
ATOM     23  C   UNL     1      49.039   2.178  16.457  0.00  0.00    +0.000 A 
ENDBRANCH  17  18
ENDBRANCH   3  17
TORSDOF 3
ENDMDL
MODEL 5
REMARK VINA RESULT:    -7.173      3.186      6.643
REMARK INTER + INTRA:          -9.006
REMARK INTER:                  -8.438
REMARK INTRA:                  -0.569
REMARK UNBOUND:                -0.575
REMARK  Name = 
REMARK  3 active torsions:
REMARK  status: ('A' for Active; 'I' for Inactive)
REMARK    1  A    between atoms: C_2  and  C_11
REMARK    2  A    between atoms: N_3  and  C_4
REMARK    3  A    between atoms: C_4  and  C_5
REMARK                            x       y       z     vdW  Elec       q    Type
REMARK                         _______ _______ _______ _____ _____    ______ ____
ROOT
ATOM      1  N   UNL     1      49.175   6.440  13.096  0.00  0.00    +0.000 NA
ATOM      2  C   UNL     1      48.081   6.497  13.767  0.00  0.00    +0.000 C 
ATOM      3  N   UNL     1      47.960   6.718  15.106  0.00  0.00    +0.000 N 
ATOM      4  H   UNL     1      49.964   6.613  13.722  0.00  0.00    +0.000 HD
ATOM      5  H   UNL     1      47.024   6.598  15.487  0.00  0.00    +0.000 HD
ENDROOT
BRANCH   2   6
ATOM      6  C   UNL     1      46.825   6.340  13.038  0.00  0.00    +0.000 A 
ATOM      7  C   UNL     1      46.182   7.434  12.473  0.00  0.00    +0.000 A 
ATOM      8  S   UNL     1      44.757   7.028  11.627  0.00  0.00    +0.000 S 
ATOM      9  C   UNL     1      44.966   5.372  11.957  0.00  0.00    +0.000 A 
ATOM     10  N   UNL     1      44.100   4.444  11.468  0.00  0.00    +0.000 NA
ATOM     11  C   UNL     1      44.406   3.223  11.760  0.00  0.00    +0.000 A 
ATOM     12  N   UNL     1      45.486   2.846  12.514  0.00  0.00    +0.000 N 
ATOM     13  C   UNL     1      46.343   3.751  13.094  0.00  0.00    +0.000 A 
ATOM     14  O   UNL     1      47.211   3.386  13.882  0.00  0.00    +0.000 OA
ATOM     15  C   UNL     1      46.082   5.136  12.738  0.00  0.00    +0.000 A 
ATOM     16  H   UNL     1      45.643   1.876  12.744  0.00  0.00    +0.000 HD
ENDBRANCH   2   6
BRANCH   3  17
ATOM     17  C   UNL     1      48.940   6.285  16.082  0.00  0.00    +0.000 C 
BRANCH  17  18
ATOM     18  C   UNL     1      48.556   4.987  16.730  0.00  0.00    +0.000 A 
ATOM     19  C   UNL     1      49.474   4.166  17.394  0.00  0.00    +0.000 A 
ATOM     20  C   UNL     1      49.043   2.995  18.006  0.00  0.00    +0.000 A 
ATOM     21  C   UNL     1      47.695   2.687  17.951  0.00  0.00    +0.000 A 
ATOM     22  N   UNL     1      46.772   3.462  17.343  0.00  0.00    +0.000 NA
ATOM     23  C   UNL     1      47.222   4.592  16.753  0.00  0.00    +0.000 A 
ENDBRANCH  17  18
ENDBRANCH   3  17
TORSDOF 3
ENDMDL
MODEL 6
REMARK VINA RESULT:    -6.698      2.781      5.925
REMARK INTER + INTRA:          -8.448
REMARK INTER:                  -7.762
REMARK INTRA:                  -0.686
REMARK UNBOUND:                -0.575
REMARK  Name = 
REMARK  3 active torsions:
REMARK  status: ('A' for Active; 'I' for Inactive)
REMARK    1  A    between atoms: C_2  and  C_11
REMARK    2  A    between atoms: N_3  and  C_4
REMARK    3  A    between atoms: C_4  and  C_5
REMARK                            x       y       z     vdW  Elec       q    Type
REMARK                         _______ _______ _______ _____ _____    ______ ____
ROOT
ATOM      1  N   UNL     1      43.547   7.352  11.034  0.00  0.00    +0.000 NA
ATOM      2  C   UNL     1      44.166   6.535  11.809  0.00  0.00    +0.000 C 
ATOM      3  N   UNL     1      44.924   6.861  12.894  0.00  0.00    +0.000 N 
ATOM      4  H   UNL     1      43.687   8.306  11.370  0.00  0.00    +0.000 HD
ATOM      5  H   UNL     1      45.447   6.093  13.310  0.00  0.00    +0.000 HD
ENDROOT
BRANCH   2   6
ATOM      6  C   UNL     1      44.038   5.105  11.535  0.00  0.00    +0.000 A 
ATOM      7  C   UNL     1      43.281   4.284  12.360  0.00  0.00    +0.000 A 
ATOM      8  S   UNL     1      43.222   2.660  11.840  0.00  0.00    +0.000 S 
ATOM      9  C   UNL     1      44.179   3.004  10.476  0.00  0.00    +0.000 A 
ATOM     10  N   UNL     1      44.473   2.040   9.562  0.00  0.00    +0.000 NA
ATOM     11  C   UNL     1      45.171   2.453   8.556  0.00  0.00    +0.000 A 
ATOM     12  N   UNL     1      45.619   3.737   8.390  0.00  0.00    +0.000 N 
ATOM     13  C   UNL     1      45.414   4.725   9.322  0.00  0.00    +0.000 A 
ATOM     14  O   UNL     1      45.953   5.823   9.211  0.00  0.00    +0.000 OA
ATOM     15  C   UNL     1      44.575   4.329  10.441  0.00  0.00    +0.000 A 
ATOM     16  H   UNL     1      46.199   3.983   7.601  0.00  0.00    +0.000 HD
ENDBRANCH   2   6
BRANCH   3  17
ATOM     17  C   UNL     1      45.695   8.083  12.995  0.00  0.00    +0.000 C 
BRANCH  17  18
ATOM     18  C   UNL     1      47.140   7.869  12.650  0.00  0.00    +0.000 A 
ATOM     19  C   UNL     1      47.878   8.767  11.871  0.00  0.00    +0.000 A 
ATOM     20  C   UNL     1      49.225   8.526  11.622  0.00  0.00    +0.000 A 
ATOM     21  C   UNL     1      49.801   7.398  12.179  0.00  0.00    +0.000 A 
ATOM     22  N   UNL     1      49.133   6.520  12.956  0.00  0.00    +0.000 NA
ATOM     23  C   UNL     1      47.824   6.777  13.176  0.00  0.00    +0.000 A 
ENDBRANCH  17  18
ENDBRANCH   3  17
TORSDOF 3
ENDMDL
MODEL 7
REMARK VINA RESULT:    -6.474      4.282      7.114
REMARK INTER + INTRA:          -8.184
REMARK INTER:                  -7.549
REMARK INTRA:                  -0.635
REMARK UNBOUND:                -0.575
REMARK  Name = 
REMARK  3 active torsions:
REMARK  status: ('A' for Active; 'I' for Inactive)
REMARK    1  A    between atoms: C_2  and  C_11
REMARK    2  A    between atoms: N_3  and  C_4
REMARK    3  A    between atoms: C_4  and  C_5
REMARK                            x       y       z     vdW  Elec       q    Type
REMARK                         _______ _______ _______ _____ _____    ______ ____
ROOT
ATOM      1  N   UNL     1      47.316   3.124  14.022  0.00  0.00    +0.000 NA
ATOM      2  C   UNL     1      46.980   4.257  14.525  0.00  0.00    +0.000 C 
ATOM      3  N   UNL     1      47.262   4.703  15.782  0.00  0.00    +0.000 N 
ATOM      4  H   UNL     1      47.860   2.598  14.709  0.00  0.00    +0.000 HD
ATOM      5  H   UNL     1      46.802   5.571  16.051  0.00  0.00    +0.000 HD
ENDROOT
BRANCH   2   6
ATOM      6  C   UNL     1      46.246   5.191  13.674  0.00  0.00    +0.000 A 
ATOM      7  C   UNL     1      44.963   4.898  13.230  0.00  0.00    +0.000 A 
ATOM      8  S   UNL     1      44.266   6.138  12.287  0.00  0.00    +0.000 S 
ATOM      9  C   UNL     1      45.641   7.123  12.467  0.00  0.00    +0.000 A 
ATOM     10  N   UNL     1      45.683   8.374  11.933  0.00  0.00    +0.000 NA
ATOM     11  C   UNL     1      46.770   9.025  12.185  0.00  0.00    +0.000 A 
ATOM     12  N   UNL     1      47.828   8.533  12.904  0.00  0.00    +0.000 N 
ATOM     13  C   UNL     1      47.863   7.251  13.395  0.00  0.00    +0.000 A 
ATOM     14  O   UNL     1      48.884   6.796  13.905  0.00  0.00    +0.000 OA
ATOM     15  C   UNL     1      46.635   6.499  13.198  0.00  0.00    +0.000 A 
ATOM     16  H   UNL     1      48.668   9.080  13.026  0.00  0.00    +0.000 HD
ENDBRANCH   2   6
BRANCH   3  17
ATOM     17  C   UNL     1      47.371   3.834  16.935  0.00  0.00    +0.000 C 
BRANCH  17  18
ATOM     18  C   UNL     1      48.794   3.450  17.220  0.00  0.00    +0.000 A 
ATOM     19  C   UNL     1      49.320   2.191  16.911  0.00  0.00    +0.000 A 
ATOM     20  C   UNL     1      50.659   1.916  17.166  0.00  0.00    +0.000 A 
ATOM     21  C   UNL     1      51.440   2.920  17.708  0.00  0.00    +0.000 A 
ATOM     22  N   UNL     1      50.980   4.155  17.999  0.00  0.00    +0.000 NA
ATOM     23  C   UNL     1      49.674   4.393  17.744  0.00  0.00    +0.000 A 
ENDBRANCH  17  18
ENDBRANCH   3  17
TORSDOF 3
ENDMDL
MODEL 8
REMARK VINA RESULT:    -6.292      3.377      4.807
REMARK INTER + INTRA:          -7.971
REMARK INTER:                  -7.372
REMARK INTRA:                  -0.599
REMARK UNBOUND:                -0.575
REMARK  Name = 
REMARK  3 active torsions:
REMARK  status: ('A' for Active; 'I' for Inactive)
REMARK    1  A    between atoms: C_2  and  C_11
REMARK    2  A    between atoms: N_3  and  C_4
REMARK    3  A    between atoms: C_4  and  C_5
REMARK                            x       y       z     vdW  Elec       q    Type
REMARK                         _______ _______ _______ _____ _____    ______ ____
ROOT
ATOM      1  N   UNL     1      48.982   6.494  13.350  0.00  0.00    +0.000 NA
ATOM      2  C   UNL     1      48.092   6.174  14.220  0.00  0.00    +0.000 C 
ATOM      3  N   UNL     1      46.802   5.816  13.968  0.00  0.00    +0.000 N 
ATOM      4  H   UNL     1      48.581   6.416  12.413  0.00  0.00    +0.000 HD
ATOM      5  H   UNL     1      46.205   5.725  14.788  0.00  0.00    +0.000 HD
ENDROOT
BRANCH   2   6
ATOM      6  C   UNL     1      48.489   6.159  15.626  0.00  0.00    +0.000 A 
ATOM      7  C   UNL     1      49.001   7.295  16.238  0.00  0.00    +0.000 A 
ATOM      8  S   UNL     1      49.358   7.078  17.893  0.00  0.00    +0.000 S 
ATOM      9  C   UNL     1      48.808   5.468  17.858  0.00  0.00    +0.000 A 
ATOM     10  N   UNL     1      48.793   4.707  18.985  0.00  0.00    +0.000 NA
ATOM     11  C   UNL     1      48.310   3.519  18.819  0.00  0.00    +0.000 A 
ATOM     12  N   UNL     1      47.860   3.017  17.627  0.00  0.00    +0.000 N 
ATOM     13  C   UNL     1      47.929   3.720  16.449  0.00  0.00    +0.000 A 
ATOM     14  O   UNL     1      47.654   3.187  15.377  0.00  0.00    +0.000 OA
ATOM     15  C   UNL     1      48.401   5.087  16.593  0.00  0.00    +0.000 A 
ATOM     16  H   UNL     1      47.536   2.063  17.558  0.00  0.00    +0.000 HD
ENDBRANCH   2   6
BRANCH   3  17
ATOM     17  C   UNL     1      46.027   6.336  12.859  0.00  0.00    +0.000 C 
BRANCH  17  18
ATOM     18  C   UNL     1      45.090   5.308  12.294  0.00  0.00    +0.000 A 
ATOM     19  C   UNL     1      44.740   5.259  10.940  0.00  0.00    +0.000 A 
ATOM     20  C   UNL     1      43.897   4.255  10.477  0.00  0.00    +0.000 A 
ATOM     21  C   UNL     1      43.442   3.314  11.384  0.00  0.00    +0.000 A 
ATOM     22  N   UNL     1      43.775   3.310  12.692  0.00  0.00    +0.000 NA
ATOM     23  C   UNL     1      44.592   4.300  13.115  0.00  0.00    +0.000 A 
ENDBRANCH  17  18
ENDBRANCH   3  17
TORSDOF 3
ENDMDL
MODEL 9
REMARK VINA RESULT:    -5.788      4.128      6.433
REMARK INTER + INTRA:          -7.379
REMARK INTER:                  -6.951
REMARK INTRA:                  -0.428
REMARK UNBOUND:                -0.575
REMARK  Name = 
REMARK  3 active torsions:
REMARK  status: ('A' for Active; 'I' for Inactive)
REMARK    1  A    between atoms: C_2  and  C_11
REMARK    2  A    between atoms: N_3  and  C_4
REMARK    3  A    between atoms: C_4  and  C_5
REMARK                            x       y       z     vdW  Elec       q    Type
REMARK                         _______ _______ _______ _____ _____    ______ ____
ROOT
ATOM      1  N   UNL     1      44.950   9.427  12.937  0.00  0.00    +0.000 NA
ATOM      2  C   UNL     1      44.697   8.488  12.098  0.00  0.00    +0.000 C 
ATOM      3  N   UNL     1      44.024   8.611  10.920  0.00  0.00    +0.000 N 
ATOM      4  H   UNL     1      44.587  10.310  12.574  0.00  0.00    +0.000 HD
ATOM      5  H   UNL     1      43.803   7.736  10.448  0.00  0.00    +0.000 HD
ENDROOT
BRANCH   2   6
ATOM      6  C   UNL     1      45.195   7.148  12.404  0.00  0.00    +0.000 A 
ATOM      7  C   UNL     1      46.480   6.956  12.895  0.00  0.00    +0.000 A 
ATOM      8  S   UNL     1      46.847   5.324  13.230  0.00  0.00    +0.000 S 
ATOM      9  C   UNL     1      45.291   4.820  12.762  0.00  0.00    +0.000 A 
ATOM     10  N   UNL     1      44.918   3.514  12.853  0.00  0.00    +0.000 NA
ATOM     11  C   UNL     1      43.695   3.284  12.504  0.00  0.00    +0.000 A 
ATOM     12  N   UNL     1      42.817   4.234  12.055  0.00  0.00    +0.000 N 
ATOM     13  C   UNL     1      43.171   5.549  11.872  0.00  0.00    +0.000 A 
ATOM     14  O   UNL     1      42.405   6.342  11.330  0.00  0.00    +0.000 OA
ATOM     15  C   UNL     1      44.517   5.875  12.315  0.00  0.00    +0.000 A 
ATOM     16  H   UNL     1      41.887   3.978  11.755  0.00  0.00    +0.000 HD
ENDBRANCH   2   6
BRANCH   3  17
ATOM     17  C   UNL     1      42.955   9.563  10.703  0.00  0.00    +0.000 C 
BRANCH  17  18
ATOM     18  C   UNL     1      43.387  10.710   9.837  0.00  0.00    +0.000 A 
ATOM     19  C   UNL     1      44.692  11.214   9.835  0.00  0.00    +0.000 A 
ATOM     20  C   UNL     1      45.034  12.254   8.977  0.00  0.00    +0.000 A 
ATOM     21  C   UNL     1      44.059  12.749   8.130  0.00  0.00    +0.000 A 
ATOM     22  N   UNL     1      42.796  12.277   8.082  0.00  0.00    +0.000 NA
ATOM     23  C   UNL     1      42.491  11.269   8.930  0.00  0.00    +0.000 A 
ENDBRANCH  17  18
ENDBRANCH   3  17
TORSDOF 3
ENDMDL
