MODEL 1
REMARK VINA RESULT:    -7.813      0.000      0.000
REMARK INTER + INTRA:         -11.568
REMARK INTER:                 -10.554
REMARK INTRA:                  -1.014
REMARK UNBOUND:                -1.014
REMARK  Name = 
REMARK  8 active torsions:
REMARK  status: ('A' for Active; 'I' for Inactive)
REMARK    1  A    between atoms: C_1  and  C_2
REMARK    2  A    between atoms: C_2  and  N_3
REMARK    3  A    between atoms: C_2  and  C_16
REMARK    4  A    between atoms: C_4  and  C_6
REMARK    5  A    between atoms: C_19  and  O_20
REMARK    6  A    between atoms: O_20  and  C_21
REMARK    7  A    between atoms: C_21  and  C_22
REMARK    8  A    between atoms: N_27  and  C_28
REMARK                            x       y       z     vdW  Elec       q    Type
REMARK                         _______ _______ _______ _____ _____    ______ ____
ROOT
ATOM      1  C   UNL     1      48.925   8.153  13.332  0.00  0.00    +0.000 C 
ATOM      2  C   UNL     1      48.598   6.831  14.043  0.00  0.00    +0.000 C 
ENDROOT
BRANCH   2   3
ATOM      3  C   UNL     1      47.428   6.144  13.346  0.00  0.00    +0.000 A 
ATOM      4  C   UNL     1      46.917   6.641  12.136  0.00  0.00    +0.000 A 
ATOM      5  C   UNL     1      45.803   6.042  11.523  0.00  0.00    +0.000 A 
ATOM      6  C   UNL     1      45.193   4.934  12.104  0.00  0.00    +0.000 A 
ATOM      7  C   UNL     1      45.701   4.426  13.302  0.00  0.00    +0.000 A 
ATOM      8  C   UNL     1      46.814   5.013  13.908  0.00  0.00    +0.000 A 
BRANCH   6   9
ATOM      9  O   UNL     1      44.078   4.293  11.637  0.00  0.00    +0.000 OA
BRANCH   9  10
ATOM     10  C   UNL     1      43.904   4.285  10.226  0.00  0.00    +0.000 C 
BRANCH  10  11
ATOM     11  C   UNL     1      44.357   2.930   9.670  0.00  0.00    +0.000 C 
ATOM     12  O   UNL     1      43.814   1.891  10.057  0.00  0.00    +0.000 OA
ATOM     13  N   UNL     1      45.417   2.908   8.761  0.00  0.00    +0.000 N 
ATOM     14  C   UNL     1      45.799   1.600   8.215  0.00  0.00    +0.000 C 
ATOM     15  C   UNL     1      47.198   1.593   7.568  0.00  0.00    +0.000 C 
ATOM     16  N   UNL     1      47.459   2.700   6.626  0.00  0.00    +0.000 NA
ATOM     17  C   UNL     1      46.725   2.532   5.372  0.00  0.00    +0.000 C 
ATOM     18  C   UNL     1      47.135   3.980   7.283  0.00  0.00    +0.000 C 
ATOM     19  C   UNL     1      45.727   4.058   7.905  0.00  0.00    +0.000 C 
ENDBRANCH  10  11
ENDBRANCH   9  10
ENDBRANCH   6   9
ENDBRANCH   2   3
BRANCH   2  20
ATOM     20  N   UNL     1      48.298   7.019  15.454  0.00  0.00    +0.000 N 
ATOM     21  C   UNL     1      49.118   6.554  16.456  0.00  0.00    +0.000 C 
ATOM     22  O   UNL     1      50.187   5.999  16.231  0.00  0.00    +0.000 OA
ATOM     23  H   UNL     1      47.322   7.188  15.682  0.00  0.00    +0.000 HD
BRANCH  21  24
ATOM     24  C   UNL     1      48.681   6.817  17.832  0.00  0.00    +0.000 A 
ATOM     25  C   UNL     1      48.333   8.107  18.206  0.00  0.00    +0.000 A 
ATOM     26  S   UNL     1      47.846   8.236  19.836  0.00  0.00    +0.000 S 
ATOM     27  C   UNL     1      48.130   6.581  20.108  0.00  0.00    +0.000 A 
ATOM     28  N   UNL     1      47.950   6.032  21.339  0.00  0.00    +0.000 NA
ATOM     29  C   UNL     1      48.239   4.776  21.409  0.00  0.00    +0.000 A 
ATOM     30  N   UNL     1      48.677   4.014  20.356  0.00  0.00    +0.000 N 
ATOM     31  C   UNL     1      48.833   4.516  19.086  0.00  0.00    +0.000 A 
ATOM     32  O   UNL     1      49.163   3.799  18.146  0.00  0.00    +0.000 OA
ATOM     33  C   UNL     1      48.555   5.932  18.963  0.00  0.00    +0.000 A 
ATOM     34  H   UNL     1      48.866   3.029  20.474  0.00  0.00    +0.000 HD
ENDBRANCH  21  24
ENDBRANCH   2  20
TORSDOF 6
ENDMDL
MODEL 2
REMARK VINA RESULT:    -7.183      4.988      6.796
REMARK INTER + INTRA:         -10.717
REMARK INTER:                  -9.786
REMARK INTRA:                  -0.930
REMARK UNBOUND:                -1.014
REMARK  Name = 
REMARK  8 active torsions:
REMARK  status: ('A' for Active; 'I' for Inactive)
REMARK    1  A    between atoms: C_1  and  C_2
REMARK    2  A    between atoms: C_2  and  N_3
REMARK    3  A    between atoms: C_2  and  C_16
REMARK    4  A    between atoms: C_4  and  C_6
REMARK    5  A    between atoms: C_19  and  O_20
REMARK    6  A    between atoms: O_20  and  C_21
REMARK    7  A    between atoms: C_21  and  C_22
REMARK    8  A    between atoms: N_27  and  C_28
REMARK                            x       y       z     vdW  Elec       q    Type
REMARK                         _______ _______ _______ _____ _____    ______ ____
ROOT
ATOM      1  C   UNL     1      46.508   3.521  13.090  0.00  0.00    +0.000 C 
ATOM      2  C   UNL     1      46.280   4.685  14.066  0.00  0.00    +0.000 C 
ENDROOT
BRANCH   2   3
ATOM      3  C   UNL     1      46.023   5.971  13.286  0.00  0.00    +0.000 A 
ATOM      4  C   UNL     1      46.939   7.034  13.326  0.00  0.00    +0.000 A 
ATOM      5  C   UNL     1      46.674   8.241  12.656  0.00  0.00    +0.000 A 
ATOM      6  C   UNL     1      45.498   8.395  11.927  0.00  0.00    +0.000 A 
ATOM      7  C   UNL     1      44.586   7.339  11.872  0.00  0.00    +0.000 A 
ATOM      8  C   UNL     1      44.851   6.136  12.531  0.00  0.00    +0.000 A 
BRANCH   6   9
ATOM      9  O   UNL     1      45.101   9.530  11.274  0.00  0.00    +0.000 OA
BRANCH   9  10
ATOM     10  C   UNL     1      43.719   9.618  10.951  0.00  0.00    +0.000 C 
BRANCH  10  11
ATOM     11  C   UNL     1      43.163  10.947  11.474  0.00  0.00    +0.000 C 
ATOM     12  O   UNL     1      43.935  11.860  11.785  0.00  0.00    +0.000 OA
ATOM     13  N   UNL     1      41.780  11.072  11.627  0.00  0.00    +0.000 N 
ATOM     14  C   UNL     1      41.276  12.372  12.089  0.00  0.00    +0.000 C 
ATOM     15  C   UNL     1      39.832  12.312  12.623  0.00  0.00    +0.000 C 
ATOM     16  N   UNL     1      38.870  11.606  11.753  0.00  0.00    +0.000 NA
ATOM     17  C   UNL     1      38.544  12.385  10.559  0.00  0.00    +0.000 C 
ATOM     18  C   UNL     1      39.412  10.279  11.410  0.00  0.00    +0.000 C 
ATOM     19  C   UNL     1      40.838  10.286  10.824  0.00  0.00    +0.000 C 
ENDBRANCH  10  11
ENDBRANCH   9  10
ENDBRANCH   6   9
ENDBRANCH   2   3
BRANCH   2  20
ATOM     20  N   UNL     1      47.397   4.870  14.980  0.00  0.00    +0.000 N 
ATOM     21  C   UNL     1      47.439   4.289  16.226  0.00  0.00    +0.000 C 
ATOM     22  O   UNL     1      46.568   3.529  16.632  0.00  0.00    +0.000 OA
ATOM     23  H   UNL     1      47.967   5.697  14.824  0.00  0.00    +0.000 HD
BRANCH  21  24
ATOM     24  C   UNL     1      48.630   4.570  17.036  0.00  0.00    +0.000 A 
ATOM     25  C   UNL     1      48.783   5.818  17.621  0.00  0.00    +0.000 A 
ATOM     26  S   UNL     1      50.219   5.975  18.531  0.00  0.00    +0.000 S 
ATOM     27  C   UNL     1      50.706   4.393  18.133  0.00  0.00    +0.000 A 
ATOM     28  N   UNL     1      51.897   3.898  18.563  0.00  0.00    +0.000 NA
ATOM     29  C   UNL     1      52.154   2.700  18.156  0.00  0.00    +0.000 A 
ATOM     30  N   UNL     1      51.320   1.946  17.369  0.00  0.00    +0.000 N 
ATOM     31  C   UNL     1      50.089   2.389  16.947  0.00  0.00    +0.000 A 
ATOM     32  O   UNL     1      49.334   1.671  16.300  0.00  0.00    +0.000 OA
ATOM     33  C   UNL     1      49.769   3.744  17.349  0.00  0.00    +0.000 A 
ATOM     34  H   UNL     1      51.572   1.006  17.103  0.00  0.00    +0.000 HD
ENDBRANCH  21  24
ENDBRANCH   2  20
TORSDOF 6
ENDMDL
MODEL 3
REMARK VINA RESULT:    -7.174      2.925      9.019
REMARK INTER + INTRA:         -10.704
REMARK INTER:                  -9.321
REMARK INTRA:                  -1.383
REMARK UNBOUND:                -1.014
REMARK  Name = 
REMARK  8 active torsions:
REMARK  status: ('A' for Active; 'I' for Inactive)
REMARK    1  A    between atoms: C_1  and  C_2
REMARK    2  A    between atoms: C_2  and  N_3
REMARK    3  A    between atoms: C_2  and  C_16
REMARK    4  A    between atoms: C_4  and  C_6
REMARK    5  A    between atoms: C_19  and  O_20
REMARK    6  A    between atoms: O_20  and  C_21
REMARK    7  A    between atoms: C_21  and  C_22
REMARK    8  A    between atoms: N_27  and  C_28
REMARK                            x       y       z     vdW  Elec       q    Type
REMARK                         _______ _______ _______ _____ _____    ______ ____
ROOT
ATOM      1  C   UNL     1      49.376   7.752  11.173  0.00  0.00    +0.000 C 
ATOM      2  C   UNL     1      48.140   7.844  12.080  0.00  0.00    +0.000 C 
ENDROOT
BRANCH   2   3
ATOM      3  C   UNL     1      48.574   8.015  13.532  0.00  0.00    +0.000 A 
ATOM      4  C   UNL     1      47.796   8.758  14.434  0.00  0.00    +0.000 A 
ATOM      5  C   UNL     1      48.224   8.965  15.757  0.00  0.00    +0.000 A 
ATOM      6  C   UNL     1      49.428   8.421  16.198  0.00  0.00    +0.000 A 
ATOM      7  C   UNL     1      50.203   7.671  15.310  0.00  0.00    +0.000 A 
ATOM      8  C   UNL     1      49.775   7.457  13.997  0.00  0.00    +0.000 A 
BRANCH   6   9
ATOM      9  O   UNL     1      49.979   8.589  17.439  0.00  0.00    +0.000 OA
BRANCH   9  10
ATOM     10  C   UNL     1      49.240   8.056  18.531  0.00  0.00    +0.000 C 
BRANCH  10  11
ATOM     11  C   UNL     1      49.779   6.663  18.873  0.00  0.00    +0.000 C 
ATOM     12  O   UNL     1      50.635   6.532  19.754  0.00  0.00    +0.000 OA
ATOM     13  N   UNL     1      49.313   5.572  18.137  0.00  0.00    +0.000 N 
ATOM     14  C   UNL     1      49.817   4.247  18.518  0.00  0.00    +0.000 C 
ATOM     15  C   UNL     1      49.598   3.175  17.432  0.00  0.00    +0.000 C 
ATOM     16  N   UNL     1      48.234   3.123  16.868  0.00  0.00    +0.000 NA
ATOM     17  C   UNL     1      47.274   2.559  17.816  0.00  0.00    +0.000 C 
ATOM     18  C   UNL     1      47.841   4.475  16.430  0.00  0.00    +0.000 C 
ATOM     19  C   UNL     1      47.994   5.579  17.495  0.00  0.00    +0.000 C 
ENDBRANCH  10  11
ENDBRANCH   9  10
ENDBRANCH   6   9
ENDBRANCH   2   3
BRANCH   2  20
ATOM     20  N   UNL     1      47.270   6.685  11.951  0.00  0.00    +0.000 N 
ATOM     21  C   UNL     1      45.902   6.792  11.847  0.00  0.00    +0.000 C 
ATOM     22  O   UNL     1      45.324   7.871  11.798  0.00  0.00    +0.000 OA
ATOM     23  H   UNL     1      47.651   5.804  12.283  0.00  0.00    +0.000 HD
BRANCH  21  24
ATOM     24  C   UNL     1      45.157   5.533  11.727  0.00  0.00    +0.000 A 
ATOM     25  C   UNL     1      44.460   5.041  12.820  0.00  0.00    +0.000 A 
ATOM     26  S   UNL     1      43.648   3.573  12.507  0.00  0.00    +0.000 S 
ATOM     27  C   UNL     1      44.240   3.524  10.912  0.00  0.00    +0.000 A 
ATOM     28  N   UNL     1      43.951   2.480  10.090  0.00  0.00    +0.000 NA
ATOM     29  C   UNL     1      44.496   2.556   8.922  0.00  0.00    +0.000 A 
ATOM     30  N   UNL     1      45.293   3.589   8.497  0.00  0.00    +0.000 N 
ATOM     31  C   UNL     1      45.576   4.684   9.278  0.00  0.00    +0.000 A 
ATOM     32  O   UNL     1      46.236   5.626   8.851  0.00  0.00    +0.000 OA
ATOM     33  C   UNL     1      45.015   4.629  10.613  0.00  0.00    +0.000 A 
ATOM     34  H   UNL     1      45.672   3.597   7.561  0.00  0.00    +0.000 HD
ENDBRANCH  21  24
ENDBRANCH   2  20
TORSDOF 6
ENDMDL
MODEL 4
REMARK VINA RESULT:    -6.756      3.245      9.761
REMARK INTER + INTRA:         -10.140
REMARK INTER:                  -9.037
REMARK INTRA:                  -1.103
REMARK UNBOUND:                -1.014
REMARK  Name = 
REMARK  8 active torsions:
REMARK  status: ('A' for Active; 'I' for Inactive)
REMARK    1  A    between atoms: C_1  and  C_2
REMARK    2  A    between atoms: C_2  and  N_3
REMARK    3  A    between atoms: C_2  and  C_16
REMARK    4  A    between atoms: C_4  and  C_6
REMARK    5  A    between atoms: C_19  and  O_20
REMARK    6  A    between atoms: O_20  and  C_21
REMARK    7  A    between atoms: C_21  and  C_22
REMARK    8  A    between atoms: N_27  and  C_28
REMARK                            x       y       z     vdW  Elec       q    Type
REMARK                         _______ _______ _______ _____ _____    ______ ____
ROOT
ATOM      1  C   UNL     1      49.039   8.939  11.495  0.00  0.00    +0.000 C 
ATOM      2  C   UNL     1      48.091   8.185  12.439  0.00  0.00    +0.000 C 
ENDROOT
BRANCH   2   3
ATOM      3  C   UNL     1      48.853   7.718  13.674  0.00  0.00    +0.000 A 
ATOM      4  C   UNL     1      50.177   8.127  13.902  0.00  0.00    +0.000 A 
ATOM      5  C   UNL     1      50.900   7.651  15.010  0.00  0.00    +0.000 A 
ATOM      6  C   UNL     1      50.305   6.771  15.910  0.00  0.00    +0.000 A 
ATOM      7  C   UNL     1      48.985   6.366  15.697  0.00  0.00    +0.000 A 
ATOM      8  C   UNL     1      48.262   6.846  14.602  0.00  0.00    +0.000 A 
BRANCH   6   9
ATOM      9  O   UNL     1      50.912   6.198  16.994  0.00  0.00    +0.000 OA
BRANCH   9  10
ATOM     10  C   UNL     1      50.378   4.954  17.428  0.00  0.00    +0.000 C 
BRANCH  10  11
ATOM     11  C   UNL     1      50.572   4.824  18.944  0.00  0.00    +0.000 C 
ATOM     12  O   UNL     1      51.626   4.364  19.394  0.00  0.00    +0.000 OA
ATOM     13  N   UNL     1      49.517   5.193  19.781  0.00  0.00    +0.000 N 
ATOM     14  C   UNL     1      49.750   5.097  21.227  0.00  0.00    +0.000 C 
ATOM     15  C   UNL     1      48.452   5.115  22.058  0.00  0.00    +0.000 C 
ATOM     16  N   UNL     1      47.497   6.185  21.706  0.00  0.00    +0.000 NA
ATOM     17  C   UNL     1      47.964   7.498  22.150  0.00  0.00    +0.000 C 
ATOM     18  C   UNL     1      47.251   6.155  20.253  0.00  0.00    +0.000 C 
ATOM     19  C   UNL     1      48.516   6.185  19.373  0.00  0.00    +0.000 C 
ENDBRANCH  10  11
ENDBRANCH   9  10
ENDBRANCH   6   9
ENDBRANCH   2   3
BRANCH   2  20
ATOM     20  N   UNL     1      47.447   7.053  11.791  0.00  0.00    +0.000 N 
ATOM     21  C   UNL     1      46.096   7.018  11.528  0.00  0.00    +0.000 C 
ATOM     22  O   UNL     1      45.351   7.960  11.768  0.00  0.00    +0.000 OA
ATOM     23  H   UNL     1      47.939   6.166  11.853  0.00  0.00    +0.000 HD
BRANCH  21  24
ATOM     24  C   UNL     1      45.591   5.806  10.873  0.00  0.00    +0.000 A 
ATOM     25  C   UNL     1      45.817   5.614   9.517  0.00  0.00    +0.000 A 
ATOM     26  S   UNL     1      45.166   4.155   8.917  0.00  0.00    +0.000 S 
ATOM     27  C   UNL     1      44.521   3.754  10.439  0.00  0.00    +0.000 A 
ATOM     28  N   UNL     1      43.788   2.623  10.613  0.00  0.00    +0.000 NA
ATOM     29  C   UNL     1      43.329   2.464  11.809  0.00  0.00    +0.000 A 
ATOM     30  N   UNL     1      43.550   3.327  12.853  0.00  0.00    +0.000 N 
ATOM     31  C   UNL     1      44.320   4.460  12.734  0.00  0.00    +0.000 A 
ATOM     32  O   UNL     1      44.557   5.181  13.698  0.00  0.00    +0.000 OA
ATOM     33  C   UNL     1      44.829   4.702  11.399  0.00  0.00    +0.000 A 
ATOM     34  H   UNL     1      43.179   3.133  13.771  0.00  0.00    +0.000 HD
ENDBRANCH  21  24
ENDBRANCH   2  20
TORSDOF 6
ENDMDL
MODEL 5
REMARK VINA RESULT:    -6.715      3.820     10.242
REMARK INTER + INTRA:         -10.085
REMARK INTER:                  -8.855
REMARK INTRA:                  -1.230
REMARK UNBOUND:                -1.014
REMARK  Name = 
REMARK  8 active torsions:
REMARK  status: ('A' for Active; 'I' for Inactive)
REMARK    1  A    between atoms: C_1  and  C_2
REMARK    2  A    between atoms: C_2  and  N_3
REMARK    3  A    between atoms: C_2  and  C_16
REMARK    4  A    between atoms: C_4  and  C_6
REMARK    5  A    between atoms: C_19  and  O_20
REMARK    6  A    between atoms: O_20  and  C_21
REMARK    7  A    between atoms: C_21  and  C_22
REMARK    8  A    between atoms: N_27  and  C_28
REMARK                            x       y       z     vdW  Elec       q    Type
REMARK                         _______ _______ _______ _____ _____    ______ ____
ROOT
ATOM      1  C   UNL     1      46.976   3.080  17.407  0.00  0.00    +0.000 C 
ATOM      2  C   UNL     1      47.873   3.854  16.430  0.00  0.00    +0.000 C 
ENDROOT
BRANCH   2   3
ATOM      3  C   UNL     1      48.888   4.686  17.207  0.00  0.00    +0.000 A 
ATOM      4  C   UNL     1      49.365   5.903  16.696  0.00  0.00    +0.000 A 
ATOM      5  C   UNL     1      50.343   6.642  17.384  0.00  0.00    +0.000 A 
ATOM      6  C   UNL     1      50.847   6.180  18.597  0.00  0.00    +0.000 A 
ATOM      7  C   UNL     1      50.370   4.975  19.119  0.00  0.00    +0.000 A 
ATOM      8  C   UNL     1      49.391   4.244  18.441  0.00  0.00    +0.000 A 
BRANCH   6   9
ATOM      9  O   UNL     1      51.831   6.776  19.337  0.00  0.00    +0.000 OA
BRANCH   9  10
ATOM     10  C   UNL     1      51.665   8.163  19.601  0.00  0.00    +0.000 C 
BRANCH  10  11
ATOM     11  C   UNL     1      50.686   8.340  20.768  0.00  0.00    +0.000 C 
ATOM     12  O   UNL     1      51.036   8.048  21.917  0.00  0.00    +0.000 OA
ATOM     13  N   UNL     1      49.395   8.791  20.488  0.00  0.00    +0.000 N 
ATOM     14  C   UNL     1      48.496   8.990  21.632  0.00  0.00    +0.000 C 
ATOM     15  C   UNL     1      47.010   9.078  21.232  0.00  0.00    +0.000 C 
ATOM     16  N   UNL     1      46.714   9.994  20.112  0.00  0.00    +0.000 NA
ATOM     17  C   UNL     1      46.836  11.396  20.508  0.00  0.00    +0.000 C 
ATOM     18  C   UNL     1      47.597   9.668  18.977  0.00  0.00    +0.000 C 
ATOM     19  C   UNL     1      49.101   9.615  19.311  0.00  0.00    +0.000 C 
ENDBRANCH  10  11
ENDBRANCH   9  10
ENDBRANCH   6   9
ENDBRANCH   2   3
BRANCH   2  20
ATOM     20  N   UNL     1      47.110   4.707  15.532  0.00  0.00    +0.000 N 
ATOM     21  C   UNL     1      46.977   4.440  14.189  0.00  0.00    +0.000 C 
ATOM     22  O   UNL     1      47.444   3.436  13.664  0.00  0.00    +0.000 OA
ATOM     23  H   UNL     1      46.973   5.666  15.839  0.00  0.00    +0.000 HD
BRANCH  21  24
ATOM     24  C   UNL     1      46.179   5.394  13.410  0.00  0.00    +0.000 A 
ATOM     25  C   UNL     1      46.604   6.709  13.292  0.00  0.00    +0.000 A 
ATOM     26  S   UNL     1      45.563   7.681  12.351  0.00  0.00    +0.000 S 
ATOM     27  C   UNL     1      44.485   6.387  12.110  0.00  0.00    +0.000 A 
ATOM     28  N   UNL     1      43.332   6.556  11.411  0.00  0.00    +0.000 NA
ATOM     29  C   UNL     1      42.593   5.501  11.339  0.00  0.00    +0.000 A 
ATOM     30  N   UNL     1      42.909   4.285  11.890  0.00  0.00    +0.000 N 
ATOM     31  C   UNL     1      44.083   4.056  12.569  0.00  0.00    +0.000 A 
ATOM     32  O   UNL     1      44.373   2.943  12.996  0.00  0.00    +0.000 OA
ATOM     33  C   UNL     1      44.932   5.222  12.708  0.00  0.00    +0.000 A 
ATOM     34  H   UNL     1      42.295   3.492  11.779  0.00  0.00    +0.000 HD
ENDBRANCH  21  24
ENDBRANCH   2  20
TORSDOF 6
ENDMDL
MODEL 6
REMARK VINA RESULT:    -6.445      3.899      9.580
REMARK INTER + INTRA:          -9.720
REMARK INTER:                  -8.432
REMARK INTRA:                  -1.288
REMARK UNBOUND:                -1.014
REMARK  Name = 
REMARK  8 active torsions:
REMARK  status: ('A' for Active; 'I' for Inactive)
REMARK    1  A    between atoms: C_1  and  C_2
REMARK    2  A    between atoms: C_2  and  N_3
REMARK    3  A    between atoms: C_2  and  C_16
REMARK    4  A    between atoms: C_4  and  C_6
REMARK    5  A    between atoms: C_19  and  O_20
REMARK    6  A    between atoms: O_20  and  C_21
REMARK    7  A    between atoms: C_21  and  C_22
REMARK    8  A    between atoms: N_27  and  C_28
REMARK                            x       y       z     vdW  Elec       q    Type
REMARK                         _______ _______ _______ _____ _____    ______ ____
ROOT
ATOM      1  C   UNL     1      46.938   3.079  17.351  0.00  0.00    +0.000 C 
ATOM      2  C   UNL     1      47.840   3.982  16.496  0.00  0.00    +0.000 C 
ENDROOT
BRANCH   2   3
ATOM      3  C   UNL     1      48.701   4.859  17.399  0.00  0.00    +0.000 A 
ATOM      4  C   UNL     1      50.094   4.916  17.234  0.00  0.00    +0.000 A 
ATOM      5  C   UNL     1      50.894   5.677  18.103  0.00  0.00    +0.000 A 
ATOM      6  C   UNL     1      50.311   6.401  19.140  0.00  0.00    +0.000 A 
ATOM      7  C   UNL     1      48.926   6.359  19.306  0.00  0.00    +0.000 A 
ATOM      8  C   UNL     1      48.127   5.610  18.438  0.00  0.00    +0.000 A 
BRANCH   6   9
ATOM      9  O   UNL     1      50.980   7.137  20.079  0.00  0.00    +0.000 OA
BRANCH   9  10
ATOM     10  C   UNL     1      50.671   8.525  20.125  0.00  0.00    +0.000 C 
BRANCH  10  11
ATOM     11  C   UNL     1      51.417   9.244  18.995  0.00  0.00    +0.000 C 
ATOM     12  O   UNL     1      52.649   9.175  18.927  0.00  0.00    +0.000 OA
ATOM     13  N   UNL     1      50.675  10.005  18.090  0.00  0.00    +0.000 N 
ATOM     14  C   UNL     1      51.414  10.646  16.995  0.00  0.00    +0.000 C 
ATOM     15  C   UNL     1      50.624  11.774  16.304  0.00  0.00    +0.000 C 
ATOM     16  N   UNL     1      49.238  11.430  15.928  0.00  0.00    +0.000 NA
ATOM     17  C   UNL     1      49.195  10.512  14.790  0.00  0.00    +0.000 C 
ATOM     18  C   UNL     1      48.542  10.877  17.104  0.00  0.00    +0.000 C 
ATOM     19  C   UNL     1      49.266   9.711  17.806  0.00  0.00    +0.000 C 
ENDBRANCH  10  11
ENDBRANCH   9  10
ENDBRANCH   6   9
ENDBRANCH   2   3
BRANCH   2  20
ATOM     20  N   UNL     1      47.080   4.811  15.573  0.00  0.00    +0.000 N 
ATOM     21  C   UNL     1      46.988   4.533  14.228  0.00  0.00    +0.000 C 
ATOM     22  O   UNL     1      47.491   3.536  13.723  0.00  0.00    +0.000 OA
ATOM     23  H   UNL     1      46.912   5.769  15.870  0.00  0.00    +0.000 HD
BRANCH  21  24
ATOM     24  C   UNL     1      46.188   5.462  13.423  0.00  0.00    +0.000 A 
ATOM     25  C   UNL     1      46.594   6.782  13.292  0.00  0.00    +0.000 A 
ATOM     26  S   UNL     1      45.554   7.724  12.320  0.00  0.00    +0.000 S 
ATOM     27  C   UNL     1      44.500   6.409  12.081  0.00  0.00    +0.000 A 
ATOM     28  N   UNL     1      43.357   6.550  11.360  0.00  0.00    +0.000 NA
ATOM     29  C   UNL     1      42.635   5.482  11.292  0.00  0.00    +0.000 A 
ATOM     30  N   UNL     1      42.962   4.279  11.866  0.00  0.00    +0.000 N 
ATOM     31  C   UNL     1      44.127   4.079  12.567  0.00  0.00    +0.000 A 
ATOM     32  O   UNL     1      44.427   2.977  13.015  0.00  0.00    +0.000 OA
ATOM     33  C   UNL     1      44.956   5.260  12.703  0.00  0.00    +0.000 A 
ATOM     34  H   UNL     1      42.362   3.475  11.757  0.00  0.00    +0.000 HD
ENDBRANCH  21  24
ENDBRANCH   2  20
TORSDOF 6
ENDMDL
MODEL 7
REMARK VINA RESULT:    -6.360      4.263      9.031
REMARK INTER + INTRA:          -9.606
REMARK INTER:                  -7.835
REMARK INTRA:                  -1.771
REMARK UNBOUND:                -1.014
REMARK  Name = 
REMARK  8 active torsions:
REMARK  status: ('A' for Active; 'I' for Inactive)
REMARK    1  A    between atoms: C_1  and  C_2
REMARK    2  A    between atoms: C_2  and  N_3
REMARK    3  A    between atoms: C_2  and  C_16
REMARK    4  A    between atoms: C_4  and  C_6
REMARK    5  A    between atoms: C_19  and  O_20
REMARK    6  A    between atoms: O_20  and  C_21
REMARK    7  A    between atoms: C_21  and  C_22
REMARK    8  A    between atoms: N_27  and  C_28
REMARK                            x       y       z     vdW  Elec       q    Type
REMARK                         _______ _______ _______ _____ _____    ______ ____
ROOT
ATOM      1  C   UNL     1      47.252   3.165  17.461  0.00  0.00    +0.000 C 
ATOM      2  C   UNL     1      47.963   4.113  16.483  0.00  0.00    +0.000 C 
ENDROOT
BRANCH   2   3
ATOM      3  C   UNL     1      48.691   5.206  17.259  0.00  0.00    +0.000 A 
ATOM      4  C   UNL     1      50.057   5.452  17.046  0.00  0.00    +0.000 A 
ATOM      5  C   UNL     1      50.743   6.419  17.802  0.00  0.00    +0.000 A 
ATOM      6  C   UNL     1      50.069   7.160  18.770  0.00  0.00    +0.000 A 
ATOM      7  C   UNL     1      48.708   6.929  18.981  0.00  0.00    +0.000 A 
ATOM      8  C   UNL     1      48.023   5.975  18.225  0.00  0.00    +0.000 A 
BRANCH   6   9
ATOM      9  O   UNL     1      50.629   8.090  19.602  0.00  0.00    +0.000 OA
BRANCH   9  10
ATOM     10  C   UNL     1      51.330   9.155  18.973  0.00  0.00    +0.000 C 
BRANCH  10  11
ATOM     11  C   UNL     1      50.328  10.055  18.241  0.00  0.00    +0.000 C 
ATOM     12  O   UNL     1      49.576  10.793  18.887  0.00  0.00    +0.000 OA
ATOM     13  N   UNL     1      50.263   9.981  16.849  0.00  0.00    +0.000 N 
ATOM     14  C   UNL     1      49.324  10.887  16.176  0.00  0.00    +0.000 C 
ATOM     15  C   UNL     1      49.007  10.471  14.726  0.00  0.00    +0.000 C 
ATOM     16  N   UNL     1      50.184  10.153  13.893  0.00  0.00    +0.000 NA
ATOM     17  C   UNL     1      50.935  11.354  13.532  0.00  0.00    +0.000 C 
ATOM     18  C   UNL     1      51.026   9.172  14.602  0.00  0.00    +0.000 C 
ATOM     19  C   UNL     1      51.414   9.562  16.042  0.00  0.00    +0.000 C 
ENDBRANCH  10  11
ENDBRANCH   9  10
ENDBRANCH   6   9
ENDBRANCH   2   3
BRANCH   2  20
ATOM     20  N   UNL     1      47.046   4.709  15.523  0.00  0.00    +0.000 N 
ATOM     21  C   UNL     1      46.834   4.177  14.271  0.00  0.00    +0.000 C 
ATOM     22  O   UNL     1      47.356   3.133  13.898  0.00  0.00    +0.000 OA
ATOM     23  H   UNL     1      46.837   5.694  15.659  0.00  0.00    +0.000 HD
BRANCH  21  24
ATOM     24  C   UNL     1      45.882   4.891  13.412  0.00  0.00    +0.000 A 
ATOM     25  C   UNL     1      44.797   4.212  12.877  0.00  0.00    +0.000 A 
ATOM     26  S   UNL     1      43.791   5.190  11.907  0.00  0.00    +0.000 S 
ATOM     27  C   UNL     1      44.799   6.543  12.132  0.00  0.00    +0.000 A 
ATOM     28  N   UNL     1      44.528   7.727  11.521  0.00  0.00    +0.000 NA
ATOM     29  C   UNL     1      45.396   8.655  11.750  0.00  0.00    +0.000 A 
ATOM     30  N   UNL     1      46.503   8.510  12.548  0.00  0.00    +0.000 N 
ATOM     31  C   UNL     1      46.793   7.345  13.218  0.00  0.00    +0.000 A 
ATOM     32  O   UNL     1      47.753   7.262  13.977  0.00  0.00    +0.000 OA
ATOM     33  C   UNL     1      45.866   6.261  12.964  0.00  0.00    +0.000 A 
ATOM     34  H   UNL     1      47.133   9.284  12.702  0.00  0.00    +0.000 HD
ENDBRANCH  21  24
ENDBRANCH   2  20
TORSDOF 6
ENDMDL
MODEL 8
REMARK VINA RESULT:    -6.306      2.826     10.232
REMARK INTER + INTRA:          -9.533
REMARK INTER:                  -8.586
REMARK INTRA:                  -0.946
REMARK UNBOUND:                -1.014
REMARK  Name = 
REMARK  8 active torsions:
REMARK  status: ('A' for Active; 'I' for Inactive)
REMARK    1  A    between atoms: C_1  and  C_2
REMARK    2  A    between atoms: C_2  and  N_3
REMARK    3  A    between atoms: C_2  and  C_16
REMARK    4  A    between atoms: C_4  and  C_6
REMARK    5  A    between atoms: C_19  and  O_20
REMARK    6  A    between atoms: O_20  and  C_21
REMARK    7  A    between atoms: C_21  and  C_22
REMARK    8  A    between atoms: N_27  and  C_28
REMARK                            x       y       z     vdW  Elec       q    Type
REMARK                         _______ _______ _______ _____ _____    ______ ____
ROOT
ATOM      1  C   UNL     1      49.120   7.776  11.263  0.00  0.00    +0.000 C 
ATOM      2  C   UNL     1      47.859   7.750  12.140  0.00  0.00    +0.000 C 
ENDROOT
BRANCH   2   3
ATOM      3  C   UNL     1      48.248   7.860  13.610  0.00  0.00    +0.000 A 
ATOM      4  C   UNL     1      48.861   6.786  14.275  0.00  0.00    +0.000 A 
ATOM      5  C   UNL     1      49.168   6.865  15.645  0.00  0.00    +0.000 A 
ATOM      6  C   UNL     1      48.877   8.022  16.363  0.00  0.00    +0.000 A 
ATOM      7  C   UNL     1      48.276   9.098  15.708  0.00  0.00    +0.000 A 
ATOM      8  C   UNL     1      47.979   9.026  14.344  0.00  0.00    +0.000 A 
BRANCH   6   9
ATOM      9  O   UNL     1      49.077   8.206  17.704  0.00  0.00    +0.000 OA
BRANCH   9  10
ATOM     10  C   UNL     1      48.107   7.629  18.569  0.00  0.00    +0.000 C 
BRANCH  10  11
ATOM     11  C   UNL     1      48.640   6.295  19.106  0.00  0.00    +0.000 C 
ATOM     12  O   UNL     1      48.240   5.231  18.622  0.00  0.00    +0.000 OA
ATOM     13  N   UNL     1      49.542   6.322  20.171  0.00  0.00    +0.000 N 
ATOM     14  C   UNL     1      50.066   5.031  20.634  0.00  0.00    +0.000 C 
ATOM     15  C   UNL     1      50.704   5.097  22.035  0.00  0.00    +0.000 C 
ATOM     16  N   UNL     1      51.661   6.204  22.237  0.00  0.00    +0.000 NA
ATOM     17  C   UNL     1      52.916   5.973  21.523  0.00  0.00    +0.000 C 
ATOM     18  C   UNL     1      51.026   7.471  21.833  0.00  0.00    +0.000 C 
ATOM     19  C   UNL     1      50.414   7.476  20.418  0.00  0.00    +0.000 C 
ENDBRANCH  10  11
ENDBRANCH   9  10
ENDBRANCH   6   9
ENDBRANCH   2   3
BRANCH   2  20
ATOM     20  N   UNL     1      47.056   6.557  11.922  0.00  0.00    +0.000 N 
ATOM     21  C   UNL     1      45.681   6.585  11.876  0.00  0.00    +0.000 C 
ATOM     22  O   UNL     1      45.037   7.625  11.957  0.00  0.00    +0.000 OA
ATOM     23  H   UNL     1      47.503   5.673  12.150  0.00  0.00    +0.000 HD
BRANCH  21  24
ATOM     24  C   UNL     1      45.009   5.300  11.653  0.00  0.00    +0.000 A 
ATOM     25  C   UNL     1      44.302   4.705  12.688  0.00  0.00    +0.000 A 
ATOM     26  S   UNL     1      43.581   3.220  12.257  0.00  0.00    +0.000 S 
ATOM     27  C   UNL     1      44.230   3.299  10.686  0.00  0.00    +0.000 A 
ATOM     28  N   UNL     1      44.026   2.295   9.793  0.00  0.00    +0.000 NA
ATOM     29  C   UNL     1      44.607   2.470   8.653  0.00  0.00    +0.000 A 
ATOM     30  N   UNL     1      45.361   3.567   8.320  0.00  0.00    +0.000 N 
ATOM     31  C   UNL     1      45.557   4.625   9.175  0.00  0.00    +0.000 A 
ATOM     32  O   UNL     1      46.180   5.624   8.830  0.00  0.00    +0.000 OA
ATOM     33  C   UNL     1      44.954   4.460  10.482  0.00  0.00    +0.000 A 
ATOM     34  H   UNL     1      45.771   3.652   7.401  0.00  0.00    +0.000 HD
ENDBRANCH  21  24
ENDBRANCH   2  20
TORSDOF 6
ENDMDL
MODEL 9
REMARK VINA RESULT:    -6.249      3.997      9.286
REMARK INTER + INTRA:          -9.455
REMARK INTER:                  -8.309
REMARK INTRA:                  -1.146
REMARK UNBOUND:                -1.014
REMARK  Name = 
REMARK  8 active torsions:
REMARK  status: ('A' for Active; 'I' for Inactive)
REMARK    1  A    between atoms: C_1  and  C_2
REMARK    2  A    between atoms: C_2  and  N_3
REMARK    3  A    between atoms: C_2  and  C_16
REMARK    4  A    between atoms: C_4  and  C_6
REMARK    5  A    between atoms: C_19  and  O_20
REMARK    6  A    between atoms: O_20  and  C_21
REMARK    7  A    between atoms: C_21  and  C_22
REMARK    8  A    between atoms: N_27  and  C_28
REMARK                            x       y       z     vdW  Elec       q    Type
REMARK                         _______ _______ _______ _____ _____    ______ ____
ROOT
ATOM      1  C   UNL     1      46.952   2.927  17.444  0.00  0.00    +0.000 C 
ATOM      2  C   UNL     1      47.841   3.603  16.389  0.00  0.00    +0.000 C 
ENDROOT
BRANCH   2   3
ATOM      3  C   UNL     1      48.973   4.361  17.075  0.00  0.00    +0.000 A 
ATOM      4  C   UNL     1      50.048   3.675  17.662  0.00  0.00    +0.000 A 
ATOM      5  C   UNL     1      51.062   4.369  18.344  0.00  0.00    +0.000 A 
ATOM      6  C   UNL     1      51.021   5.758  18.438  0.00  0.00    +0.000 A 
ATOM      7  C   UNL     1      49.960   6.449  17.848  0.00  0.00    +0.000 A 
ATOM      8  C   UNL     1      48.957   5.762  17.161  0.00  0.00    +0.000 A 
BRANCH   6   9
ATOM      9  O   UNL     1      51.914   6.544  19.113  0.00  0.00    +0.000 OA
BRANCH   9  10
ATOM     10  C   UNL     1      52.080   7.868  18.622  0.00  0.00    +0.000 C 
BRANCH  10  11
ATOM     11  C   UNL     1      53.337   7.926  17.745  0.00  0.00    +0.000 C 
ATOM     12  O   UNL     1      54.398   7.443  18.154  0.00  0.00    +0.000 OA
ATOM     13  N   UNL     1      53.253   8.572  16.510  0.00  0.00    +0.000 N 
ATOM     14  C   UNL     1      54.462   8.573  15.676  0.00  0.00    +0.000 C 
ATOM     15  C   UNL     1      54.429   9.629  14.554  0.00  0.00    +0.000 C 
ATOM     16  N   UNL     1      53.187   9.657  13.755  0.00  0.00    +0.000 NA
ATOM     17  C   UNL     1      53.089   8.502  12.863  0.00  0.00    +0.000 C 
ATOM     18  C   UNL     1      52.030   9.746  14.664  0.00  0.00    +0.000 C 
ATOM     19  C   UNL     1      51.988   8.680  15.777  0.00  0.00    +0.000 C 
ENDBRANCH  10  11
ENDBRANCH   9  10
ENDBRANCH   6   9
ENDBRANCH   2   3
BRANCH   2  20
ATOM     20  N   UNL     1      47.091   4.501  15.524  0.00  0.00    +0.000 N 
ATOM     21  C   UNL     1      46.909   4.258  14.182  0.00  0.00    +0.000 C 
ATOM     22  O   UNL     1      47.316   3.242  13.632  0.00  0.00    +0.000 OA
ATOM     23  H   UNL     1      47.005   5.460  15.847  0.00  0.00    +0.000 HD
BRANCH  21  24
ATOM     24  C   UNL     1      46.132   5.256  13.438  0.00  0.00    +0.000 A 
ATOM     25  C   UNL     1      46.596   6.561  13.349  0.00  0.00    +0.000 A 
ATOM     26  S   UNL     1      45.575   7.589  12.447  0.00  0.00    +0.000 S 
ATOM     27  C   UNL     1      44.455   6.335  12.186  0.00  0.00    +0.000 A 
ATOM     28  N   UNL     1      43.300   6.558  11.505  0.00  0.00    +0.000 NA
ATOM     29  C   UNL     1      42.528   5.528  11.413  0.00  0.00    +0.000 A 
ATOM     30  N   UNL     1      42.813   4.289  11.929  0.00  0.00    +0.000 N 
ATOM     31  C   UNL     1      43.986   4.006  12.587  0.00  0.00    +0.000 A 
ATOM     32  O   UNL     1      44.246   2.874  12.981  0.00  0.00    +0.000 OA
ATOM     33  C   UNL     1      44.872   5.141  12.747  0.00  0.00    +0.000 A 
ATOM     34  H   UNL     1      42.173   3.518  11.805  0.00  0.00    +0.000 HD
ENDBRANCH  21  24
ENDBRANCH   2  20
TORSDOF 6
ENDMDL
