MODEL 1
REMARK VINA RESULT:    -6.926      0.000      0.000
REMARK INTER + INTRA:         -13.008
REMARK INTER:                 -10.975
REMARK INTRA:                  -2.033
REMARK UNBOUND:                -2.033
REMARK  Name = 
REMARK  12 active torsions:
REMARK  status: ('A' for Active; 'I' for Inactive)
REMARK    1  A    between atoms: C_1  and  C_2
REMARK    2  A    between atoms: C_2  and  C_3
REMARK    3  A    between atoms: C_2  and  C_4
REMARK    4  A    between atoms: C_4  and  O_5
REMARK    5  A    between atoms: O_5  and  C_6
REMARK    6  A    between atoms: C_8  and  C_9
REMARK    7  A    between atoms: C_14  and  C_15
REMARK    8  A    between atoms: C_15  and  C_16
REMARK    9  A    between atoms: C_16  and  C_17
REMARK   10  A    between atoms: C_17  and  C_18
REMARK   11  A    between atoms: C_22  and  O_23
REMARK   12  A    between atoms: O_23  and  C_24
REMARK                            x       y       z     vdW  Elec       q    Type
REMARK                         _______ _______ _______ _____ _____    ______ ____
ROOT
ATOM      1  C   UNL     1      48.029   6.432  14.396  0.00  0.00    +0.000 A 
ATOM      2  N   UNL     1      48.483   5.865  15.538  0.00  0.00    +0.000 NA
ATOM      3  C   UNL     1      48.033   4.615  15.823  0.00  0.00    +0.000 A 
ATOM      4  C   UNL     1      47.162   3.904  15.014  0.00  0.00    +0.000 A 
ATOM      5  C   UNL     1      46.697   4.520  13.857  0.00  0.00    +0.000 A 
ATOM      6  C   UNL     1      47.110   5.822  13.539  0.00  0.00    +0.000 A 
ENDROOT
BRANCH   3   7
ATOM      7  C   UNL     1      48.539   3.996  17.084  0.00  0.00    +0.000 C 
ATOM      8  N   UNL     1      48.083   4.563  18.246  0.00  0.00    +0.000 N 
ATOM      9  O   UNL     1      49.307   3.040  17.095  0.00  0.00    +0.000 OA
ATOM     10  H   UNL     1      47.424   5.333  18.200  0.00  0.00    +0.000 HD
ATOM     11  H   UNL     1      48.373   4.185  19.132  0.00  0.00    +0.000 HD
ENDBRANCH   3   7
BRANCH   1  12
ATOM     12  O   UNL     1      48.484   7.701  14.086  0.00  0.00    +0.000 OA
BRANCH  12  13
ATOM     13  C   UNL     1      49.843   7.678  13.628  0.00  0.00    +0.000 C 
BRANCH  13  15
ATOM     14  C   UNL     1      50.506   7.746  11.180  0.00  0.00    +0.000 C 
ATOM     15  C   UNL     1      50.031   8.559  12.382  0.00  0.00    +0.000 C 
ATOM     16  C   UNL     1      48.750   9.320  12.043  0.00  0.00    +0.000 C 
ENDBRANCH  13  15
ENDBRANCH  12  13
ENDBRANCH   1  12
BRANCH   6  17
ATOM     17  C   UNL     1      46.551   6.488  12.310  0.00  0.00    +0.000 C 
BRANCH  17  18
ATOM     18  C   UNL     1      45.155   7.090  12.517  0.00  0.00    +0.000 C 
BRANCH  18  19
ATOM     19  C   UNL     1      44.265   6.782  11.308  0.00  0.00    +0.000 C 
BRANCH  19  20
ATOM     20  C   UNL     1      44.089   5.299  11.108  0.00  0.00    +0.000 A 
ATOM     21  C   UNL     1      43.518   4.507  12.108  0.00  0.00    +0.000 A 
ATOM     22  C   UNL     1      43.420   3.126  11.935  0.00  0.00    +0.000 A 
ATOM     23  C   UNL     1      43.863   2.529  10.749  0.00  0.00    +0.000 A 
ATOM     24  C   UNL     1      44.381   3.314   9.719  0.00  0.00    +0.000 A 
ATOM     25  C   UNL     1      44.525   4.689   9.919  0.00  0.00    +0.000 A 
BRANCH  24  26
ATOM     26  O   UNL     1      44.776   2.867   8.483  0.00  0.00    +0.000 OA
BRANCH  26  27
ATOM     27  C   UNL     1      46.181   2.682   8.266  0.00  0.00    +0.000 C 
ATOM     28  C   UNL     1      46.616   3.496   7.046  0.00  0.00    +0.000 C 
ATOM     29  C   UNL     1      46.937   2.491   5.954  0.00  0.00    +0.000 C 
ATOM     30  N   UNL     1      47.258   1.231   6.618  0.00  0.00    +0.000 NA
ATOM     31  C   UNL     1      46.545   1.234   7.902  0.00  0.00    +0.000 C 
ATOM     32  H   UNL     1      48.262   1.173   6.784  0.00  0.00    +0.000 HD
ENDBRANCH  26  27
ENDBRANCH  24  26
ENDBRANCH  19  20
ENDBRANCH  18  19
ENDBRANCH  17  18
ENDBRANCH   6  17
TORSDOF 10
ENDMDL
MODEL 2
REMARK VINA RESULT:    -6.490      1.275      1.707
REMARK INTER + INTRA:         -12.317
REMARK INTER:                 -10.775
REMARK INTRA:                  -1.542
REMARK UNBOUND:                -2.033
REMARK  Name = 
REMARK  12 active torsions:
REMARK  status: ('A' for Active; 'I' for Inactive)
REMARK    1  A    between atoms: C_1  and  C_2
REMARK    2  A    between atoms: C_2  and  C_3
REMARK    3  A    between atoms: C_2  and  C_4
REMARK    4  A    between atoms: C_4  and  O_5
REMARK    5  A    between atoms: O_5  and  C_6
REMARK    6  A    between atoms: C_8  and  C_9
REMARK    7  A    between atoms: C_14  and  C_15
REMARK    8  A    between atoms: C_15  and  C_16
REMARK    9  A    between atoms: C_16  and  C_17
REMARK   10  A    between atoms: C_17  and  C_18
REMARK   11  A    between atoms: C_22  and  O_23
REMARK   12  A    between atoms: O_23  and  C_24
REMARK                            x       y       z     vdW  Elec       q    Type
REMARK                         _______ _______ _______ _____ _____    ______ ____
ROOT
ATOM      1  C   UNL     1      48.289   6.402  15.266  0.00  0.00    +0.000 A 
ATOM      2  N   UNL     1      48.472   5.493  16.252  0.00  0.00    +0.000 NA
ATOM      3  C   UNL     1      47.873   4.284  16.090  0.00  0.00    +0.000 A 
ATOM      4  C   UNL     1      47.113   3.941  14.985  0.00  0.00    +0.000 A 
ATOM      5  C   UNL     1      46.925   4.902  13.998  0.00  0.00    +0.000 A 
ATOM      6  C   UNL     1      47.499   6.174  14.137  0.00  0.00    +0.000 A 
ENDROOT
BRANCH   3   7
ATOM      7  C   UNL     1      48.080   3.287  17.182  0.00  0.00    +0.000 C 
ATOM      8  N   UNL     1      46.940   2.725  17.694  0.00  0.00    +0.000 N 
ATOM      9  O   UNL     1      49.191   2.977  17.597  0.00  0.00    +0.000 OA
ATOM     10  H   UNL     1      46.039   2.981  17.305  0.00  0.00    +0.000 HD
ATOM     11  H   UNL     1      47.009   2.033  18.422  0.00  0.00    +0.000 HD
ENDBRANCH   3   7
BRANCH   1  12
ATOM     12  O   UNL     1      48.898   7.635  15.411  0.00  0.00    +0.000 OA
BRANCH  12  13
ATOM     13  C   UNL     1      49.876   7.621  16.460  0.00  0.00    +0.000 C 
BRANCH  13  15
ATOM     14  C   UNL     1      52.222   6.687  16.204  0.00  0.00    +0.000 C 
ATOM     15  C   UNL     1      51.292   7.863  15.912  0.00  0.00    +0.000 C 
ATOM     16  C   UNL     1      51.262   8.165  14.414  0.00  0.00    +0.000 C 
ENDBRANCH  13  15
ENDBRANCH  12  13
ENDBRANCH   1  12
BRANCH   6  17
ATOM     17  C   UNL     1      47.237   7.216  13.082  0.00  0.00    +0.000 C 
BRANCH  17  18
ATOM     18  C   UNL     1      46.943   6.628  11.696  0.00  0.00    +0.000 C 
BRANCH  18  19
ATOM     19  C   UNL     1      45.446   6.741  11.383  0.00  0.00    +0.000 C 
BRANCH  19  20
ATOM     20  C   UNL     1      44.831   5.395  11.102  0.00  0.00    +0.000 A 
ATOM     21  C   UNL     1      43.976   4.793  12.030  0.00  0.00    +0.000 A 
ATOM     22  C   UNL     1      43.466   3.518  11.785  0.00  0.00    +0.000 A 
ATOM     23  C   UNL     1      43.778   2.848  10.597  0.00  0.00    +0.000 A 
ATOM     24  C   UNL     1      44.582   3.460   9.636  0.00  0.00    +0.000 A 
ATOM     25  C   UNL     1      45.133   4.714   9.911  0.00  0.00    +0.000 A 
BRANCH  24  26
ATOM     26  O   UNL     1      44.900   2.948   8.403  0.00  0.00    +0.000 OA
BRANCH  26  27
ATOM     27  C   UNL     1      46.289   2.757   8.105  0.00  0.00    +0.000 C 
ATOM     28  C   UNL     1      46.641   3.517   6.825  0.00  0.00    +0.000 C 
ATOM     29  C   UNL     1      46.898   2.465   5.760  0.00  0.00    +0.000 C 
ATOM     30  N   UNL     1      47.267   1.237   6.459  0.00  0.00    +0.000 NA
ATOM     31  C   UNL     1      46.637   1.296   7.784  0.00  0.00    +0.000 C 
ATOM     32  H   UNL     1      48.279   1.189   6.562  0.00  0.00    +0.000 HD
ENDBRANCH  26  27
ENDBRANCH  24  26
ENDBRANCH  19  20
ENDBRANCH  18  19
ENDBRANCH  17  18
ENDBRANCH   6  17
TORSDOF 10
ENDMDL
MODEL 3
REMARK VINA RESULT:    -6.441      3.479      7.177
REMARK INTER + INTRA:         -12.239
REMARK INTER:                 -10.639
REMARK INTRA:                  -1.601
REMARK UNBOUND:                -2.033
REMARK  Name = 
REMARK  12 active torsions:
REMARK  status: ('A' for Active; 'I' for Inactive)
REMARK    1  A    between atoms: C_1  and  C_2
REMARK    2  A    between atoms: C_2  and  C_3
REMARK    3  A    between atoms: C_2  and  C_4
REMARK    4  A    between atoms: C_4  and  O_5
REMARK    5  A    between atoms: O_5  and  C_6
REMARK    6  A    between atoms: C_8  and  C_9
REMARK    7  A    between atoms: C_14  and  C_15
REMARK    8  A    between atoms: C_15  and  C_16
REMARK    9  A    between atoms: C_16  and  C_17
REMARK   10  A    between atoms: C_17  and  C_18
REMARK   11  A    between atoms: C_22  and  O_23
REMARK   12  A    between atoms: O_23  and  C_24
REMARK                            x       y       z     vdW  Elec       q    Type
REMARK                         _______ _______ _______ _____ _____    ______ ____
ROOT
ATOM      1  C   UNL     1      46.925   4.861  13.710  0.00  0.00    +0.000 A 
ATOM      2  N   UNL     1      45.765   4.174  13.589  0.00  0.00    +0.000 NA
ATOM      3  C   UNL     1      44.901   4.594  12.628  0.00  0.00    +0.000 A 
ATOM      4  C   UNL     1      45.149   5.659  11.779  0.00  0.00    +0.000 A 
ATOM      5  C   UNL     1      46.340   6.360  11.940  0.00  0.00    +0.000 A 
ATOM      6  C   UNL     1      47.248   5.980  12.940  0.00  0.00    +0.000 A 
ENDROOT
BRANCH   3   7
ATOM      7  C   UNL     1      43.625   3.830  12.500  0.00  0.00    +0.000 C 
ATOM      8  N   UNL     1      42.541   4.556  12.079  0.00  0.00    +0.000 N 
ATOM      9  O   UNL     1      43.539   2.632  12.746  0.00  0.00    +0.000 OA
ATOM     10  H   UNL     1      42.654   5.538  11.854  0.00  0.00    +0.000 HD
ATOM     11  H   UNL     1      41.653   4.099  11.957  0.00  0.00    +0.000 HD
ENDBRANCH   3   7
BRANCH   1  12
ATOM     12  O   UNL     1      47.820   4.441  14.677  0.00  0.00    +0.000 OA
BRANCH  12  13
ATOM     13  C   UNL     1      47.178   4.255  15.946  0.00  0.00    +0.000 C 
BRANCH  13  15
ATOM     14  C   UNL     1      48.784   2.388  16.557  0.00  0.00    +0.000 C 
ATOM     15  C   UNL     1      48.157   3.709  16.998  0.00  0.00    +0.000 C 
ATOM     16  C   UNL     1      49.241   4.734  17.330  0.00  0.00    +0.000 C 
ENDBRANCH  13  15
ENDBRANCH  12  13
ENDBRANCH   1  12
BRANCH   6  17
ATOM     17  C   UNL     1      48.505   6.787  13.131  0.00  0.00    +0.000 C 
BRANCH  17  18
ATOM     18  C   UNL     1      48.835   7.703  11.946  0.00  0.00    +0.000 C 
BRANCH  18  19
ATOM     19  C   UNL     1      49.066   9.137  12.438  0.00  0.00    +0.000 C 
BRANCH  19  20
ATOM     20  C   UNL     1      48.124  10.111  11.780  0.00  0.00    +0.000 A 
ATOM     21  C   UNL     1      48.584  11.002  10.807  0.00  0.00    +0.000 A 
ATOM     22  C   UNL     1      47.715  11.942  10.253  0.00  0.00    +0.000 A 
ATOM     23  C   UNL     1      46.371  11.977  10.642  0.00  0.00    +0.000 A 
ATOM     24  C   UNL     1      45.884  11.056  11.569  0.00  0.00    +0.000 A 
ATOM     25  C   UNL     1      46.772  10.152  12.160  0.00  0.00    +0.000 A 
BRANCH  24  26
ATOM     26  O   UNL     1      44.580  10.932  11.977  0.00  0.00    +0.000 OA
BRANCH  26  27
ATOM     27  C   UNL     1      43.569  10.910  10.960  0.00  0.00    +0.000 C 
ATOM     28  C   UNL     1      42.396  11.791  11.393  0.00  0.00    +0.000 C 
ATOM     29  C   UNL     1      41.244  10.850  11.698  0.00  0.00    +0.000 C 
ATOM     30  N   UNL     1      41.491   9.621  10.948  0.00  0.00    +0.000 NA
ATOM     31  C   UNL     1      42.945   9.520  10.767  0.00  0.00    +0.000 C 
ATOM     32  H   UNL     1      41.035   9.673  10.039  0.00  0.00    +0.000 HD
ENDBRANCH  26  27
ENDBRANCH  24  26
ENDBRANCH  19  20
ENDBRANCH  18  19
ENDBRANCH  17  18
ENDBRANCH   6  17
TORSDOF 10
ENDMDL
MODEL 4
REMARK VINA RESULT:    -6.267      1.562      3.755
REMARK INTER + INTRA:         -11.964
REMARK INTER:                 -10.743
REMARK INTRA:                  -1.221
REMARK UNBOUND:                -2.033
REMARK  Name = 
REMARK  12 active torsions:
REMARK  status: ('A' for Active; 'I' for Inactive)
REMARK    1  A    between atoms: C_1  and  C_2
REMARK    2  A    between atoms: C_2  and  C_3
REMARK    3  A    between atoms: C_2  and  C_4
REMARK    4  A    between atoms: C_4  and  O_5
REMARK    5  A    between atoms: O_5  and  C_6
REMARK    6  A    between atoms: C_8  and  C_9
REMARK    7  A    between atoms: C_14  and  C_15
REMARK    8  A    between atoms: C_15  and  C_16
REMARK    9  A    between atoms: C_16  and  C_17
REMARK   10  A    between atoms: C_17  and  C_18
REMARK   11  A    between atoms: C_22  and  O_23
REMARK   12  A    between atoms: O_23  and  C_24
REMARK                            x       y       z     vdW  Elec       q    Type
REMARK                         _______ _______ _______ _____ _____    ______ ____
ROOT
ATOM      1  C   UNL     1      48.280   6.275  13.864  0.00  0.00    +0.000 A 
ATOM      2  N   UNL     1      49.466   6.926  13.826  0.00  0.00    +0.000 NA
ATOM      3  C   UNL     1      49.630   7.846  12.839  0.00  0.00    +0.000 A 
ATOM      4  C   UNL     1      48.660   8.151  11.899  0.00  0.00    +0.000 A 
ATOM      5  C   UNL     1      47.459   7.451  11.950  0.00  0.00    +0.000 A 
ATOM      6  C   UNL     1      47.258   6.471  12.933  0.00  0.00    +0.000 A 
ENDROOT
BRANCH   3   7
ATOM      7  C   UNL     1      50.940   8.560  12.805  0.00  0.00    +0.000 C 
ATOM      8  N   UNL     1      51.224   9.329  13.903  0.00  0.00    +0.000 N 
ATOM      9  O   UNL     1      51.724   8.468  11.866  0.00  0.00    +0.000 OA
ATOM     10  H   UNL     1      50.568   9.358  14.676  0.00  0.00    +0.000 HD
ATOM     11  H   UNL     1      52.098   9.825  13.952  0.00  0.00    +0.000 HD
ENDBRANCH   3   7
BRANCH   1  12
ATOM     12  O   UNL     1      48.094   5.342  14.867  0.00  0.00    +0.000 OA
BRANCH  12  13
ATOM     13  C   UNL     1      48.518   5.844  16.142  0.00  0.00    +0.000 C 
BRANCH  13  15
ATOM     14  C   UNL     1      47.514   3.607  16.795  0.00  0.00    +0.000 C 
ATOM     15  C   UNL     1      48.396   4.773  17.238  0.00  0.00    +0.000 C 
ATOM     16  C   UNL     1      49.772   4.270  17.675  0.00  0.00    +0.000 C 
ENDBRANCH  13  15
ENDBRANCH  12  13
ENDBRANCH   1  12
BRANCH   6  17
ATOM     17  C   UNL     1      45.971   5.689  12.935  0.00  0.00    +0.000 C 
BRANCH  17  18
ATOM     18  C   UNL     1      44.719   6.563  12.793  0.00  0.00    +0.000 C 
BRANCH  18  19
ATOM     19  C   UNL     1      44.137   6.425  11.382  0.00  0.00    +0.000 C 
BRANCH  19  20
ATOM     20  C   UNL     1      44.047   4.983  10.954  0.00  0.00    +0.000 A 
ATOM     21  C   UNL     1      43.456   4.027  11.786  0.00  0.00    +0.000 A 
ATOM     22  C   UNL     1      43.438   2.685  11.406  0.00  0.00    +0.000 A 
ATOM     23  C   UNL     1      43.981   2.291  10.177  0.00  0.00    +0.000 A 
ATOM     24  C   UNL     1      44.521   3.242   9.311  0.00  0.00    +0.000 A 
ATOM     25  C   UNL     1      44.584   4.576   9.721  0.00  0.00    +0.000 A 
BRANCH  24  26
ATOM     26  O   UNL     1      45.012   3.001   8.053  0.00  0.00    +0.000 OA
BRANCH  26  27
ATOM     27  C   UNL     1      46.429   2.824   7.919  0.00  0.00    +0.000 C 
ATOM     28  C   UNL     1      46.921   3.586   6.688  0.00  0.00    +0.000 C 
ATOM     29  C   UNL     1      47.310   2.536   5.662  0.00  0.00    +0.000 C 
ATOM     30  N   UNL     1      47.607   1.312   6.401  0.00  0.00    +0.000 NA
ATOM     31  C   UNL     1      46.826   1.366   7.643  0.00  0.00    +0.000 C 
ATOM     32  H   UNL     1      48.601   1.274   6.622  0.00  0.00    +0.000 HD
ENDBRANCH  26  27
ENDBRANCH  24  26
ENDBRANCH  19  20
ENDBRANCH  18  19
ENDBRANCH  17  18
ENDBRANCH   6  17
TORSDOF 10
ENDMDL
MODEL 5
REMARK VINA RESULT:    -5.941      3.120      8.392
REMARK INTER + INTRA:         -11.447
REMARK INTER:                  -9.457
REMARK INTRA:                  -1.990
REMARK UNBOUND:                -2.033
REMARK  Name = 
REMARK  12 active torsions:
REMARK  status: ('A' for Active; 'I' for Inactive)
REMARK    1  A    between atoms: C_1  and  C_2
REMARK    2  A    between atoms: C_2  and  C_3
REMARK    3  A    between atoms: C_2  and  C_4
REMARK    4  A    between atoms: C_4  and  O_5
REMARK    5  A    between atoms: O_5  and  C_6
REMARK    6  A    between atoms: C_8  and  C_9
REMARK    7  A    between atoms: C_14  and  C_15
REMARK    8  A    between atoms: C_15  and  C_16
REMARK    9  A    between atoms: C_16  and  C_17
REMARK   10  A    between atoms: C_17  and  C_18
REMARK   11  A    between atoms: C_22  and  O_23
REMARK   12  A    between atoms: O_23  and  C_24
REMARK                            x       y       z     vdW  Elec       q    Type
REMARK                         _______ _______ _______ _____ _____    ______ ____
ROOT
ATOM      1  C   UNL     1      46.853   4.752  13.398  0.00  0.00    +0.000 A 
ATOM      2  N   UNL     1      45.781   3.975  13.112  0.00  0.00    +0.000 NA
ATOM      3  C   UNL     1      45.010   4.358  12.060  0.00  0.00    +0.000 A 
ATOM      4  C   UNL     1      45.268   5.472  11.279  0.00  0.00    +0.000 A 
ATOM      5  C   UNL     1      46.363   6.262  11.610  0.00  0.00    +0.000 A 
ATOM      6  C   UNL     1      47.170   5.922  12.706  0.00  0.00    +0.000 A 
ENDROOT
BRANCH   3   7
ATOM      7  C   UNL     1      43.831   3.496  11.751  0.00  0.00    +0.000 C 
ATOM      8  N   UNL     1      43.761   2.317  12.446  0.00  0.00    +0.000 N 
ATOM      9  O   UNL     1      42.972   3.813  10.935  0.00  0.00    +0.000 OA
ATOM     10  H   UNL     1      44.472   2.101  13.136  0.00  0.00    +0.000 HD
ATOM     11  H   UNL     1      42.983   1.696  12.296  0.00  0.00    +0.000 HD
ENDBRANCH   3   7
BRANCH   1  12
ATOM     12  O   UNL     1      47.653   4.371  14.460  0.00  0.00    +0.000 OA
BRANCH  12  13
ATOM     13  C   UNL     1      46.905   4.280  15.680  0.00  0.00    +0.000 C 
BRANCH  13  15
ATOM     14  C   UNL     1      47.328   5.035  18.065  0.00  0.00    +0.000 C 
ATOM     15  C   UNL     1      47.832   4.182  16.902  0.00  0.00    +0.000 C 
ATOM     16  C   UNL     1      48.017   2.730  17.341  0.00  0.00    +0.000 C 
ENDBRANCH  13  15
ENDBRANCH  12  13
ENDBRANCH   1  12
BRANCH   6  17
ATOM     17  C   UNL     1      48.318   6.823  13.077  0.00  0.00    +0.000 C 
BRANCH  17  18
ATOM     18  C   UNL     1      48.003   7.776  14.237  0.00  0.00    +0.000 C 
BRANCH  18  19
ATOM     19  C   UNL     1      49.298   8.397  14.774  0.00  0.00    +0.000 C 
BRANCH  19  20
ATOM     20  C   UNL     1      49.702   7.790  16.093  0.00  0.00    +0.000 A 
ATOM     21  C   UNL     1      49.290   8.363  17.299  0.00  0.00    +0.000 A 
ATOM     22  C   UNL     1      49.724   7.829  18.512  0.00  0.00    +0.000 A 
ATOM     23  C   UNL     1      50.548   6.697  18.530  0.00  0.00    +0.000 A 
ATOM     24  C   UNL     1      50.919   6.079  17.336  0.00  0.00    +0.000 A 
ATOM     25  C   UNL     1      50.524   6.651  16.124  0.00  0.00    +0.000 A 
BRANCH  24  26
ATOM     26  O   UNL     1      51.654   4.926  17.218  0.00  0.00    +0.000 OA
BRANCH  26  27
ATOM     27  C   UNL     1      51.455   3.911  18.211  0.00  0.00    +0.000 C 
ATOM     28  C   UNL     1      52.483   4.088  19.330  0.00  0.00    +0.000 C 
ATOM     29  C   UNL     1      53.448   2.921  19.211  0.00  0.00    +0.000 C 
ATOM     30  N   UNL     1      52.736   1.851  18.518  0.00  0.00    +0.000 NA
ATOM     31  C   UNL     1      51.716   2.494  17.679  0.00  0.00    +0.000 C 
ATOM     32  H   UNL     1      52.286   1.239  19.197  0.00  0.00    +0.000 HD
ENDBRANCH  26  27
ENDBRANCH  24  26
ENDBRANCH  19  20
ENDBRANCH  18  19
ENDBRANCH  17  18
ENDBRANCH   6  17
TORSDOF 10
ENDMDL
MODEL 6
REMARK VINA RESULT:    -5.887      3.275      7.079
REMARK INTER + INTRA:         -11.362
REMARK INTER:                  -9.667
REMARK INTRA:                  -1.695
REMARK UNBOUND:                -2.033
REMARK  Name = 
REMARK  12 active torsions:
REMARK  status: ('A' for Active; 'I' for Inactive)
REMARK    1  A    between atoms: C_1  and  C_2
REMARK    2  A    between atoms: C_2  and  C_3
REMARK    3  A    between atoms: C_2  and  C_4
REMARK    4  A    between atoms: C_4  and  O_5
REMARK    5  A    between atoms: O_5  and  C_6
REMARK    6  A    between atoms: C_8  and  C_9
REMARK    7  A    between atoms: C_14  and  C_15
REMARK    8  A    between atoms: C_15  and  C_16
REMARK    9  A    between atoms: C_16  and  C_17
REMARK   10  A    between atoms: C_17  and  C_18
REMARK   11  A    between atoms: C_22  and  O_23
REMARK   12  A    between atoms: O_23  and  C_24
REMARK                            x       y       z     vdW  Elec       q    Type
REMARK                         _______ _______ _______ _____ _____    ______ ____
ROOT
ATOM      1  C   UNL     1      47.129   5.186  14.090  0.00  0.00    +0.000 A 
ATOM      2  N   UNL     1      45.942   4.536  14.049  0.00  0.00    +0.000 NA
ATOM      3  C   UNL     1      45.151   4.773  12.970  0.00  0.00    +0.000 A 
ATOM      4  C   UNL     1      45.497   5.619  11.929  0.00  0.00    +0.000 A 
ATOM      5  C   UNL     1      46.713   6.289  12.009  0.00  0.00    +0.000 A 
ATOM      6  C   UNL     1      47.549   6.098  13.120  0.00  0.00    +0.000 A 
ENDROOT
BRANCH   3   7
ATOM      7  C   UNL     1      43.844   4.053  12.930  0.00  0.00    +0.000 C 
ATOM      8  N   UNL     1      43.912   2.721  12.611  0.00  0.00    +0.000 N 
ATOM      9  O   UNL     1      42.774   4.601  13.172  0.00  0.00    +0.000 OA
ATOM     10  H   UNL     1      44.816   2.293  12.448  0.00  0.00    +0.000 HD
ATOM     11  H   UNL     1      43.069   2.172  12.582  0.00  0.00    +0.000 HD
ENDBRANCH   3   7
BRANCH   1  12
ATOM     12  O   UNL     1      47.950   4.950  15.178  0.00  0.00    +0.000 OA
BRANCH  12  13
ATOM     13  C   UNL     1      47.324   4.083  16.134  0.00  0.00    +0.000 C 
BRANCH  13  15
ATOM     14  C   UNL     1      48.995   2.271  16.737  0.00  0.00    +0.000 C 
ATOM     15  C   UNL     1      48.332   3.575  17.177  0.00  0.00    +0.000 C 
ATOM     16  C   UNL     1      49.387   4.636  17.490  0.00  0.00    +0.000 C 
ENDBRANCH  13  15
ENDBRANCH  12  13
ENDBRANCH   1  12
BRANCH   6  17
ATOM     17  C   UNL     1      48.835   6.875  13.211  0.00  0.00    +0.000 C 
BRANCH  17  18
ATOM     18  C   UNL     1      49.352   7.371  11.855  0.00  0.00    +0.000 C 
BRANCH  18  19
ATOM     19  C   UNL     1      50.227   8.616  12.048  0.00  0.00    +0.000 C 
BRANCH  19  20
ATOM     20  C   UNL     1      49.395   9.859  12.228  0.00  0.00    +0.000 A 
ATOM     21  C   UNL     1      49.733  10.809  13.197  0.00  0.00    +0.000 A 
ATOM     22  C   UNL     1      48.918  11.924  13.396  0.00  0.00    +0.000 A 
ATOM     23  C   UNL     1      47.778  12.116  12.608  0.00  0.00    +0.000 A 
ATOM     24  C   UNL     1      47.461  11.207  11.599  0.00  0.00    +0.000 A 
ATOM     25  C   UNL     1      48.251  10.065  11.440  0.00  0.00    +0.000 A 
BRANCH  24  26
ATOM     26  O   UNL     1      46.421  11.317  10.709  0.00  0.00    +0.000 OA
BRANCH  26  27
ATOM     27  C   UNL     1      45.092  11.155  11.222  0.00  0.00    +0.000 C 
ATOM     28  C   UNL     1      44.984   9.803  11.930  0.00  0.00    +0.000 C 
ATOM     29  C   UNL     1      44.095   8.935  11.058  0.00  0.00    +0.000 C 
ATOM     30  N   UNL     1      43.271   9.838  10.260  0.00  0.00    +0.000 NA
ATOM     31  C   UNL     1      44.028  11.088  10.117  0.00  0.00    +0.000 C 
ATOM     32  H   UNL     1      42.393  10.023  10.743  0.00  0.00    +0.000 HD
ENDBRANCH  26  27
ENDBRANCH  24  26
ENDBRANCH  19  20
ENDBRANCH  18  19
ENDBRANCH  17  18
ENDBRANCH   6  17
TORSDOF 10
ENDMDL
MODEL 7
REMARK VINA RESULT:    -5.791      2.765      4.723
REMARK INTER + INTRA:         -11.209
REMARK INTER:                  -9.105
REMARK INTRA:                  -2.104
REMARK UNBOUND:                -2.033
REMARK  Name = 
REMARK  12 active torsions:
REMARK  status: ('A' for Active; 'I' for Inactive)
REMARK    1  A    between atoms: C_1  and  C_2
REMARK    2  A    between atoms: C_2  and  C_3
REMARK    3  A    between atoms: C_2  and  C_4
REMARK    4  A    between atoms: C_4  and  O_5
REMARK    5  A    between atoms: O_5  and  C_6
REMARK    6  A    between atoms: C_8  and  C_9
REMARK    7  A    between atoms: C_14  and  C_15
REMARK    8  A    between atoms: C_15  and  C_16
REMARK    9  A    between atoms: C_16  and  C_17
REMARK   10  A    between atoms: C_17  and  C_18
REMARK   11  A    between atoms: C_22  and  O_23
REMARK   12  A    between atoms: O_23  and  C_24
REMARK                            x       y       z     vdW  Elec       q    Type
REMARK                         _______ _______ _______ _____ _____    ______ ____
ROOT
ATOM      1  C   UNL     1      49.552   6.336  16.679  0.00  0.00    +0.000 A 
ATOM      2  N   UNL     1      49.112   5.311  17.446  0.00  0.00    +0.000 NA
ATOM      3  C   UNL     1      48.097   4.560  16.943  0.00  0.00    +0.000 A 
ATOM      4  C   UNL     1      47.513   4.781  15.707  0.00  0.00    +0.000 A 
ATOM      5  C   UNL     1      47.971   5.854  14.951  0.00  0.00    +0.000 A 
ATOM      6  C   UNL     1      48.997   6.675  15.444  0.00  0.00    +0.000 A 
ENDROOT
BRANCH   3   7
ATOM      7  C   UNL     1      47.619   3.431  17.794  0.00  0.00    +0.000 C 
ATOM      8  N   UNL     1      48.351   3.194  18.929  0.00  0.00    +0.000 N 
ATOM      9  O   UNL     1      46.634   2.757  17.513  0.00  0.00    +0.000 OA
ATOM     10  H   UNL     1      49.141   3.791  19.147  0.00  0.00    +0.000 HD
ATOM     11  H   UNL     1      48.073   2.457  19.555  0.00  0.00    +0.000 HD
ENDBRANCH   3   7
BRANCH   1  12
ATOM     12  O   UNL     1      50.590   7.105  17.173  0.00  0.00    +0.000 OA
BRANCH  12  13
ATOM     13  C   UNL     1      50.217   7.785  18.378  0.00  0.00    +0.000 C 
BRANCH  13  15
ATOM     14  C   UNL     1      48.238   9.373  18.325  0.00  0.00    +0.000 C 
ATOM     15  C   UNL     1      49.739   9.218  18.091  0.00  0.00    +0.000 C 
ATOM     16  C   UNL     1      50.520  10.239  18.919  0.00  0.00    +0.000 C 
ENDBRANCH  13  15
ENDBRANCH  12  13
ENDBRANCH   1  12
BRANCH   6  17
ATOM     17  C   UNL     1      49.439   7.862  14.631  0.00  0.00    +0.000 C 
BRANCH  17  18
ATOM     18  C   UNL     1      49.930   7.497  13.224  0.00  0.00    +0.000 C 
BRANCH  18  19
ATOM     19  C   UNL     1      49.322   8.453  12.190  0.00  0.00    +0.000 C 
BRANCH  19  20
ATOM     20  C   UNL     1      47.825   8.309  12.110  0.00  0.00    +0.000 A 
ATOM     21  C   UNL     1      46.987   9.381  12.430  0.00  0.00    +0.000 A 
ATOM     22  C   UNL     1      45.602   9.214  12.414  0.00  0.00    +0.000 A 
ATOM     23  C   UNL     1      45.042   7.985  12.046  0.00  0.00    +0.000 A 
ATOM     24  C   UNL     1      45.865   6.924  11.668  0.00  0.00    +0.000 A 
ATOM     25  C   UNL     1      47.251   7.082  11.738  0.00  0.00    +0.000 A 
BRANCH  24  26
ATOM     26  O   UNL     1      45.445   5.699  11.214  0.00  0.00    +0.000 OA
BRANCH  26  27
ATOM     27  C   UNL     1      44.555   4.952  12.055  0.00  0.00    +0.000 C 
ATOM     28  C   UNL     1      45.021   3.497  12.119  0.00  0.00    +0.000 C 
ATOM     29  C   UNL     1      43.993   2.685  11.350  0.00  0.00    +0.000 C 
ATOM     30  N   UNL     1      42.752   3.454  11.361  0.00  0.00    +0.000 NA
ATOM     31  C   UNL     1      43.129   4.868  11.490  0.00  0.00    +0.000 C 
ATOM     32  H   UNL     1      42.181   3.177  12.158  0.00  0.00    +0.000 HD
ENDBRANCH  26  27
ENDBRANCH  24  26
ENDBRANCH  19  20
ENDBRANCH  18  19
ENDBRANCH  17  18
ENDBRANCH   6  17
TORSDOF 10
ENDMDL
MODEL 8
REMARK VINA RESULT:    -5.634      3.477      7.426
REMARK INTER + INTRA:         -10.960
REMARK INTER:                  -8.961
REMARK INTRA:                  -2.000
REMARK UNBOUND:                -2.033
REMARK  Name = 
REMARK  12 active torsions:
REMARK  status: ('A' for Active; 'I' for Inactive)
REMARK    1  A    between atoms: C_1  and  C_2
REMARK    2  A    between atoms: C_2  and  C_3
REMARK    3  A    between atoms: C_2  and  C_4
REMARK    4  A    between atoms: C_4  and  O_5
REMARK    5  A    between atoms: O_5  and  C_6
REMARK    6  A    between atoms: C_8  and  C_9
REMARK    7  A    between atoms: C_14  and  C_15
REMARK    8  A    between atoms: C_15  and  C_16
REMARK    9  A    between atoms: C_16  and  C_17
REMARK   10  A    between atoms: C_17  and  C_18
REMARK   11  A    between atoms: C_22  and  O_23
REMARK   12  A    between atoms: O_23  and  C_24
REMARK                            x       y       z     vdW  Elec       q    Type
REMARK                         _______ _______ _______ _____ _____    ______ ____
ROOT
ATOM      1  C   UNL     1      45.612   7.532  12.318  0.00  0.00    +0.000 A 
ATOM      2  N   UNL     1      44.557   6.696  12.465  0.00  0.00    +0.000 NA
ATOM      3  C   UNL     1      44.836   5.413  12.814  0.00  0.00    +0.000 A 
ATOM      4  C   UNL     1      46.116   4.933  13.034  0.00  0.00    +0.000 A 
ATOM      5  C   UNL     1      47.181   5.809  12.856  0.00  0.00    +0.000 A 
ATOM      6  C   UNL     1      46.943   7.135  12.466  0.00  0.00    +0.000 A 
ENDROOT
BRANCH   3   7
ATOM      7  C   UNL     1      43.667   4.497  12.974  0.00  0.00    +0.000 C 
ATOM      8  N   UNL     1      43.959   3.158  12.961  0.00  0.00    +0.000 N 
ATOM      9  O   UNL     1      42.519   4.903  13.115  0.00  0.00    +0.000 OA
ATOM     10  H   UNL     1      44.923   2.858  12.874  0.00  0.00    +0.000 HD
ATOM     11  H   UNL     1      43.219   2.486  13.080  0.00  0.00    +0.000 HD
ENDBRANCH   3   7
BRANCH   1  12
ATOM     12  O   UNL     1      45.346   8.843  11.971  0.00  0.00    +0.000 OA
BRANCH  12  13
ATOM     13  C   UNL     1      44.234   8.936  11.070  0.00  0.00    +0.000 C 
BRANCH  13  15
ATOM     14  C   UNL     1      44.932  11.371  11.226  0.00  0.00    +0.000 C 
ATOM     15  C   UNL     1      43.822  10.398  10.834  0.00  0.00    +0.000 C 
ATOM     16  C   UNL     1      43.396  10.626   9.384  0.00  0.00    +0.000 C 
ENDBRANCH  13  15
ENDBRANCH  12  13
ENDBRANCH   1  12
BRANCH   6  17
ATOM     17  C   UNL     1      48.115   8.050  12.227  0.00  0.00    +0.000 C 
BRANCH  17  18
ATOM     18  C   UNL     1      49.474   7.396  12.506  0.00  0.00    +0.000 C 
BRANCH  18  19
ATOM     19  C   UNL     1      50.296   8.276  13.455  0.00  0.00    +0.000 C 
BRANCH  19  20
ATOM     20  C   UNL     1      49.610   8.457  14.784  0.00  0.00    +0.000 A 
ATOM     21  C   UNL     1      49.214   9.726  15.216  0.00  0.00    +0.000 A 
ATOM     22  C   UNL     1      48.638   9.888  16.476  0.00  0.00    +0.000 A 
ATOM     23  C   UNL     1      48.422   8.779  17.301  0.00  0.00    +0.000 A 
ATOM     24  C   UNL     1      48.757   7.499  16.859  0.00  0.00    +0.000 A 
ATOM     25  C   UNL     1      49.382   7.351  15.619  0.00  0.00    +0.000 A 
BRANCH  24  26
ATOM     26  O   UNL     1      48.528   6.326  17.533  0.00  0.00    +0.000 OA
BRANCH  26  27
ATOM     27  C   UNL     1      48.799   5.101  16.839  0.00  0.00    +0.000 C 
ATOM     28  C   UNL     1      47.478   4.404  16.508  0.00  0.00    +0.000 C 
ATOM     29  C   UNL     1      47.411   3.173  17.394  0.00  0.00    +0.000 C 
ATOM     30  N   UNL     1      48.786   2.833  17.752  0.00  0.00    +0.000 NA
ATOM     31  C   UNL     1      49.558   4.081  17.700  0.00  0.00    +0.000 C 
ATOM     32  H   UNL     1      49.163   2.167  17.080  0.00  0.00    +0.000 HD
ENDBRANCH  26  27
ENDBRANCH  24  26
ENDBRANCH  19  20
ENDBRANCH  18  19
ENDBRANCH  17  18
ENDBRANCH   6  17
TORSDOF 10
ENDMDL
MODEL 9
REMARK VINA RESULT:    -5.584      3.648      9.210
REMARK INTER + INTRA:         -10.881
REMARK INTER:                  -8.811
REMARK INTRA:                  -2.071
REMARK UNBOUND:                -2.033
REMARK  Name = 
REMARK  12 active torsions:
REMARK  status: ('A' for Active; 'I' for Inactive)
REMARK    1  A    between atoms: C_1  and  C_2
REMARK    2  A    between atoms: C_2  and  C_3
REMARK    3  A    between atoms: C_2  and  C_4
REMARK    4  A    between atoms: C_4  and  O_5
REMARK    5  A    between atoms: O_5  and  C_6
REMARK    6  A    between atoms: C_8  and  C_9
REMARK    7  A    between atoms: C_14  and  C_15
REMARK    8  A    between atoms: C_15  and  C_16
REMARK    9  A    between atoms: C_16  and  C_17
REMARK   10  A    between atoms: C_17  and  C_18
REMARK   11  A    between atoms: C_22  and  O_23
REMARK   12  A    between atoms: O_23  and  C_24
REMARK                            x       y       z     vdW  Elec       q    Type
REMARK                         _______ _______ _______ _____ _____    ______ ____
ROOT
ATOM      1  C   UNL     1      46.947   4.922  13.781  0.00  0.00    +0.000 A 
ATOM      2  N   UNL     1      45.749   4.294  13.727  0.00  0.00    +0.000 NA
ATOM      3  C   UNL     1      44.838   4.787  12.848  0.00  0.00    +0.000 A 
ATOM      4  C   UNL     1      45.074   5.868  12.016  0.00  0.00    +0.000 A 
ATOM      5  C   UNL     1      46.306   6.506  12.109  0.00  0.00    +0.000 A 
ATOM      6  C   UNL     1      47.266   6.050  13.024  0.00  0.00    +0.000 A 
ENDROOT
BRANCH   3   7
ATOM      7  C   UNL     1      43.519   4.089  12.794  0.00  0.00    +0.000 C 
ATOM      8  N   UNL     1      43.576   2.728  12.635  0.00  0.00    +0.000 N 
ATOM      9  O   UNL     1      42.449   4.679  12.891  0.00  0.00    +0.000 OA
ATOM     10  H   UNL     1      44.479   2.268  12.591  0.00  0.00    +0.000 HD
ATOM     11  H   UNL     1      42.724   2.194  12.607  0.00  0.00    +0.000 HD
ENDBRANCH   3   7
BRANCH   1  12
ATOM     12  O   UNL     1      47.889   4.428  14.665  0.00  0.00    +0.000 OA
BRANCH  12  13
ATOM     13  C   UNL     1      47.325   3.447  15.546  0.00  0.00    +0.000 C 
BRANCH  13  15
ATOM     14  C   UNL     1      47.321   2.971  18.038  0.00  0.00    +0.000 C 
ATOM     15  C   UNL     1      48.180   3.267  16.810  0.00  0.00    +0.000 C 
ATOM     16  C   UNL     1      49.234   2.178  16.615  0.00  0.00    +0.000 C 
ENDBRANCH  13  15
ENDBRANCH  12  13
ENDBRANCH   1  12
BRANCH   6  17
ATOM     17  C   UNL     1      48.572   6.790  13.144  0.00  0.00    +0.000 C 
BRANCH  17  18
ATOM     18  C   UNL     1      48.749   7.515  14.484  0.00  0.00    +0.000 C 
BRANCH  18  19
ATOM     19  C   UNL     1      50.128   7.201  15.074  0.00  0.00    +0.000 C 
BRANCH  19  20
ATOM     20  C   UNL     1      50.026   6.690  16.488  0.00  0.00    +0.000 A 
ATOM     21  C   UNL     1      50.958   5.773  16.984  0.00  0.00    +0.000 A 
ATOM     22  C   UNL     1      50.815   5.259  18.273  0.00  0.00    +0.000 A 
ATOM     23  C   UNL     1      49.759   5.680  19.088  0.00  0.00    +0.000 A 
ATOM     24  C   UNL     1      48.855   6.638  18.628  0.00  0.00    +0.000 A 
ATOM     25  C   UNL     1      48.973   7.109  17.318  0.00  0.00    +0.000 A 
BRANCH  24  26
ATOM     26  O   UNL     1      47.827   7.191  19.349  0.00  0.00    +0.000 OA
BRANCH  26  27
ATOM     27  C   UNL     1      48.117   8.365  20.119  0.00  0.00    +0.000 C 
ATOM     28  C   UNL     1      48.231   7.986  21.597  0.00  0.00    +0.000 C 
ATOM     29  C   UNL     1      47.015   8.580  22.285  0.00  0.00    +0.000 C 
ATOM     30  N   UNL     1      46.562   9.695  21.457  0.00  0.00    +0.000 NA
ATOM     31  C   UNL     1      46.983   9.401  20.081  0.00  0.00    +0.000 C 
ATOM     32  H   UNL     1      46.999  10.560  21.773  0.00  0.00    +0.000 HD
ENDBRANCH  26  27
ENDBRANCH  24  26
ENDBRANCH  19  20
ENDBRANCH  18  19
ENDBRANCH  17  18
ENDBRANCH   6  17
TORSDOF 10
ENDMDL
