MODEL 1
REMARK VINA RESULT:    -7.790      0.000      0.000
REMARK INTER + INTRA:         -10.516
REMARK INTER:                  -9.612
REMARK INTRA:                  -0.904
REMARK UNBOUND:                -0.904
REMARK  Name = 
REMARK  5 active torsions:
REMARK  status: ('A' for Active; 'I' for Inactive)
REMARK    1  A    between atoms: C_1  and  C_2
REMARK    2  A    between atoms: C_3  and  C_4
REMARK    3  A    between atoms: C_8  and  C_9
REMARK    4  A    between atoms: C_9  and  N_10
REMARK    5  A    between atoms: C_11  and  C_13
REMARK                            x       y       z     vdW  Elec       q    Type
REMARK                         _______ _______ _______ _____ _____    ______ ____
ROOT
ATOM      1  N   UNL     1      45.711   6.531  12.572  0.00  0.00    +0.000 N 
ATOM      2  C   UNL     1      47.072   6.692  12.545  0.00  0.00    +0.000 C 
ATOM      3  O   UNL     1      47.682   6.965  11.516  0.00  0.00    +0.000 OA
ATOM      4  H   UNL     1      45.282   6.075  13.371  0.00  0.00    +0.000 HD
ENDROOT
BRANCH   2   5
ATOM      5  C   UNL     1      47.763   6.590  13.837  0.00  0.00    +0.000 A 
ATOM      6  C   UNL     1      48.636   7.595  14.233  0.00  0.00    +0.000 A 
ATOM      7  S   UNL     1      49.317   7.340  15.776  0.00  0.00    +0.000 S 
ATOM      8  C   UNL     1      48.512   5.850  15.944  0.00  0.00    +0.000 A 
ATOM      9  N   UNL     1      48.684   5.085  17.056  0.00  0.00    +0.000 NA
ATOM     10  C   UNL     1      48.035   3.969  17.040  0.00  0.00    +0.000 A 
ATOM     11  N   UNL     1      47.223   3.552  16.016  0.00  0.00    +0.000 N 
ATOM     12  C   UNL     1      46.989   4.308  14.893  0.00  0.00    +0.000 A 
ATOM     13  O   UNL     1      46.210   3.936  14.022  0.00  0.00    +0.000 OA
ATOM     14  C   UNL     1      47.713   5.566  14.853  0.00  0.00    +0.000 A 
ATOM     15  H   UNL     1      46.730   2.674  16.075  0.00  0.00    +0.000 HD
ENDBRANCH   2   5
BRANCH   1  16
ATOM     16  C   UNL     1      44.903   6.628  11.382  0.00  0.00    +0.000 C 
BRANCH  16  21
ATOM     17  C   UNL     1      45.318   3.797   8.851  0.00  0.00    +0.000 A 
ATOM     18  C   UNL     1      44.596   2.772   9.465  0.00  0.00    +0.000 A 
ATOM     19  C   UNL     1      43.954   3.000  10.681  0.00  0.00    +0.000 A 
ATOM     20  C   UNL     1      44.038   4.252  11.291  0.00  0.00    +0.000 A 
ATOM     21  C   UNL     1      44.773   5.288  10.698  0.00  0.00    +0.000 A 
ATOM     22  C   UNL     1      45.413   5.048   9.467  0.00  0.00    +0.000 A 
BRANCH  17  25
ATOM     23  C   UNL     1      47.129   2.781   5.329  0.00  0.00    +0.000 C 
ATOM     24  C   UNL     1      46.473   3.233   6.556  0.00  0.00    +0.000 C 
ATOM     25  C   UNL     1      45.939   3.541   7.587  0.00  0.00    +0.000 C 
ENDBRANCH  17  25
ENDBRANCH  16  21
ENDBRANCH   1  16
TORSDOF 4
ENDMDL
MODEL 2
REMARK VINA RESULT:    -7.379      3.358      7.754
REMARK INTER + INTRA:         -10.008
REMARK INTER:                  -9.369
REMARK INTRA:                  -0.640
REMARK UNBOUND:                -0.904
REMARK  Name = 
REMARK  5 active torsions:
REMARK  status: ('A' for Active; 'I' for Inactive)
REMARK    1  A    between atoms: C_1  and  C_2
REMARK    2  A    between atoms: C_3  and  C_4
REMARK    3  A    between atoms: C_8  and  C_9
REMARK    4  A    between atoms: C_9  and  N_10
REMARK    5  A    between atoms: C_11  and  C_13
REMARK                            x       y       z     vdW  Elec       q    Type
REMARK                         _______ _______ _______ _____ _____    ______ ____
ROOT
ATOM      1  N   UNL     1      46.843   4.476  15.804  0.00  0.00    +0.000 N 
ATOM      2  C   UNL     1      46.872   4.215  14.457  0.00  0.00    +0.000 C 
ATOM      3  O   UNL     1      47.248   3.139  14.005  0.00  0.00    +0.000 OA
ATOM      4  H   UNL     1      46.763   5.437  16.120  0.00  0.00    +0.000 HD
ENDROOT
BRANCH   2   5
ATOM      5  C   UNL     1      46.358   5.275  13.580  0.00  0.00    +0.000 A 
ATOM      6  C   UNL     1      47.123   6.411  13.349  0.00  0.00    +0.000 A 
ATOM      7  S   UNL     1      46.396   7.517  12.275  0.00  0.00    +0.000 S 
ATOM      8  C   UNL     1      45.009   6.544  12.125  0.00  0.00    +0.000 A 
ATOM      9  N   UNL     1      43.960   6.934  11.349  0.00  0.00    +0.000 NA
ATOM     10  C   UNL     1      42.965   6.113  11.348  0.00  0.00    +0.000 A 
ATOM     11  N   UNL     1      42.924   4.932  12.045  0.00  0.00    +0.000 N 
ATOM     12  C   UNL     1      43.972   4.479  12.809  0.00  0.00    +0.000 A 
ATOM     13  O   UNL     1      43.929   3.391  13.372  0.00  0.00    +0.000 OA
ATOM     14  C   UNL     1      45.111   5.378  12.861  0.00  0.00    +0.000 A 
ATOM     15  H   UNL     1      42.119   4.327  11.986  0.00  0.00    +0.000 HD
ENDBRANCH   2   5
BRANCH   1  16
ATOM     16  C   UNL     1      47.296   3.517  16.780  0.00  0.00    +0.000 C 
BRANCH  16  21
ATOM     17  C   UNL     1      50.984   2.811  17.483  0.00  0.00    +0.000 A 
ATOM     18  C   UNL     1      51.484   4.104  17.650  0.00  0.00    +0.000 A 
ATOM     19  C   UNL     1      50.629   5.202  17.561  0.00  0.00    +0.000 A 
ATOM     20  C   UNL     1      49.273   5.010  17.298  0.00  0.00    +0.000 A 
ATOM     21  C   UNL     1      48.755   3.721  17.112  0.00  0.00    +0.000 A 
ATOM     22  C   UNL     1      49.627   2.619  17.209  0.00  0.00    +0.000 A 
BRANCH  17  25
ATOM     23  C   UNL     1      53.762  -0.156  17.927  0.00  0.00    +0.000 C 
ATOM     24  C   UNL     1      52.704   0.839  17.745  0.00  0.00    +0.000 C 
ATOM     25  C   UNL     1      51.881   1.704  17.613  0.00  0.00    +0.000 C 
ENDBRANCH  17  25
ENDBRANCH  16  21
ENDBRANCH   1  16
TORSDOF 4
ENDMDL
MODEL 3
REMARK VINA RESULT:    -6.778      3.425      8.253
REMARK INTER + INTRA:          -9.267
REMARK INTER:                  -8.681
REMARK INTRA:                  -0.587
REMARK UNBOUND:                -0.904
REMARK  Name = 
REMARK  5 active torsions:
REMARK  status: ('A' for Active; 'I' for Inactive)
REMARK    1  A    between atoms: C_1  and  C_2
REMARK    2  A    between atoms: C_3  and  C_4
REMARK    3  A    between atoms: C_8  and  C_9
REMARK    4  A    between atoms: C_9  and  N_10
REMARK    5  A    between atoms: C_11  and  C_13
REMARK                            x       y       z     vdW  Elec       q    Type
REMARK                         _______ _______ _______ _____ _____    ______ ____
ROOT
ATOM      1  N   UNL     1      46.942   4.533  15.624  0.00  0.00    +0.000 N 
ATOM      2  C   UNL     1      46.803   4.252  14.289  0.00  0.00    +0.000 C 
ATOM      3  O   UNL     1      47.152   3.181  13.803  0.00  0.00    +0.000 OA
ATOM      4  H   UNL     1      46.871   5.496  15.938  0.00  0.00    +0.000 HD
ENDROOT
BRANCH   2   5
ATOM      5  C   UNL     1      46.140   5.280  13.476  0.00  0.00    +0.000 A 
ATOM      6  C   UNL     1      46.766   6.503  13.268  0.00  0.00    +0.000 A 
ATOM      7  S   UNL     1      45.879   7.561  12.266  0.00  0.00    +0.000 S 
ATOM      8  C   UNL     1      44.604   6.444  12.122  0.00  0.00    +0.000 A 
ATOM      9  N   UNL     1      43.490   6.744  11.400  0.00  0.00    +0.000 NA
ATOM     10  C   UNL     1      42.592   5.817  11.397  0.00  0.00    +0.000 A 
ATOM     11  N   UNL     1      42.710   4.614  12.044  0.00  0.00    +0.000 N 
ATOM     12  C   UNL     1      43.830   4.252  12.752  0.00  0.00    +0.000 A 
ATOM     13  O   UNL     1      43.930   3.144  13.270  0.00  0.00    +0.000 OA
ATOM     14  C   UNL     1      44.863   5.270  12.804  0.00  0.00    +0.000 A 
ATOM     15  H   UNL     1      41.975   3.925  11.987  0.00  0.00    +0.000 HD
ENDBRANCH   2   5
BRANCH   1  16
ATOM     16  C   UNL     1      47.553   3.605  16.544  0.00  0.00    +0.000 C 
BRANCH  16  21
ATOM     17  C   UNL     1      47.884   6.247  19.282  0.00  0.00    +0.000 A 
ATOM     18  C   UNL     1      48.487   5.511  20.303  0.00  0.00    +0.000 A 
ATOM     19  C   UNL     1      48.811   4.170  20.101  0.00  0.00    +0.000 A 
ATOM     20  C   UNL     1      48.525   3.559  18.879  0.00  0.00    +0.000 A 
ATOM     21  C   UNL     1      47.905   4.279  17.848  0.00  0.00    +0.000 A 
ATOM     22  C   UNL     1      47.587   5.634  18.062  0.00  0.00    +0.000 A 
BRANCH  17  25
ATOM     23  C   UNL     1      46.976  10.218  19.645  0.00  0.00    +0.000 C 
ATOM     24  C   UNL     1      47.326   8.797  19.607  0.00  0.00    +0.000 C 
ATOM     25  C   UNL     1      47.594   7.631  19.510  0.00  0.00    +0.000 C 
ENDBRANCH  17  25
ENDBRANCH  16  21
ENDBRANCH   1  16
TORSDOF 4
ENDMDL
MODEL 4
REMARK VINA RESULT:    -6.756      3.110      7.579
REMARK INTER + INTRA:          -9.239
REMARK INTER:                  -8.485
REMARK INTRA:                  -0.754
REMARK UNBOUND:                -0.904
REMARK  Name = 
REMARK  5 active torsions:
REMARK  status: ('A' for Active; 'I' for Inactive)
REMARK    1  A    between atoms: C_1  and  C_2
REMARK    2  A    between atoms: C_3  and  C_4
REMARK    3  A    between atoms: C_8  and  C_9
REMARK    4  A    between atoms: C_9  and  N_10
REMARK    5  A    between atoms: C_11  and  C_13
REMARK                            x       y       z     vdW  Elec       q    Type
REMARK                         _______ _______ _______ _____ _____    ______ ____
ROOT
ATOM      1  N   UNL     1      47.671   6.464  14.956  0.00  0.00    +0.000 N 
ATOM      2  C   UNL     1      47.795   6.248  13.607  0.00  0.00    +0.000 C 
ATOM      3  O   UNL     1      48.885   6.107  13.062  0.00  0.00    +0.000 OA
ATOM      4  H   UNL     1      46.791   6.812  15.322  0.00  0.00    +0.000 HD
ENDROOT
BRANCH   2   5
ATOM      5  C   UNL     1      46.542   6.122  12.852  0.00  0.00    +0.000 A 
ATOM      6  C   UNL     1      45.954   7.252  12.297  0.00  0.00    +0.000 A 
ATOM      7  S   UNL     1      44.531   6.920  11.419  0.00  0.00    +0.000 S 
ATOM      8  C   UNL     1      44.618   5.264  11.797  0.00  0.00    +0.000 A 
ATOM      9  N   UNL     1      43.664   4.396  11.363  0.00  0.00    +0.000 NA
ATOM     10  C   UNL     1      43.842   3.176  11.745  0.00  0.00    +0.000 A 
ATOM     11  N   UNL     1      44.890   2.742  12.514  0.00  0.00    +0.000 N 
ATOM     12  C   UNL     1      45.896   3.573  12.943  0.00  0.00    +0.000 A 
ATOM     13  O   UNL     1      46.853   3.145  13.580  0.00  0.00    +0.000 OA
ATOM     14  C   UNL     1      45.733   4.963  12.557  0.00  0.00    +0.000 A 
ATOM     15  H   UNL     1      44.978   1.768  12.764  0.00  0.00    +0.000 HD
ENDBRANCH   2   5
BRANCH   1  16
ATOM     16  C   UNL     1      48.817   6.585  15.822  0.00  0.00    +0.000 C 
BRANCH  16  21
ATOM     17  C   UNL     1      50.610   3.848  17.793  0.00  0.00    +0.000 A 
ATOM     18  C   UNL     1      49.582   2.921  17.973  0.00  0.00    +0.000 A 
ATOM     19  C   UNL     1      48.318   3.165  17.439  0.00  0.00    +0.000 A 
ATOM     20  C   UNL     1      48.076   4.341  16.728  0.00  0.00    +0.000 A 
ATOM     21  C   UNL     1      49.092   5.291  16.550  0.00  0.00    +0.000 A 
ATOM     22  C   UNL     1      50.366   5.031  17.090  0.00  0.00    +0.000 A 
BRANCH  17  25
ATOM     23  C   UNL     1      54.200   2.739  19.406  0.00  0.00    +0.000 C 
ATOM     24  C   UNL     1      52.955   3.218  18.803  0.00  0.00    +0.000 C 
ATOM     25  C   UNL     1      51.905   3.552  18.326  0.00  0.00    +0.000 C 
ENDBRANCH  17  25
ENDBRANCH  16  21
ENDBRANCH   1  16
TORSDOF 4
ENDMDL
MODEL 5
REMARK VINA RESULT:    -6.694      1.902      2.587
REMARK INTER + INTRA:          -9.163
REMARK INTER:                  -8.564
REMARK INTRA:                  -0.599
REMARK UNBOUND:                -0.904
REMARK  Name = 
REMARK  5 active torsions:
REMARK  status: ('A' for Active; 'I' for Inactive)
REMARK    1  A    between atoms: C_1  and  C_2
REMARK    2  A    between atoms: C_3  and  C_4
REMARK    3  A    between atoms: C_8  and  C_9
REMARK    4  A    between atoms: C_9  and  N_10
REMARK    5  A    between atoms: C_11  and  C_13
REMARK                            x       y       z     vdW  Elec       q    Type
REMARK                         _______ _______ _______ _____ _____    ______ ____
ROOT
ATOM      1  N   UNL     1      45.944   5.473  13.949  0.00  0.00    +0.000 N 
ATOM      2  C   UNL     1      47.298   5.341  14.128  0.00  0.00    +0.000 C 
ATOM      3  O   UNL     1      48.110   5.669  13.269  0.00  0.00    +0.000 OA
ATOM      4  H   UNL     1      45.312   4.976  14.567  0.00  0.00    +0.000 HD
ENDROOT
BRANCH   2   5
ATOM      5  C   UNL     1      47.732   4.849  15.442  0.00  0.00    +0.000 A 
ATOM      6  C   UNL     1      47.411   3.556  15.835  0.00  0.00    +0.000 A 
ATOM      7  S   UNL     1      48.030   3.134  17.367  0.00  0.00    +0.000 S 
ATOM      8  C   UNL     1      48.700   4.682  17.583  0.00  0.00    +0.000 A 
ATOM      9  N   UNL     1      49.365   5.003  18.727  0.00  0.00    +0.000 NA
ATOM     10  C   UNL     1      49.798   6.219  18.767  0.00  0.00    +0.000 A 
ATOM     11  N   UNL     1      49.635   7.140  17.765  0.00  0.00    +0.000 N 
ATOM     12  C   UNL     1      49.006   6.851  16.579  0.00  0.00    +0.000 A 
ATOM     13  O   UNL     1      48.928   7.678  15.677  0.00  0.00    +0.000 OA
ATOM     14  C   UNL     1      48.481   5.500  16.490  0.00  0.00    +0.000 A 
ATOM     15  H   UNL     1      50.014   8.071  17.855  0.00  0.00    +0.000 HD
ENDBRANCH   2   5
BRANCH   1  16
ATOM     16  C   UNL     1      45.379   5.966  12.718  0.00  0.00    +0.000 C 
BRANCH  16  21
ATOM     17  C   UNL     1      44.936   3.571   9.776  0.00  0.00    +0.000 A 
ATOM     18  C   UNL     1      43.986   2.684  10.285  0.00  0.00    +0.000 A 
ATOM     19  C   UNL     1      43.469   2.871  11.566  0.00  0.00    +0.000 A 
ATOM     20  C   UNL     1      43.906   3.942  12.345  0.00  0.00    +0.000 A 
ATOM     21  C   UNL     1      44.871   4.835  11.857  0.00  0.00    +0.000 A 
ATOM     22  C   UNL     1      45.382   4.638  10.559  0.00  0.00    +0.000 A 
BRANCH  17  25
ATOM     23  C   UNL     1      46.572   3.147   6.052  0.00  0.00    +0.000 C 
ATOM     24  C   UNL     1      45.910   3.251   7.354  0.00  0.00    +0.000 C 
ATOM     25  C   UNL     1      45.422   3.370   8.445  0.00  0.00    +0.000 C 
ENDBRANCH  17  25
ENDBRANCH  16  21
ENDBRANCH   1  16
TORSDOF 4
ENDMDL
MODEL 6
REMARK VINA RESULT:    -6.647      3.420      7.872
REMARK INTER + INTRA:          -9.105
REMARK INTER:                  -8.484
REMARK INTRA:                  -0.622
REMARK UNBOUND:                -0.904
REMARK  Name = 
REMARK  5 active torsions:
REMARK  status: ('A' for Active; 'I' for Inactive)
REMARK    1  A    between atoms: C_1  and  C_2
REMARK    2  A    between atoms: C_3  and  C_4
REMARK    3  A    between atoms: C_8  and  C_9
REMARK    4  A    between atoms: C_9  and  N_10
REMARK    5  A    between atoms: C_11  and  C_13
REMARK                            x       y       z     vdW  Elec       q    Type
REMARK                         _______ _______ _______ _____ _____    ______ ____
ROOT
ATOM      1  N   UNL     1      46.977   4.545  15.927  0.00  0.00    +0.000 N 
ATOM      2  C   UNL     1      47.036   4.256  14.588  0.00  0.00    +0.000 C 
ATOM      3  O   UNL     1      47.271   3.127  14.169  0.00  0.00    +0.000 OA
ATOM      4  H   UNL     1      47.023   5.514  16.227  0.00  0.00    +0.000 HD
ENDROOT
BRANCH   2   5
ATOM      5  C   UNL     1      46.729   5.362  13.672  0.00  0.00    +0.000 A 
ATOM      6  C   UNL     1      47.701   6.312  13.388  0.00  0.00    +0.000 A 
ATOM      7  S   UNL     1      47.192   7.499  12.274  0.00  0.00    +0.000 S 
ATOM      8  C   UNL     1      45.637   6.817  12.175  0.00  0.00    +0.000 A 
ATOM      9  N   UNL     1      44.676   7.378  11.392  0.00  0.00    +0.000 NA
ATOM     10  C   UNL     1      43.536   6.773  11.432  0.00  0.00    +0.000 A 
ATOM     11  N   UNL     1      43.272   5.652  12.177  0.00  0.00    +0.000 N 
ATOM     12  C   UNL     1      44.221   5.029  12.951  0.00  0.00    +0.000 A 
ATOM     13  O   UNL     1      43.971   3.994  13.560  0.00  0.00    +0.000 OA
ATOM     14  C   UNL     1      45.517   5.684  12.958  0.00  0.00    +0.000 A 
ATOM     15  H   UNL     1      42.362   5.218  12.150  0.00  0.00    +0.000 HD
ENDBRANCH   2   5
BRANCH   1  16
ATOM     16  C   UNL     1      47.233   3.550  16.939  0.00  0.00    +0.000 C 
BRANCH  16  21
ATOM     17  C   UNL     1      50.877   4.238  17.853  0.00  0.00    +0.000 A 
ATOM     18  C   UNL     1      51.454   2.985  17.640  0.00  0.00    +0.000 A 
ATOM     19  C   UNL     1      50.676   1.925  17.178  0.00  0.00    +0.000 A 
ATOM     20  C   UNL     1      49.315   2.113  16.934  0.00  0.00    +0.000 A 
ATOM     21  C   UNL     1      48.714   3.360  17.158  0.00  0.00    +0.000 A 
ATOM     22  C   UNL     1      49.512   4.424  17.620  0.00  0.00    +0.000 A 
BRANCH  17  25
ATOM     23  C   UNL     1      53.488   7.174  18.985  0.00  0.00    +0.000 C 
ATOM     24  C   UNL     1      52.485   6.171  18.625  0.00  0.00    +0.000 C 
ATOM     25  C   UNL     1      51.710   5.314  18.296  0.00  0.00    +0.000 C 
ENDBRANCH  17  25
ENDBRANCH  16  21
ENDBRANCH   1  16
TORSDOF 4
ENDMDL
MODEL 7
REMARK VINA RESULT:    -6.327      3.539      7.898
REMARK INTER + INTRA:          -8.710
REMARK INTER:                  -7.778
REMARK INTRA:                  -0.932
REMARK UNBOUND:                -0.904
REMARK  Name = 
REMARK  5 active torsions:
REMARK  status: ('A' for Active; 'I' for Inactive)
REMARK    1  A    between atoms: C_1  and  C_2
REMARK    2  A    between atoms: C_3  and  C_4
REMARK    3  A    between atoms: C_8  and  C_9
REMARK    4  A    between atoms: C_9  and  N_10
REMARK    5  A    between atoms: C_11  and  C_13
REMARK                            x       y       z     vdW  Elec       q    Type
REMARK                         _______ _______ _______ _____ _____    ______ ____
ROOT
ATOM      1  N   UNL     1      47.045   4.555  15.918  0.00  0.00    +0.000 N 
ATOM      2  C   UNL     1      47.072   4.249  14.581  0.00  0.00    +0.000 C 
ATOM      3  O   UNL     1      47.255   3.108  14.171  0.00  0.00    +0.000 OA
ATOM      4  H   UNL     1      47.135   5.524  16.206  0.00  0.00    +0.000 HD
ENDROOT
BRANCH   2   5
ATOM      5  C   UNL     1      46.795   5.357  13.657  0.00  0.00    +0.000 A 
ATOM      6  C   UNL     1      45.661   5.320  12.856  0.00  0.00    +0.000 A 
ATOM      7  S   UNL     1      45.471   6.703  11.877  0.00  0.00    +0.000 S 
ATOM      8  C   UNL     1      46.926   7.374  12.447  0.00  0.00    +0.000 A 
ATOM      9  N   UNL     1      47.374   8.571  11.981  0.00  0.00    +0.000 NA
ATOM     10  C   UNL     1      48.503   8.948  12.480  0.00  0.00    +0.000 A 
ATOM     11  N   UNL     1      49.222   8.241  13.409  0.00  0.00    +0.000 N 
ATOM     12  C   UNL     1      48.791   7.048  13.937  0.00  0.00    +0.000 A 
ATOM     13  O   UNL     1      49.427   6.467  14.811  0.00  0.00    +0.000 OA
ATOM     14  C   UNL     1      47.533   6.569  13.393  0.00  0.00    +0.000 A 
ATOM     15  H   UNL     1      50.092   8.601  13.771  0.00  0.00    +0.000 HD
ENDBRANCH   2   5
BRANCH   1  16
ATOM     16  C   UNL     1      47.276   3.561  16.936  0.00  0.00    +0.000 C 
BRANCH  16  21
ATOM     17  C   UNL     1      50.924   4.164  17.897  0.00  0.00    +0.000 A 
ATOM     18  C   UNL     1      51.482   2.908  17.655  0.00  0.00    +0.000 A 
ATOM     19  C   UNL     1      50.691   1.873  17.158  0.00  0.00    +0.000 A 
ATOM     20  C   UNL     1      49.335   2.090  16.909  0.00  0.00    +0.000 A 
ATOM     21  C   UNL     1      48.753   3.340  17.161  0.00  0.00    +0.000 A 
ATOM     22  C   UNL     1      49.564   4.379  17.659  0.00  0.00    +0.000 A 
BRANCH  17  25
ATOM     23  C   UNL     1      53.573   7.025  19.129  0.00  0.00    +0.000 C 
ATOM     24  C   UNL     1      52.556   6.048  18.734  0.00  0.00    +0.000 C 
ATOM     25  C   UNL     1      51.771   5.213  18.376  0.00  0.00    +0.000 C 
ENDBRANCH  17  25
ENDBRANCH  16  21
ENDBRANCH   1  16
TORSDOF 4
ENDMDL
MODEL 8
REMARK VINA RESULT:    -6.233      4.072      7.042
REMARK INTER + INTRA:          -8.595
REMARK INTER:                  -8.014
REMARK INTRA:                  -0.581
REMARK UNBOUND:                -0.904
REMARK  Name = 
REMARK  5 active torsions:
REMARK  status: ('A' for Active; 'I' for Inactive)
REMARK    1  A    between atoms: C_1  and  C_2
REMARK    2  A    between atoms: C_3  and  C_4
REMARK    3  A    between atoms: C_8  and  C_9
REMARK    4  A    between atoms: C_9  and  N_10
REMARK    5  A    between atoms: C_11  and  C_13
REMARK                            x       y       z     vdW  Elec       q    Type
REMARK                         _______ _______ _______ _____ _____    ______ ____
ROOT
ATOM      1  N   UNL     1      45.225   7.641  12.572  0.00  0.00    +0.000 N 
ATOM      2  C   UNL     1      45.926   6.651  11.933  0.00  0.00    +0.000 C 
ATOM      3  O   UNL     1      47.089   6.798  11.571  0.00  0.00    +0.000 OA
ATOM      4  H   UNL     1      44.214   7.571  12.634  0.00  0.00    +0.000 HD
ENDROOT
BRANCH   2   5
ATOM      5  C   UNL     1      45.231   5.368  11.765  0.00  0.00    +0.000 A 
ATOM      6  C   UNL     1      44.599   4.779  12.853  0.00  0.00    +0.000 A 
ATOM      7  S   UNL     1      43.806   3.318  12.473  0.00  0.00    +0.000 S 
ATOM      8  C   UNL     1      44.326   3.393  10.856  0.00  0.00    +0.000 A 
ATOM      9  N   UNL     1      44.004   2.409   9.972  0.00  0.00    +0.000 NA
ATOM     10  C   UNL     1      44.486   2.581   8.786  0.00  0.00    +0.000 A 
ATOM     11  N   UNL     1      45.253   3.650   8.402  0.00  0.00    +0.000 N 
ATOM     12  C   UNL     1      45.570   4.685   9.248  0.00  0.00    +0.000 A 
ATOM     13  O   UNL     1      46.208   5.658   8.858  0.00  0.00    +0.000 OA
ATOM     14  C   UNL     1      45.069   4.530  10.601  0.00  0.00    +0.000 A 
ATOM     15  H   UNL     1      45.585   3.731   7.452  0.00  0.00    +0.000 HD
ENDBRANCH   2   5
BRANCH   1  16
ATOM     16  C   UNL     1      45.792   8.942  12.825  0.00  0.00    +0.000 C 
BRANCH  16  21
ATOM     17  C   UNL     1      43.258  10.964  10.805  0.00  0.00    +0.000 A 
ATOM     18  C   UNL     1      44.068  11.974  10.281  0.00  0.00    +0.000 A 
ATOM     19  C   UNL     1      45.434  11.989  10.557  0.00  0.00    +0.000 A 
ATOM     20  C   UNL     1      45.994  10.999  11.365  0.00  0.00    +0.000 A 
ATOM     21  C   UNL     1      45.194   9.986  11.913  0.00  0.00    +0.000 A 
ATOM     22  C   UNL     1      43.816   9.978  11.623  0.00  0.00    +0.000 A 
BRANCH  17  25
ATOM     23  C   UNL     1      39.225  10.848  10.142  0.00  0.00    +0.000 C 
ATOM     24  C   UNL     1      40.679  10.920  10.290  0.00  0.00    +0.000 C 
ATOM     25  C   UNL     1      41.865  10.958  10.475  0.00  0.00    +0.000 C 
ENDBRANCH  17  25
ENDBRANCH  16  21
ENDBRANCH   1  16
TORSDOF 4
ENDMDL
MODEL 9
REMARK VINA RESULT:    -6.192      2.985      7.438
REMARK INTER + INTRA:          -8.543
REMARK INTER:                  -7.751
REMARK INTRA:                  -0.792
REMARK UNBOUND:                -0.904
REMARK  Name = 
REMARK  5 active torsions:
REMARK  status: ('A' for Active; 'I' for Inactive)
REMARK    1  A    between atoms: C_1  and  C_2
REMARK    2  A    between atoms: C_3  and  C_4
REMARK    3  A    between atoms: C_8  and  C_9
REMARK    4  A    between atoms: C_9  and  N_10
REMARK    5  A    between atoms: C_11  and  C_13
REMARK                            x       y       z     vdW  Elec       q    Type
REMARK                         _______ _______ _______ _____ _____    ______ ____
ROOT
ATOM      1  N   UNL     1      47.057   6.555  11.735  0.00  0.00    +0.000 N 
ATOM      2  C   UNL     1      45.686   6.550  11.759  0.00  0.00    +0.000 C 
ATOM      3  O   UNL     1      45.027   7.579  11.871  0.00  0.00    +0.000 OA
ATOM      4  H   UNL     1      47.558   5.684  11.885  0.00  0.00    +0.000 HD
ENDROOT
BRANCH   2   5
ATOM      5  C   UNL     1      45.038   5.246  11.568  0.00  0.00    +0.000 A 
ATOM      6  C   UNL     1      44.355   4.654  12.623  0.00  0.00    +0.000 A 
ATOM      7  S   UNL     1      43.628   3.166  12.218  0.00  0.00    +0.000 S 
ATOM      8  C   UNL     1      44.247   3.233  10.635  0.00  0.00    +0.000 A 
ATOM      9  N   UNL     1      44.010   2.228   9.748  0.00  0.00    +0.000 NA
ATOM     10  C   UNL     1      44.561   2.396   8.593  0.00  0.00    +0.000 A 
ATOM     11  N   UNL     1      45.322   3.481   8.240  0.00  0.00    +0.000 N 
ATOM     12  C   UNL     1      45.556   4.537   9.088  0.00  0.00    +0.000 A 
ATOM     13  O   UNL     1      46.190   5.522   8.724  0.00  0.00    +0.000 OA
ATOM     14  C   UNL     1      44.974   4.387  10.410  0.00  0.00    +0.000 A 
ATOM     15  H   UNL     1      45.710   3.558   7.312  0.00  0.00    +0.000 HD
ENDBRANCH   2   5
BRANCH   1  16
ATOM     16  C   UNL     1      47.823   7.767  11.886  0.00  0.00    +0.000 C 
BRANCH  16  21
ATOM     17  C   UNL     1      49.273   6.803  15.286  0.00  0.00    +0.000 A 
ATOM     18  C   UNL     1      50.499   7.471  15.261  0.00  0.00    +0.000 A 
ATOM     19  C   UNL     1      50.847   8.253  14.161  0.00  0.00    +0.000 A 
ATOM     20  C   UNL     1      49.974   8.363  13.078  0.00  0.00    +0.000 A 
ATOM     21  C   UNL     1      48.746   7.686  13.078  0.00  0.00    +0.000 A 
ATOM     22  C   UNL     1      48.403   6.903  14.197  0.00  0.00    +0.000 A 
BRANCH  17  25
ATOM     23  C   UNL     1      48.556   4.461  18.560  0.00  0.00    +0.000 C 
ATOM     24  C   UNL     1      48.729   5.341  17.404  0.00  0.00    +0.000 C 
ATOM     25  C   UNL     1      48.932   6.034  16.444  0.00  0.00    +0.000 C 
ENDBRANCH  17  25
ENDBRANCH  16  21
ENDBRANCH   1  16
TORSDOF 4
ENDMDL
