MODEL 1
REMARK VINA RESULT:    -8.624      0.000      0.000
REMARK INTER + INTRA:         -11.953
REMARK INTER:                 -11.145
REMARK INTRA:                  -0.808
REMARK UNBOUND:                -0.808
REMARK  Name = 
REMARK  6 active torsions:
REMARK  status: ('A' for Active; 'I' for Inactive)
REMARK    1  A    between atoms: C_1  and  C_2
REMARK    2  A    between atoms: C_2  and  N_3
REMARK    3  A    between atoms: C_2  and  C_16
REMARK    4  A    between atoms: C_4  and  C_6
REMARK    5  A    between atoms: C_19  and  C_20
REMARK    6  A    between atoms: C_20  and  C_21
REMARK                            x       y       z     vdW  Elec       q    Type
REMARK                         _______ _______ _______ _____ _____    ______ ____
ROOT
ATOM      1  C   UNL     1      45.485   8.790  12.936  0.00  0.00    +0.000 C 
ATOM      2  C   UNL     1      46.596   7.745  12.771  0.00  0.00    +0.000 C 
ENDROOT
BRANCH   2   3
ATOM      3  C   UNL     1      46.098   6.581  11.923  0.00  0.00    +0.000 A 
ATOM      4  C   UNL     1      45.287   5.584  12.479  0.00  0.00    +0.000 A 
ATOM      5  C   UNL     1      44.793   4.544  11.686  0.00  0.00    +0.000 A 
ATOM      6  C   UNL     1      45.083   4.487  10.314  0.00  0.00    +0.000 A 
ATOM      7  C   UNL     1      45.908   5.470   9.760  0.00  0.00    +0.000 A 
ATOM      8  C   UNL     1      46.413   6.501  10.556  0.00  0.00    +0.000 A 
BRANCH   6   9
ATOM      9  C   UNL     1      44.508   3.393   9.440  0.00  0.00    +0.000 C 
BRANCH   9  10
ATOM     10  C   UNL     1      45.469   2.784   8.440  0.00  0.00    +0.000 A 
ATOM     11  C   UNL     1      45.844   3.477   7.289  0.00  0.00    +0.000 A 
ATOM     12  C   UNL     1      46.642   2.843   6.341  0.00  0.00    +0.000 A 
ATOM     13  C   UNL     1      47.049   1.534   6.559  0.00  0.00    +0.000 A 
ATOM     14  C   UNL     1      46.648   0.917   7.731  0.00  0.00    +0.000 A 
ATOM     15  N   UNL     1      45.871   1.507   8.669  0.00  0.00    +0.000 NA
ENDBRANCH   9  10
ENDBRANCH   6   9
ENDBRANCH   2   3
BRANCH   2  16
ATOM     16  N   UNL     1      47.087   7.229  14.041  0.00  0.00    +0.000 N 
ATOM     17  C   UNL     1      48.403   6.914  14.271  0.00  0.00    +0.000 C 
ATOM     18  O   UNL     1      49.285   7.103  13.435  0.00  0.00    +0.000 OA
ATOM     19  H   UNL     1      46.390   6.782  14.630  0.00  0.00    +0.000 HD
BRANCH  17  20
ATOM     20  C   UNL     1      48.727   6.391  15.601  0.00  0.00    +0.000 A 
ATOM     21  C   UNL     1      49.659   7.054  16.389  0.00  0.00    +0.000 A 
ATOM     22  S   UNL     1      49.927   6.316  17.903  0.00  0.00    +0.000 S 
ATOM     23  C   UNL     1      48.835   5.060  17.543  0.00  0.00    +0.000 A 
ATOM     24  N   UNL     1      48.626   4.043  18.421  0.00  0.00    +0.000 NA
ATOM     25  C   UNL     1      47.792   3.148  18.008  0.00  0.00    +0.000 A 
ATOM     26  N   UNL     1      47.139   3.184  16.803  0.00  0.00    +0.000 N 
ATOM     27  C   UNL     1      47.297   4.207  15.897  0.00  0.00    +0.000 A 
ATOM     28  O   UNL     1      46.664   4.239  14.849  0.00  0.00    +0.000 OA
ATOM     29  C   UNL     1      48.247   5.224  16.301  0.00  0.00    +0.000 A 
ATOM     30  H   UNL     1      46.480   2.461  16.550  0.00  0.00    +0.000 HD
ENDBRANCH  17  20
ENDBRANCH   2  16
TORSDOF 5
ENDMDL
MODEL 2
REMARK VINA RESULT:    -8.158      1.630      2.462
REMARK INTER + INTRA:         -11.351
REMARK INTER:                 -10.568
REMARK INTRA:                  -0.783
REMARK UNBOUND:                -0.808
REMARK  Name = 
REMARK  6 active torsions:
REMARK  status: ('A' for Active; 'I' for Inactive)
REMARK    1  A    between atoms: C_1  and  C_2
REMARK    2  A    between atoms: C_2  and  N_3
REMARK    3  A    between atoms: C_2  and  C_16
REMARK    4  A    between atoms: C_4  and  C_6
REMARK    5  A    between atoms: C_19  and  C_20
REMARK    6  A    between atoms: C_20  and  C_21
REMARK                            x       y       z     vdW  Elec       q    Type
REMARK                         _______ _______ _______ _____ _____    ______ ____
ROOT
ATOM      1  C   UNL     1      45.948   8.071  13.205  0.00  0.00    +0.000 C 
ATOM      2  C   UNL     1      46.780   6.790  13.071  0.00  0.00    +0.000 C 
ENDROOT
BRANCH   2   3
ATOM      3  C   UNL     1      46.148   5.860  12.043  0.00  0.00    +0.000 A 
ATOM      4  C   UNL     1      46.082   6.223  10.692  0.00  0.00    +0.000 A 
ATOM      5  C   UNL     1      45.545   5.346   9.746  0.00  0.00    +0.000 A 
ATOM      6  C   UNL     1      45.076   4.078  10.124  0.00  0.00    +0.000 A 
ATOM      7  C   UNL     1      45.123   3.721  11.475  0.00  0.00    +0.000 A 
ATOM      8  C   UNL     1      45.647   4.603  12.423  0.00  0.00    +0.000 A 
BRANCH   6   9
ATOM      9  C   UNL     1      44.542   3.104   9.096  0.00  0.00    +0.000 C 
BRANCH   9  10
ATOM     10  C   UNL     1      45.531   2.672   8.032  0.00  0.00    +0.000 A 
ATOM     11  C   UNL     1      46.267   1.495   8.169  0.00  0.00    +0.000 A 
ATOM     12  C   UNL     1      47.242   1.187   7.225  0.00  0.00    +0.000 A 
ATOM     13  C   UNL     1      47.465   2.058   6.167  0.00  0.00    +0.000 A 
ATOM     14  C   UNL     1      46.687   3.200   6.092  0.00  0.00    +0.000 A 
ATOM     15  N   UNL     1      45.733   3.525   6.994  0.00  0.00    +0.000 NA
ENDBRANCH   9  10
ENDBRANCH   6   9
ENDBRANCH   2   3
BRANCH   2  16
ATOM     16  N   UNL     1      46.928   6.072  14.330  0.00  0.00    +0.000 N 
ATOM     17  C   UNL     1      48.131   5.909  14.970  0.00  0.00    +0.000 C 
ATOM     18  O   UNL     1      49.174   6.414  14.560  0.00  0.00    +0.000 OA
ATOM     19  H   UNL     1      46.193   5.402  14.540  0.00  0.00    +0.000 HD
BRANCH  17  20
ATOM     20  C   UNL     1      48.107   5.146  16.222  0.00  0.00    +0.000 A 
ATOM     21  C   UNL     1      47.652   3.833  16.215  0.00  0.00    +0.000 A 
ATOM     22  S   UNL     1      47.683   3.089  17.749  0.00  0.00    +0.000 S 
ATOM     23  C   UNL     1      48.269   4.508  18.485  0.00  0.00    +0.000 A 
ATOM     24  N   UNL     1      48.477   4.564  19.827  0.00  0.00    +0.000 NA
ATOM     25  C   UNL     1      48.898   5.709  20.253  0.00  0.00    +0.000 A 
ATOM     26  N   UNL     1      49.142   6.797  19.455  0.00  0.00    +0.000 N 
ATOM     27  C   UNL     1      48.974   6.778  18.090  0.00  0.00    +0.000 A 
ATOM     28  O   UNL     1      49.247   7.749  17.396  0.00  0.00    +0.000 OA
ATOM     29  C   UNL     1      48.474   5.522  17.566  0.00  0.00    +0.000 A 
ATOM     30  H   UNL     1      49.493   7.658  19.849  0.00  0.00    +0.000 HD
ENDBRANCH  17  20
ENDBRANCH   2  16
TORSDOF 5
ENDMDL
MODEL 3
REMARK VINA RESULT:    -7.886      2.747      4.254
REMARK INTER + INTRA:         -10.998
REMARK INTER:                  -9.882
REMARK INTRA:                  -1.116
REMARK UNBOUND:                -0.808
REMARK  Name = 
REMARK  6 active torsions:
REMARK  status: ('A' for Active; 'I' for Inactive)
REMARK    1  A    between atoms: C_1  and  C_2
REMARK    2  A    between atoms: C_2  and  N_3
REMARK    3  A    between atoms: C_2  and  C_16
REMARK    4  A    between atoms: C_4  and  C_6
REMARK    5  A    between atoms: C_19  and  C_20
REMARK    6  A    between atoms: C_20  and  C_21
REMARK                            x       y       z     vdW  Elec       q    Type
REMARK                         _______ _______ _______ _____ _____    ______ ____
ROOT
ATOM      1  C   UNL     1      46.804   4.634  14.686  0.00  0.00    +0.000 C 
ATOM      2  C   UNL     1      46.417   5.716  13.671  0.00  0.00    +0.000 C 
ENDROOT
BRANCH   2   3
ATOM      3  C   UNL     1      45.860   5.072  12.407  0.00  0.00    +0.000 A 
ATOM      4  C   UNL     1      45.859   5.764  11.190  0.00  0.00    +0.000 A 
ATOM      5  C   UNL     1      45.392   5.151  10.024  0.00  0.00    +0.000 A 
ATOM      6  C   UNL     1      44.931   3.826  10.043  0.00  0.00    +0.000 A 
ATOM      7  C   UNL     1      44.913   3.139  11.260  0.00  0.00    +0.000 A 
ATOM      8  C   UNL     1      45.366   3.757  12.428  0.00  0.00    +0.000 A 
BRANCH   6   9
ATOM      9  C   UNL     1      44.473   3.141   8.773  0.00  0.00    +0.000 C 
BRANCH   9  10
ATOM     10  C   UNL     1      45.579   2.693   7.839  0.00  0.00    +0.000 A 
ATOM     11  C   UNL     1      46.286   1.514   8.074  0.00  0.00    +0.000 A 
ATOM     12  C   UNL     1      47.365   1.192   7.256  0.00  0.00    +0.000 A 
ATOM     13  C   UNL     1      47.718   2.051   6.224  0.00  0.00    +0.000 A 
ATOM     14  C   UNL     1      46.962   3.196   6.046  0.00  0.00    +0.000 A 
ATOM     15  N   UNL     1      45.909   3.535   6.826  0.00  0.00    +0.000 NA
ENDBRANCH   9  10
ENDBRANCH   6   9
ENDBRANCH   2   3
BRANCH   2  16
ATOM     16  N   UNL     1      47.529   6.583  13.309  0.00  0.00    +0.000 N 
ATOM     17  C   UNL     1      47.438   7.952  13.268  0.00  0.00    +0.000 C 
ATOM     18  O   UNL     1      46.420   8.558  13.596  0.00  0.00    +0.000 OA
ATOM     19  H   UNL     1      48.261   6.147  12.755  0.00  0.00    +0.000 HD
BRANCH  17  20
ATOM     20  C   UNL     1      48.649   8.676  12.869  0.00  0.00    +0.000 A 
ATOM     21  C   UNL     1      48.571   9.649  11.881  0.00  0.00    +0.000 A 
ATOM     22  S   UNL     1      50.065  10.391  11.530  0.00  0.00    +0.000 S 
ATOM     23  C   UNL     1      50.878   9.410  12.659  0.00  0.00    +0.000 A 
ATOM     24  N   UNL     1      52.224   9.507  12.827  0.00  0.00    +0.000 NA
ATOM     25  C   UNL     1      52.712   8.686  13.696  0.00  0.00    +0.000 A 
ATOM     26  N   UNL     1      51.973   7.787  14.422  0.00  0.00    +0.000 N 
ATOM     27  C   UNL     1      50.607   7.675  14.307  0.00  0.00    +0.000 A 
ATOM     28  O   UNL     1      49.966   6.897  15.004  0.00  0.00    +0.000 OA
ATOM     29  C   UNL     1      50.014   8.556  13.320  0.00  0.00    +0.000 A 
ATOM     30  H   UNL     1      52.414   7.188  15.105  0.00  0.00    +0.000 HD
ENDBRANCH  17  20
ENDBRANCH   2  16
TORSDOF 5
ENDMDL
MODEL 4
REMARK VINA RESULT:    -7.563      2.517      4.577
REMARK INTER + INTRA:         -10.582
REMARK INTER:                 -10.476
REMARK INTRA:                  -0.106
REMARK UNBOUND:                -0.808
REMARK  Name = 
REMARK  6 active torsions:
REMARK  status: ('A' for Active; 'I' for Inactive)
REMARK    1  A    between atoms: C_1  and  C_2
REMARK    2  A    between atoms: C_2  and  N_3
REMARK    3  A    between atoms: C_2  and  C_16
REMARK    4  A    between atoms: C_4  and  C_6
REMARK    5  A    between atoms: C_19  and  C_20
REMARK    6  A    between atoms: C_20  and  C_21
REMARK                            x       y       z     vdW  Elec       q    Type
REMARK                         _______ _______ _______ _____ _____    ______ ____
ROOT
ATOM      1  C   UNL     1      46.977   4.455  14.410  0.00  0.00    +0.000 C 
ATOM      2  C   UNL     1      46.038   5.470  13.746  0.00  0.00    +0.000 C 
ENDROOT
BRANCH   2   3
ATOM      3  C   UNL     1      45.617   4.970  12.369  0.00  0.00    +0.000 A 
ATOM      4  C   UNL     1      45.786   5.771  11.233  0.00  0.00    +0.000 A 
ATOM      5  C   UNL     1      45.443   5.290   9.967  0.00  0.00    +0.000 A 
ATOM      6  C   UNL     1      44.940   3.990   9.803  0.00  0.00    +0.000 A 
ATOM      7  C   UNL     1      44.751   3.196  10.938  0.00  0.00    +0.000 A 
ATOM      8  C   UNL     1      45.081   3.682  12.206  0.00  0.00    +0.000 A 
BRANCH   6   9
ATOM      9  C   UNL     1      44.616   3.445   8.429  0.00  0.00    +0.000 C 
BRANCH   9  10
ATOM     10  C   UNL     1      45.783   2.837   7.677  0.00  0.00    +0.000 A 
ATOM     11  C   UNL     1      46.311   3.457   6.545  0.00  0.00    +0.000 A 
ATOM     12  C   UNL     1      47.310   2.815   5.820  0.00  0.00    +0.000 A 
ATOM     13  C   UNL     1      47.760   1.569   6.235  0.00  0.00    +0.000 A 
ATOM     14  C   UNL     1      47.196   1.023   7.375  0.00  0.00    +0.000 A 
ATOM     15  N   UNL     1      46.223   1.624   8.099  0.00  0.00    +0.000 NA
ENDBRANCH   9  10
ENDBRANCH   6   9
ENDBRANCH   2   3
BRANCH   2  16
ATOM     16  N   UNL     1      46.633   6.792  13.608  0.00  0.00    +0.000 N 
ATOM     17  C   UNL     1      47.941   6.999  13.247  0.00  0.00    +0.000 C 
ATOM     18  O   UNL     1      48.699   6.078  12.948  0.00  0.00    +0.000 OA
ATOM     19  H   UNL     1      46.167   7.536  14.120  0.00  0.00    +0.000 HD
BRANCH  17  20
ATOM     20  C   UNL     1      48.385   8.394  13.169  0.00  0.00    +0.000 A 
ATOM     21  C   UNL     1      49.669   8.728  13.581  0.00  0.00    +0.000 A 
ATOM     22  S   UNL     1      50.026  10.388  13.433  0.00  0.00    +0.000 S 
ATOM     23  C   UNL     1      48.463  10.727  12.850  0.00  0.00    +0.000 A 
ATOM     24  N   UNL     1      48.086  12.002  12.562  0.00  0.00    +0.000 NA
ATOM     25  C   UNL     1      46.866  12.115  12.153  0.00  0.00    +0.000 A 
ATOM     26  N   UNL     1      45.995  11.069  11.993  0.00  0.00    +0.000 N 
ATOM     27  C   UNL     1      46.341   9.761  12.244  0.00  0.00    +0.000 A 
ATOM     28  O   UNL     1      45.558   8.841  12.045  0.00  0.00    +0.000 OA
ATOM     29  C   UNL     1      47.694   9.583  12.734  0.00  0.00    +0.000 A 
ATOM     30  H   UNL     1      45.059  11.224  11.647  0.00  0.00    +0.000 HD
ENDBRANCH  17  20
ENDBRANCH   2  16
TORSDOF 5
ENDMDL
MODEL 5
REMARK VINA RESULT:    -7.472      3.225      7.781
REMARK INTER + INTRA:         -10.464
REMARK INTER:                  -9.348
REMARK INTRA:                  -1.115
REMARK UNBOUND:                -0.808
REMARK  Name = 
REMARK  6 active torsions:
REMARK  status: ('A' for Active; 'I' for Inactive)
REMARK    1  A    between atoms: C_1  and  C_2
REMARK    2  A    between atoms: C_2  and  N_3
REMARK    3  A    between atoms: C_2  and  C_16
REMARK    4  A    between atoms: C_4  and  C_6
REMARK    5  A    between atoms: C_19  and  C_20
REMARK    6  A    between atoms: C_20  and  C_21
REMARK                            x       y       z     vdW  Elec       q    Type
REMARK                         _______ _______ _______ _____ _____    ______ ____
ROOT
ATOM      1  C   UNL     1      49.672   8.079  12.029  0.00  0.00    +0.000 C 
ATOM      2  C   UNL     1      48.419   7.609  12.778  0.00  0.00    +0.000 C 
ENDROOT
BRANCH   2   3
ATOM      3  C   UNL     1      48.806   7.035  14.136  0.00  0.00    +0.000 A 
ATOM      4  C   UNL     1      47.979   6.111  14.786  0.00  0.00    +0.000 A 
ATOM      5  C   UNL     1      48.362   5.551  16.008  0.00  0.00    +0.000 A 
ATOM      6  C   UNL     1      49.588   5.888  16.601  0.00  0.00    +0.000 A 
ATOM      7  C   UNL     1      50.406   6.826  15.964  0.00  0.00    +0.000 A 
ATOM      8  C   UNL     1      50.017   7.396  14.750  0.00  0.00    +0.000 A 
BRANCH   6   9
ATOM      9  C   UNL     1      50.030   5.246  17.898  0.00  0.00    +0.000 C 
BRANCH   9  10
ATOM     10  C   UNL     1      50.826   3.965  17.753  0.00  0.00    +0.000 A 
ATOM     11  C   UNL     1      50.214   2.779  17.347  0.00  0.00    +0.000 A 
ATOM     12  C   UNL     1      50.954   1.601  17.329  0.00  0.00    +0.000 A 
ATOM     13  C   UNL     1      52.286   1.627  17.717  0.00  0.00    +0.000 A 
ATOM     14  C   UNL     1      52.827   2.843  18.095  0.00  0.00    +0.000 A 
ATOM     15  N   UNL     1      52.132   4.004  18.123  0.00  0.00    +0.000 NA
ENDBRANCH   9  10
ENDBRANCH   6   9
ENDBRANCH   2   3
BRANCH   2  16
ATOM     16  N   UNL     1      47.655   6.611  12.043  0.00  0.00    +0.000 N 
ATOM     17  C   UNL     1      46.357   6.798  11.639  0.00  0.00    +0.000 C 
ATOM     18  O   UNL     1      45.755   7.856  11.814  0.00  0.00    +0.000 OA
ATOM     19  H   UNL     1      47.980   5.653  12.142  0.00  0.00    +0.000 HD
BRANCH  17  20
ATOM     20  C   UNL     1      45.728   5.685  10.922  0.00  0.00    +0.000 A 
ATOM     21  C   UNL     1      45.831   5.617   9.538  0.00  0.00    +0.000 A 
ATOM     22  S   UNL     1      45.042   4.268   8.857  0.00  0.00    +0.000 S 
ATOM     23  C   UNL     1      44.500   3.747  10.385  0.00  0.00    +0.000 A 
ATOM     24  N   UNL     1      43.713   2.645  10.509  0.00  0.00    +0.000 NA
ATOM     25  C   UNL     1      43.356   2.380  11.722  0.00  0.00    +0.000 A 
ATOM     26  N   UNL     1      43.725   3.110  12.822  0.00  0.00    +0.000 N 
ATOM     27  C   UNL     1      44.543   4.215  12.748  0.00  0.00    +0.000 A 
ATOM     28  O   UNL     1      44.897   4.819  13.753  0.00  0.00    +0.000 OA
ATOM     29  C   UNL     1      44.948   4.571  11.403  0.00  0.00    +0.000 A 
ATOM     30  H   UNL     1      43.429   2.836  13.747  0.00  0.00    +0.000 HD
ENDBRANCH  17  20
ENDBRANCH   2  16
TORSDOF 5
ENDMDL
MODEL 6
REMARK VINA RESULT:    -7.433      4.007      9.523
REMARK INTER + INTRA:         -10.413
REMARK INTER:                  -9.154
REMARK INTRA:                  -1.260
REMARK UNBOUND:                -0.808
REMARK  Name = 
REMARK  6 active torsions:
REMARK  status: ('A' for Active; 'I' for Inactive)
REMARK    1  A    between atoms: C_1  and  C_2
REMARK    2  A    between atoms: C_2  and  N_3
REMARK    3  A    between atoms: C_2  and  C_16
REMARK    4  A    between atoms: C_4  and  C_6
REMARK    5  A    between atoms: C_19  and  C_20
REMARK    6  A    between atoms: C_20  and  C_21
REMARK                            x       y       z     vdW  Elec       q    Type
REMARK                         _______ _______ _______ _____ _____    ______ ____
ROOT
ATOM      1  C   UNL     1      47.685   3.119  16.787  0.00  0.00    +0.000 C 
ATOM      2  C   UNL     1      48.013   4.497  16.200  0.00  0.00    +0.000 C 
ENDROOT
BRANCH   2   3
ATOM      3  C   UNL     1      48.075   5.537  17.312  0.00  0.00    +0.000 A 
ATOM      4  C   UNL     1      47.274   5.416  18.454  0.00  0.00    +0.000 A 
ATOM      5  C   UNL     1      47.370   6.347  19.492  0.00  0.00    +0.000 A 
ATOM      6  C   UNL     1      48.282   7.412  19.422  0.00  0.00    +0.000 A 
ATOM      7  C   UNL     1      49.068   7.546  18.274  0.00  0.00    +0.000 A 
ATOM      8  C   UNL     1      48.962   6.624  17.230  0.00  0.00    +0.000 A 
BRANCH   6   9
ATOM      9  C   UNL     1      48.427   8.392  20.565  0.00  0.00    +0.000 C 
BRANCH   9  10
ATOM     10  C   UNL     1      47.241   9.306  20.795  0.00  0.00    +0.000 A 
ATOM     11  C   UNL     1      46.799  10.175  19.797  0.00  0.00    +0.000 A 
ATOM     12  C   UNL     1      45.776  11.076  20.082  0.00  0.00    +0.000 A 
ATOM     13  C   UNL     1      45.218  11.093  21.352  0.00  0.00    +0.000 A 
ATOM     14  C   UNL     1      45.701  10.192  22.285  0.00  0.00    +0.000 A 
ATOM     15  N   UNL     1      46.693   9.307  22.038  0.00  0.00    +0.000 NA
ENDBRANCH   9  10
ENDBRANCH   6   9
ENDBRANCH   2   3
BRANCH   2  16
ATOM     16  N   UNL     1      47.051   4.934  15.197  0.00  0.00    +0.000 N 
ATOM     17  C   UNL     1      47.405   5.596  14.049  0.00  0.00    +0.000 C 
ATOM     18  O   UNL     1      48.576   5.819  13.746  0.00  0.00    +0.000 OA
ATOM     19  H   UNL     1      46.097   5.049  15.528  0.00  0.00    +0.000 HD
BRANCH  17  20
ATOM     20  C   UNL     1      46.311   5.979  13.151  0.00  0.00    +0.000 A 
ATOM     21  C   UNL     1      46.089   7.322  12.876  0.00  0.00    +0.000 A 
ATOM     22  S   UNL     1      44.778   7.598  11.821  0.00  0.00    +0.000 S 
ATOM     23  C   UNL     1      44.435   5.933  11.726  0.00  0.00    +0.000 A 
ATOM     24  N   UNL     1      43.378   5.478  11.001  0.00  0.00    +0.000 NA
ATOM     25  C   UNL     1      43.221   4.197  11.037  0.00  0.00    +0.000 A 
ATOM     26  N   UNL     1      44.033   3.329  11.721  0.00  0.00    +0.000 N 
ATOM     27  C   UNL     1      45.130   3.741  12.443  0.00  0.00    +0.000 A 
ATOM     28  O   UNL     1      45.867   2.940  13.004  0.00  0.00    +0.000 OA
ATOM     29  C   UNL     1      45.332   5.176  12.458  0.00  0.00    +0.000 A 
ATOM     30  H   UNL     1      43.868   2.333  11.690  0.00  0.00    +0.000 HD
ENDBRANCH  17  20
ENDBRANCH   2  16
TORSDOF 5
ENDMDL
MODEL 7
REMARK VINA RESULT:    -7.373      2.778      4.637
REMARK INTER + INTRA:         -10.336
REMARK INTER:                  -9.247
REMARK INTRA:                  -1.089
REMARK UNBOUND:                -0.808
REMARK  Name = 
REMARK  6 active torsions:
REMARK  status: ('A' for Active; 'I' for Inactive)
REMARK    1  A    between atoms: C_1  and  C_2
REMARK    2  A    between atoms: C_2  and  N_3
REMARK    3  A    between atoms: C_2  and  C_16
REMARK    4  A    between atoms: C_4  and  C_6
REMARK    5  A    between atoms: C_19  and  C_20
REMARK    6  A    between atoms: C_20  and  C_21
REMARK                            x       y       z     vdW  Elec       q    Type
REMARK                         _______ _______ _______ _____ _____    ______ ____
ROOT
ATOM      1  C   UNL     1      47.189   4.402  15.214  0.00  0.00    +0.000 C 
ATOM      2  C   UNL     1      47.053   5.663  14.352  0.00  0.00    +0.000 C 
ENDROOT
BRANCH   2   3
ATOM      3  C   UNL     1      46.357   5.326  13.039  0.00  0.00    +0.000 A 
ATOM      4  C   UNL     1      46.484   6.164  11.924  0.00  0.00    +0.000 A 
ATOM      5  C   UNL     1      45.884   5.826  10.708  0.00  0.00    +0.000 A 
ATOM      6  C   UNL     1      45.155   4.633  10.573  0.00  0.00    +0.000 A 
ATOM      7  C   UNL     1      45.010   3.805  11.689  0.00  0.00    +0.000 A 
ATOM      8  C   UNL     1      45.599   4.151  12.908  0.00  0.00    +0.000 A 
BRANCH   6   9
ATOM      9  C   UNL     1      44.547   4.237   9.245  0.00  0.00    +0.000 C 
BRANCH   9  10
ATOM     10  C   UNL     1      45.415   3.360   8.366  0.00  0.00    +0.000 A 
ATOM     11  C   UNL     1      45.602   2.009   8.660  0.00  0.00    +0.000 A 
ATOM     12  C   UNL     1      46.491   1.261   7.893  0.00  0.00    +0.000 A 
ATOM     13  C   UNL     1      47.176   1.875   6.853  0.00  0.00    +0.000 A 
ATOM     14  C   UNL     1      46.928   3.215   6.615  0.00  0.00    +0.000 A 
ATOM     15  N   UNL     1      46.071   3.966   7.344  0.00  0.00    +0.000 NA
ENDBRANCH   9  10
ENDBRANCH   6   9
ENDBRANCH   2   3
BRANCH   2  16
ATOM     16  N   UNL     1      48.332   6.295  14.060  0.00  0.00    +0.000 N 
ATOM     17  C   UNL     1      48.605   7.612  14.335  0.00  0.00    +0.000 C 
ATOM     18  O   UNL     1      47.805   8.348  14.909  0.00  0.00    +0.000 OA
ATOM     19  H   UNL     1      48.889   5.843  13.339  0.00  0.00    +0.000 HD
BRANCH  17  20
ATOM     20  C   UNL     1      49.938   8.095  13.963  0.00  0.00    +0.000 A 
ATOM     21  C   UNL     1      51.024   7.804  14.778  0.00  0.00    +0.000 A 
ATOM     22  S   UNL     1      52.499   8.442  14.210  0.00  0.00    +0.000 S 
ATOM     23  C   UNL     1      51.733   9.164  12.873  0.00  0.00    +0.000 A 
ATOM     24  N   UNL     1      52.437   9.918  11.987  0.00  0.00    +0.000 NA
ATOM     25  C   UNL     1      51.725  10.426  11.036  0.00  0.00    +0.000 A 
ATOM     26  N   UNL     1      50.375  10.237  10.885  0.00  0.00    +0.000 N 
ATOM     27  C   UNL     1      49.628   9.460  11.739  0.00  0.00    +0.000 A 
ATOM     28  O   UNL     1      48.432   9.268  11.552  0.00  0.00    +0.000 OA
ATOM     29  C   UNL     1      50.377   8.890  12.842  0.00  0.00    +0.000 A 
ATOM     30  H   UNL     1      49.881  10.645  10.105  0.00  0.00    +0.000 HD
ENDBRANCH  17  20
ENDBRANCH   2  16
TORSDOF 5
ENDMDL
MODEL 8
REMARK VINA RESULT:    -7.288      2.961      8.062
REMARK INTER + INTRA:         -10.225
REMARK INTER:                  -9.434
REMARK INTRA:                  -0.792
REMARK UNBOUND:                -0.808
REMARK  Name = 
REMARK  6 active torsions:
REMARK  status: ('A' for Active; 'I' for Inactive)
REMARK    1  A    between atoms: C_1  and  C_2
REMARK    2  A    between atoms: C_2  and  N_3
REMARK    3  A    between atoms: C_2  and  C_16
REMARK    4  A    between atoms: C_4  and  C_6
REMARK    5  A    between atoms: C_19  and  C_20
REMARK    6  A    between atoms: C_20  and  C_21
REMARK                            x       y       z     vdW  Elec       q    Type
REMARK                         _______ _______ _______ _____ _____    ______ ____
ROOT
ATOM      1  C   UNL     1      48.987   7.703  11.786  0.00  0.00    +0.000 C 
ATOM      2  C   UNL     1      47.918   7.305  12.811  0.00  0.00    +0.000 C 
ENDROOT
BRANCH   2   3
ATOM      3  C   UNL     1      48.576   6.922  14.131  0.00  0.00    +0.000 A 
ATOM      4  C   UNL     1      47.908   6.111  15.056  0.00  0.00    +0.000 A 
ATOM      5  C   UNL     1      48.535   5.723  16.244  0.00  0.00    +0.000 A 
ATOM      6  C   UNL     1      49.850   6.122  16.527  0.00  0.00    +0.000 A 
ATOM      7  C   UNL     1      50.512   6.949  15.614  0.00  0.00    +0.000 A 
ATOM      8  C   UNL     1      49.880   7.348  14.434  0.00  0.00    +0.000 A 
BRANCH   6   9
ATOM      9  C   UNL     1      50.551   5.662  17.787  0.00  0.00    +0.000 C 
BRANCH   9  10
ATOM     10  C   UNL     1      51.030   4.225  17.779  0.00  0.00    +0.000 A 
ATOM     11  C   UNL     1      52.303   3.888  18.239  0.00  0.00    +0.000 A 
ATOM     12  C   UNL     1      52.747   2.575  18.115  0.00  0.00    +0.000 A 
ATOM     13  C   UNL     1      51.916   1.627  17.535  0.00  0.00    +0.000 A 
ATOM     14  C   UNL     1      50.663   2.034  17.113  0.00  0.00    +0.000 A 
ATOM     15  N   UNL     1      50.205   3.302  17.220  0.00  0.00    +0.000 NA
ENDBRANCH   9  10
ENDBRANCH   6   9
ENDBRANCH   2   3
BRANCH   2  16
ATOM     16  N   UNL     1      47.080   6.201  12.362  0.00  0.00    +0.000 N 
ATOM     17  C   UNL     1      45.709   6.253  12.340  0.00  0.00    +0.000 C 
ATOM     18  O   UNL     1      45.080   7.265  12.641  0.00  0.00    +0.000 OA
ATOM     19  H   UNL     1      47.513   5.282  12.399  0.00  0.00    +0.000 HD
BRANCH  17  20
ATOM     20  C   UNL     1      45.017   5.048  11.874  0.00  0.00    +0.000 A 
ATOM     21  C   UNL     1      44.256   4.306  12.769  0.00  0.00    +0.000 A 
ATOM     22  S   UNL     1      43.522   2.934  12.072  0.00  0.00    +0.000 S 
ATOM     23  C   UNL     1      44.227   3.261  10.557  0.00  0.00    +0.000 A 
ATOM     24  N   UNL     1      44.035   2.425   9.502  0.00  0.00    +0.000 NA
ATOM     25  C   UNL     1      44.649   2.780   8.423  0.00  0.00    +0.000 A 
ATOM     26  N   UNL     1      45.427   3.903   8.300  0.00  0.00    +0.000 N 
ATOM     27  C   UNL     1      45.627   4.791   9.332  0.00  0.00    +0.000 A 
ATOM     28  O   UNL     1      46.287   5.812   9.180  0.00  0.00    +0.000 OA
ATOM     29  C   UNL     1      44.981   4.421  10.575  0.00  0.00    +0.000 A 
ATOM     30  H   UNL     1      45.862   4.136   7.420  0.00  0.00    +0.000 HD
ENDBRANCH  17  20
ENDBRANCH   2  16
TORSDOF 5
ENDMDL
MODEL 9
REMARK VINA RESULT:    -7.159      2.760      3.779
REMARK INTER + INTRA:         -10.059
REMARK INTER:                  -8.899
REMARK INTRA:                  -1.160
REMARK UNBOUND:                -0.808
REMARK  Name = 
REMARK  6 active torsions:
REMARK  status: ('A' for Active; 'I' for Inactive)
REMARK    1  A    between atoms: C_1  and  C_2
REMARK    2  A    between atoms: C_2  and  N_3
REMARK    3  A    between atoms: C_2  and  C_16
REMARK    4  A    between atoms: C_4  and  C_6
REMARK    5  A    between atoms: C_19  and  C_20
REMARK    6  A    between atoms: C_20  and  C_21
REMARK                            x       y       z     vdW  Elec       q    Type
REMARK                         _______ _______ _______ _____ _____    ______ ____
ROOT
ATOM      1  C   UNL     1      49.787   8.285  13.800  0.00  0.00    +0.000 C 
ATOM      2  C   UNL     1      49.188   6.976  14.329  0.00  0.00    +0.000 C 
ENDROOT
BRANCH   2   3
ATOM      3  C   UNL     1      48.061   6.509  13.416  0.00  0.00    +0.000 A 
ATOM      4  C   UNL     1      47.247   5.428  13.776  0.00  0.00    +0.000 A 
ATOM      5  C   UNL     1      46.184   5.035  12.958  0.00  0.00    +0.000 A 
ATOM      6  C   UNL     1      45.898   5.724  11.770  0.00  0.00    +0.000 A 
ATOM      7  C   UNL     1      46.721   6.791  11.398  0.00  0.00    +0.000 A 
ATOM      8  C   UNL     1      47.792   7.175  12.209  0.00  0.00    +0.000 A 
BRANCH   6   9
ATOM      9  C   UNL     1      44.717   5.335  10.907  0.00  0.00    +0.000 C 
BRANCH   9  10
ATOM     10  C   UNL     1      45.009   4.319   9.822  0.00  0.00    +0.000 A 
ATOM     11  C   UNL     1      44.760   2.961  10.021  0.00  0.00    +0.000 A 
ATOM     12  C   UNL     1      45.141   2.047   9.043  0.00  0.00    +0.000 A 
ATOM     13  C   UNL     1      45.763   2.504   7.889  0.00  0.00    +0.000 A 
ATOM     14  C   UNL     1      45.965   3.867   7.758  0.00  0.00    +0.000 A 
ATOM     15  N   UNL     1      45.607   4.778   8.692  0.00  0.00    +0.000 NA
ENDBRANCH   9  10
ENDBRANCH   6   9
ENDBRANCH   2   3
BRANCH   2  16
ATOM     16  N   UNL     1      48.679   7.090  15.689  0.00  0.00    +0.000 N 
ATOM     17  C   UNL     1      49.136   6.327  16.734  0.00  0.00    +0.000 C 
ATOM     18  O   UNL     1      50.061   5.526  16.614  0.00  0.00    +0.000 OA
ATOM     19  H   UNL     1      47.749   7.491  15.775  0.00  0.00    +0.000 HD
BRANCH  17  20
ATOM     20  C   UNL     1      48.505   6.558  18.037  0.00  0.00    +0.000 A 
ATOM     21  C   UNL     1      48.005   5.480  18.756  0.00  0.00    +0.000 A 
ATOM     22  S   UNL     1      47.299   5.917  20.245  0.00  0.00    +0.000 S 
ATOM     23  C   UNL     1      47.601   7.569  19.964  0.00  0.00    +0.000 A 
ATOM     24  N   UNL     1      47.196   8.514  20.853  0.00  0.00    +0.000 NA
ATOM     25  C   UNL     1      47.468   9.726  20.501  0.00  0.00    +0.000 A 
ATOM     26  N   UNL     1      48.119  10.077  19.347  0.00  0.00    +0.000 N 
ATOM     27  C   UNL     1      48.572   9.154  18.432  0.00  0.00    +0.000 A 
ATOM     28  O   UNL     1      49.194   9.493  17.433  0.00  0.00    +0.000 OA
ATOM     29  C   UNL     1      48.265   7.778  18.768  0.00  0.00    +0.000 A 
ATOM     30  H   UNL     1      48.321  11.045  19.141  0.00  0.00    +0.000 HD
ENDBRANCH  17  20
ENDBRANCH   2  16
TORSDOF 5
ENDMDL
