MODEL 1
REMARK VINA RESULT:    -8.566      0.000      0.000
REMARK INTER + INTRA:         -11.471
REMARK INTER:                 -10.569
REMARK INTRA:                  -0.902
REMARK UNBOUND:                -0.902
REMARK  Name = 
REMARK  4 active torsions:
REMARK  status: ('A' for Active; 'I' for Inactive)
REMARK    1  A    between atoms: C_7  and  N_8
REMARK    2  A    between atoms: N_8  and  C_9
REMARK    3  A    between atoms: C_9  and  C_10
REMARK    4  A    between atoms: C_14  and  C_15
REMARK                            x       y       z     vdW  Elec       q    Type
REMARK                         _______ _______ _______ _____ _____    ______ ____
ROOT
ATOM      1  C   UNL     1      43.869   5.013  10.985  0.00  0.00    +0.000 A 
ATOM      2  C   UNL     1      43.196   4.020  11.683  0.00  0.00    +0.000 A 
ATOM      3  N   UNL     1      43.242   2.712  11.362  0.00  0.00    +0.000 NA
ATOM      4  C   UNL     1      44.004   2.374  10.290  0.00  0.00    +0.000 A 
ATOM      5  C   UNL     1      44.759   3.264   9.521  0.00  0.00    +0.000 A 
ATOM      6  C   UNL     1      44.674   4.611   9.908  0.00  0.00    +0.000 A 
ENDROOT
BRANCH   5   7
ATOM      7  C   UNL     1      45.600   2.819   8.388  0.00  0.00    +0.000 A 
ATOM      8  C   UNL     1      45.915   3.681   7.320  0.00  0.00    +0.000 A 
ATOM      9  C   UNL     1      46.750   3.275   6.273  0.00  0.00    +0.000 A 
ATOM     10  C   UNL     1      47.278   1.988   6.261  0.00  0.00    +0.000 A 
ATOM     11  C   UNL     1      46.965   1.107   7.290  0.00  0.00    +0.000 A 
ATOM     12  C   UNL     1      46.137   1.519   8.340  0.00  0.00    +0.000 A 
ENDBRANCH   5   7
BRANCH   1  13
ATOM     13  C   UNL     1      43.724   6.462  11.360  0.00  0.00    +0.000 C 
BRANCH  13  14
ATOM     14  N   UNL     1      44.427   6.739  12.605  0.00  0.00    +0.000 N 
ATOM     15  H   UNL     1      44.084   7.557  13.100  0.00  0.00    +0.000 HD
BRANCH  14  22
ATOM     16  F   UNL     1      45.979   4.641  13.899  0.00  0.00    +0.000 F 
ATOM     17  C   UNL     1      46.598   5.672  13.299  0.00  0.00    +0.000 A 
ATOM     18  N   UNL     1      47.951   5.655  13.371  0.00  0.00    +0.000 NA
ATOM     19  C   UNL     1      48.599   6.675  12.780  0.00  0.00    +0.000 A 
ATOM     20  C   UNL     1      47.959   7.708  12.122  0.00  0.00    +0.000 A 
ATOM     21  C   UNL     1      46.566   7.689  12.052  0.00  0.00    +0.000 A 
ATOM     22  C   UNL     1      45.831   6.646  12.630  0.00  0.00    +0.000 A 
ENDBRANCH  14  22
ENDBRANCH  13  14
ENDBRANCH   1  13
TORSDOF 4
ENDMDL
MODEL 2
REMARK VINA RESULT:    -8.195      2.585      6.282
REMARK INTER + INTRA:         -11.013
REMARK INTER:                 -10.342
REMARK INTRA:                  -0.671
REMARK UNBOUND:                -0.902
REMARK  Name = 
REMARK  4 active torsions:
REMARK  status: ('A' for Active; 'I' for Inactive)
REMARK    1  A    between atoms: C_7  and  N_8
REMARK    2  A    between atoms: N_8  and  C_9
REMARK    3  A    between atoms: C_9  and  C_10
REMARK    4  A    between atoms: C_14  and  C_15
REMARK                            x       y       z     vdW  Elec       q    Type
REMARK                         _______ _______ _______ _____ _____    ______ ____
ROOT
ATOM      1  C   UNL     1      44.407   3.540  10.762  0.00  0.00    +0.000 A 
ATOM      2  C   UNL     1      43.899   3.026  11.946  0.00  0.00    +0.000 A 
ATOM      3  N   UNL     1      44.070   3.604  13.152  0.00  0.00    +0.000 NA
ATOM      4  C   UNL     1      44.782   4.760  13.177  0.00  0.00    +0.000 A 
ATOM      5  C   UNL     1      45.319   5.405  12.060  0.00  0.00    +0.000 A 
ATOM      6  C   UNL     1      45.103   4.756  10.833  0.00  0.00    +0.000 A 
ENDROOT
BRANCH   5   7
ATOM      7  C   UNL     1      46.051   6.687  12.158  0.00  0.00    +0.000 A 
ATOM      8  C   UNL     1      45.433   7.853  12.649  0.00  0.00    +0.000 A 
ATOM      9  C   UNL     1      46.141   9.054  12.786  0.00  0.00    +0.000 A 
ATOM     10  C   UNL     1      47.480   9.120  12.419  0.00  0.00    +0.000 A 
ATOM     11  C   UNL     1      48.110   7.990  11.909  0.00  0.00    +0.000 A 
ATOM     12  C   UNL     1      47.404   6.789  11.781  0.00  0.00    +0.000 A 
ENDBRANCH   5   7
BRANCH   1  13
ATOM     13  C   UNL     1      44.232   2.811   9.459  0.00  0.00    +0.000 C 
BRANCH  13  14
ATOM     14  N   UNL     1      45.349   1.905   9.228  0.00  0.00    +0.000 N 
ATOM     15  H   UNL     1      45.946   1.769  10.040  0.00  0.00    +0.000 HD
BRANCH  14  22
ATOM     16  F   UNL     1      47.023  -0.164   8.043  0.00  0.00    +0.000 F 
ATOM     17  C   UNL     1      46.944   1.053   7.478  0.00  0.00    +0.000 A 
ATOM     18  N   UNL     1      47.702   1.223   6.368  0.00  0.00    +0.000 NA
ATOM     19  C   UNL     1      47.645   2.432   5.779  0.00  0.00    +0.000 A 
ATOM     20  C   UNL     1      46.866   3.474   6.247  0.00  0.00    +0.000 A 
ATOM     21  C   UNL     1      46.086   3.261   7.384  0.00  0.00    +0.000 A 
ATOM     22  C   UNL     1      46.085   2.021   8.034  0.00  0.00    +0.000 A 
ENDBRANCH  14  22
ENDBRANCH  13  14
ENDBRANCH   1  13
TORSDOF 4
ENDMDL
MODEL 3
REMARK VINA RESULT:    -8.054      1.515      1.728
REMARK INTER + INTRA:         -10.840
REMARK INTER:                 -10.111
REMARK INTRA:                  -0.729
REMARK UNBOUND:                -0.902
REMARK  Name = 
REMARK  4 active torsions:
REMARK  status: ('A' for Active; 'I' for Inactive)
REMARK    1  A    between atoms: C_7  and  N_8
REMARK    2  A    between atoms: N_8  and  C_9
REMARK    3  A    between atoms: C_9  and  C_10
REMARK    4  A    between atoms: C_14  and  C_15
REMARK                            x       y       z     vdW  Elec       q    Type
REMARK                         _______ _______ _______ _____ _____    ______ ____
ROOT
ATOM      1  C   UNL     1      43.838   5.053  10.994  0.00  0.00    +0.000 A 
ATOM      2  C   UNL     1      43.179   4.062  11.706  0.00  0.00    +0.000 A 
ATOM      3  N   UNL     1      43.236   2.750  11.398  0.00  0.00    +0.000 NA
ATOM      4  C   UNL     1      43.995   2.409  10.325  0.00  0.00    +0.000 A 
ATOM      5  C   UNL     1      44.736   3.298   9.543  0.00  0.00    +0.000 A 
ATOM      6  C   UNL     1      44.640   4.648   9.916  0.00  0.00    +0.000 A 
ENDROOT
BRANCH   5   7
ATOM      7  C   UNL     1      45.575   2.850   8.409  0.00  0.00    +0.000 A 
ATOM      8  C   UNL     1      45.879   3.706   7.333  0.00  0.00    +0.000 A 
ATOM      9  C   UNL     1      46.712   3.296   6.285  0.00  0.00    +0.000 A 
ATOM     10  C   UNL     1      47.248   2.013   6.281  0.00  0.00    +0.000 A 
ATOM     11  C   UNL     1      46.947   1.138   7.319  0.00  0.00    +0.000 A 
ATOM     12  C   UNL     1      46.121   1.553   8.370  0.00  0.00    +0.000 A 
ENDBRANCH   5   7
BRANCH   1  13
ATOM     13  C   UNL     1      43.681   6.505  11.355  0.00  0.00    +0.000 C 
BRANCH  13  14
ATOM     14  N   UNL     1      44.409   6.807  12.579  0.00  0.00    +0.000 N 
ATOM     15  H   UNL     1      43.825   7.167  13.329  0.00  0.00    +0.000 HD
BRANCH  14  22
ATOM     16  F   UNL     1      44.812   9.684  12.791  0.00  0.00    +0.000 F 
ATOM     17  C   UNL     1      45.850   8.870  12.532  0.00  0.00    +0.000 A 
ATOM     18  N   UNL     1      47.042   9.490  12.364  0.00  0.00    +0.000 NA
ATOM     19  C   UNL     1      48.100   8.701  12.103  0.00  0.00    +0.000 A 
ATOM     20  C   UNL     1      48.021   7.325  12.004  0.00  0.00    +0.000 A 
ATOM     21  C   UNL     1      46.781   6.715  12.196  0.00  0.00    +0.000 A 
ATOM     22  C   UNL     1      45.644   7.477  12.490  0.00  0.00    +0.000 A 
ENDBRANCH  14  22
ENDBRANCH  13  14
ENDBRANCH   1  13
TORSDOF 4
ENDMDL
MODEL 4
REMARK VINA RESULT:    -7.855      2.183      6.131
REMARK INTER + INTRA:         -10.594
REMARK INTER:                 -10.102
REMARK INTRA:                  -0.492
REMARK UNBOUND:                -0.902
REMARK  Name = 
REMARK  4 active torsions:
REMARK  status: ('A' for Active; 'I' for Inactive)
REMARK    1  A    between atoms: C_7  and  N_8
REMARK    2  A    between atoms: N_8  and  C_9
REMARK    3  A    between atoms: C_9  and  C_10
REMARK    4  A    between atoms: C_14  and  C_15
REMARK                            x       y       z     vdW  Elec       q    Type
REMARK                         _______ _______ _______ _____ _____    ______ ____
ROOT
ATOM      1  C   UNL     1      44.848   4.446  11.190  0.00  0.00    +0.000 A 
ATOM      2  C   UNL     1      45.094   3.600  12.261  0.00  0.00    +0.000 A 
ATOM      3  N   UNL     1      45.985   3.864  13.238  0.00  0.00    +0.000 NA
ATOM      4  C   UNL     1      46.661   5.038  13.145  0.00  0.00    +0.000 A 
ATOM      5  C   UNL     1      46.487   5.995  12.142  0.00  0.00    +0.000 A 
ATOM      6  C   UNL     1      45.543   5.664  11.156  0.00  0.00    +0.000 A 
ENDROOT
BRANCH   5   7
ATOM      7  C   UNL     1      47.232   7.273  12.125  0.00  0.00    +0.000 A 
ATOM      8  C   UNL     1      48.630   7.310  11.962  0.00  0.00    +0.000 A 
ATOM      9  C   UNL     1      49.328   8.522  11.899  0.00  0.00    +0.000 A 
ATOM     10  C   UNL     1      48.644   9.728  12.012  0.00  0.00    +0.000 A 
ATOM     11  C   UNL     1      47.266   9.722  12.197  0.00  0.00    +0.000 A 
ATOM     12  C   UNL     1      46.569   8.509  12.251  0.00  0.00    +0.000 A 
ENDBRANCH   5   7
BRANCH   1  13
ATOM     13  C   UNL     1      43.885   4.061  10.100  0.00  0.00    +0.000 C 
BRANCH  13  14
ATOM     14  N   UNL     1      44.487   4.271   8.791  0.00  0.00    +0.000 N 
ATOM     15  H   UNL     1      43.841   4.626   8.091  0.00  0.00    +0.000 HD
BRANCH  14  22
ATOM     16  F   UNL     1      44.432   1.430   9.433  0.00  0.00    +0.000 F 
ATOM     17  C   UNL     1      45.379   1.925   8.617  0.00  0.00    +0.000 A 
ATOM     18  N   UNL     1      46.278   1.019   8.162  0.00  0.00    +0.000 NA
ATOM     19  C   UNL     1      47.239   1.484   7.343  0.00  0.00    +0.000 A 
ATOM     20  C   UNL     1      47.341   2.807   6.959  0.00  0.00    +0.000 A 
ATOM     21  C   UNL     1      46.392   3.712   7.434  0.00  0.00    +0.000 A 
ATOM     22  C   UNL     1      45.354   3.290   8.274  0.00  0.00    +0.000 A 
ENDBRANCH  14  22
ENDBRANCH  13  14
ENDBRANCH   1  13
TORSDOF 4
ENDMDL
MODEL 5
REMARK VINA RESULT:    -7.379      2.633      3.350
REMARK INTER + INTRA:         -10.006
REMARK INTER:                  -9.498
REMARK INTRA:                  -0.508
REMARK UNBOUND:                -0.902
REMARK  Name = 
REMARK  4 active torsions:
REMARK  status: ('A' for Active; 'I' for Inactive)
REMARK    1  A    between atoms: C_7  and  N_8
REMARK    2  A    between atoms: N_8  and  C_9
REMARK    3  A    between atoms: C_9  and  C_10
REMARK    4  A    between atoms: C_14  and  C_15
REMARK                            x       y       z     vdW  Elec       q    Type
REMARK                         _______ _______ _______ _____ _____    ______ ____
ROOT
ATOM      1  C   UNL     1      44.545   5.332  11.071  0.00  0.00    +0.000 A 
ATOM      2  C   UNL     1      43.583   4.512  11.641  0.00  0.00    +0.000 A 
ATOM      3  N   UNL     1      43.287   3.275  11.193  0.00  0.00    +0.000 NA
ATOM      4  C   UNL     1      43.994   2.830  10.122  0.00  0.00    +0.000 A 
ATOM      5  C   UNL     1      45.011   3.535   9.474  0.00  0.00    +0.000 A 
ATOM      6  C   UNL     1      45.276   4.815   9.990  0.00  0.00    +0.000 A 
ENDROOT
BRANCH   5   7
ATOM      7  C   UNL     1      45.768   2.971   8.335  0.00  0.00    +0.000 A 
ATOM      8  C   UNL     1      46.106   3.754   7.214  0.00  0.00    +0.000 A 
ATOM      9  C   UNL     1      46.864   3.232   6.159  0.00  0.00    +0.000 A 
ATOM     10  C   UNL     1      47.288   1.908   6.192  0.00  0.00    +0.000 A 
ATOM     11  C   UNL     1      46.949   1.104   7.275  0.00  0.00    +0.000 A 
ATOM     12  C   UNL     1      46.200   1.631   8.333  0.00  0.00    +0.000 A 
ENDBRANCH   5   7
BRANCH   1  13
ATOM     13  C   UNL     1      44.781   6.727  11.582  0.00  0.00    +0.000 C 
BRANCH  13  14
ATOM     14  N   UNL     1      43.820   7.652  10.998  0.00  0.00    +0.000 N 
ATOM     15  H   UNL     1      43.536   7.412  10.052  0.00  0.00    +0.000 HD
BRANCH  14  22
ATOM     16  F   UNL     1      41.925   9.750  10.294  0.00  0.00    +0.000 F 
ATOM     17  C   UNL     1      43.141  10.065  10.775  0.00  0.00    +0.000 A 
ATOM     18  N   UNL     1      43.395  11.392  10.874  0.00  0.00    +0.000 NA
ATOM     19  C   UNL     1      44.604  11.739  11.351  0.00  0.00    +0.000 A 
ATOM     20  C   UNL     1      45.566  10.824  11.735  0.00  0.00    +0.000 A 
ATOM     21  C   UNL     1      45.267   9.465  11.634  0.00  0.00    +0.000 A 
ATOM     22  C   UNL     1      44.020   9.036  11.163  0.00  0.00    +0.000 A 
ENDBRANCH  14  22
ENDBRANCH  13  14
ENDBRANCH   1  13
TORSDOF 4
ENDMDL
MODEL 6
REMARK VINA RESULT:    -7.062      1.734      2.595
REMARK INTER + INTRA:          -9.616
REMARK INTER:                  -8.899
REMARK INTRA:                  -0.717
REMARK UNBOUND:                -0.902
REMARK  Name = 
REMARK  4 active torsions:
REMARK  status: ('A' for Active; 'I' for Inactive)
REMARK    1  A    between atoms: C_7  and  N_8
REMARK    2  A    between atoms: N_8  and  C_9
REMARK    3  A    between atoms: C_9  and  C_10
REMARK    4  A    between atoms: C_14  and  C_15
REMARK                            x       y       z     vdW  Elec       q    Type
REMARK                         _______ _______ _______ _____ _____    ______ ____
ROOT
ATOM      1  C   UNL     1      45.157   6.129  11.835  0.00  0.00    +0.000 A 
ATOM      2  C   UNL     1      43.777   6.083  11.967  0.00  0.00    +0.000 A 
ATOM      3  N   UNL     1      42.972   5.332  11.190  0.00  0.00    +0.000 NA
ATOM      4  C   UNL     1      43.576   4.582  10.232  0.00  0.00    +0.000 A 
ATOM      5  C   UNL     1      44.954   4.507  10.013  0.00  0.00    +0.000 A 
ATOM      6  C   UNL     1      45.739   5.308  10.857  0.00  0.00    +0.000 A 
ENDROOT
BRANCH   5   7
ATOM      7  C   UNL     1      45.547   3.635   8.974  0.00  0.00    +0.000 A 
ATOM      8  C   UNL     1      45.550   2.233   9.102  0.00  0.00    +0.000 A 
ATOM      9  C   UNL     1      46.069   1.408   8.097  0.00  0.00    +0.000 A 
ATOM     10  C   UNL     1      46.611   1.967   6.945  0.00  0.00    +0.000 A 
ATOM     11  C   UNL     1      46.642   3.350   6.801  0.00  0.00    +0.000 A 
ATOM     12  C   UNL     1      46.115   4.173   7.803  0.00  0.00    +0.000 A 
ENDBRANCH   5   7
BRANCH   1  13
ATOM     13  C   UNL     1      45.992   7.037  12.695  0.00  0.00    +0.000 C 
BRANCH  13  14
ATOM     14  N   UNL     1      47.310   6.460  12.916  0.00  0.00    +0.000 N 
ATOM     15  H   UNL     1      47.695   5.985  12.104  0.00  0.00    +0.000 HD
BRANCH  14  22
ATOM     16  F   UNL     1      46.235   3.847  13.624  0.00  0.00    +0.000 F 
ATOM     17  C   UNL     1      46.999   4.526  14.496  0.00  0.00    +0.000 A 
ATOM     18  N   UNL     1      47.193   3.916  15.690  0.00  0.00    +0.000 NA
ATOM     19  C   UNL     1      47.954   4.572  16.586  0.00  0.00    +0.000 A 
ATOM     20  C   UNL     1      48.529   5.805  16.342  0.00  0.00    +0.000 A 
ATOM     21  C   UNL     1      48.322   6.400  15.097  0.00  0.00    +0.000 A 
ATOM     22  C   UNL     1      47.556   5.762  14.113  0.00  0.00    +0.000 A 
ENDBRANCH  14  22
ENDBRANCH  13  14
ENDBRANCH   1  13
TORSDOF 4
ENDMDL
MODEL 7
REMARK VINA RESULT:    -6.986      2.581      6.547
REMARK INTER + INTRA:          -9.521
REMARK INTER:                  -8.894
REMARK INTRA:                  -0.627
REMARK UNBOUND:                -0.902
REMARK  Name = 
REMARK  4 active torsions:
REMARK  status: ('A' for Active; 'I' for Inactive)
REMARK    1  A    between atoms: C_7  and  N_8
REMARK    2  A    between atoms: N_8  and  C_9
REMARK    3  A    between atoms: C_9  and  C_10
REMARK    4  A    between atoms: C_14  and  C_15
REMARK                            x       y       z     vdW  Elec       q    Type
REMARK                         _______ _______ _______ _____ _____    ______ ____
ROOT
ATOM      1  C   UNL     1      45.097   4.991  11.241  0.00  0.00    +0.000 A 
ATOM      2  C   UNL     1      45.492   6.187  10.660  0.00  0.00    +0.000 A 
ATOM      3  N   UNL     1      46.369   7.043  11.222  0.00  0.00    +0.000 NA
ATOM      4  C   UNL     1      46.883   6.683  12.427  0.00  0.00    +0.000 A 
ATOM      5  C   UNL     1      46.600   5.496  13.106  0.00  0.00    +0.000 A 
ATOM      6  C   UNL     1      45.685   4.644  12.468  0.00  0.00    +0.000 A 
ENDROOT
BRANCH   5   7
ATOM      7  C   UNL     1      47.230   5.151  14.400  0.00  0.00    +0.000 A 
ATOM      8  C   UNL     1      48.070   6.056  15.076  0.00  0.00    +0.000 A 
ATOM      9  C   UNL     1      48.627   5.747  16.323  0.00  0.00    +0.000 A 
ATOM     10  C   UNL     1      48.370   4.516  16.916  0.00  0.00    +0.000 A 
ATOM     11  C   UNL     1      47.562   3.592  16.261  0.00  0.00    +0.000 A 
ATOM     12  C   UNL     1      46.999   3.907  15.019  0.00  0.00    +0.000 A 
ENDBRANCH   5   7
BRANCH   1  13
ATOM     13  C   UNL     1      44.066   4.111  10.588  0.00  0.00    +0.000 C 
BRANCH  13  14
ATOM     14  N   UNL     1      44.203   4.156   9.139  0.00  0.00    +0.000 N 
ATOM     15  H   UNL     1      43.319   4.225   8.642  0.00  0.00    +0.000 HD
BRANCH  14  22
ATOM     16  F   UNL     1      44.312   1.269   9.512  0.00  0.00    +0.000 F 
ATOM     17  C   UNL     1      45.210   1.887   8.725  0.00  0.00    +0.000 A 
ATOM     18  N   UNL     1      46.141   1.078   8.166  0.00  0.00    +0.000 NA
ATOM     19  C   UNL     1      47.055   1.668   7.373  0.00  0.00    +0.000 A 
ATOM     20  C   UNL     1      47.078   3.025   7.113  0.00  0.00    +0.000 A 
ATOM     21  C   UNL     1      46.096   3.829   7.692  0.00  0.00    +0.000 A 
ATOM     22  C   UNL     1      45.105   3.276   8.512  0.00  0.00    +0.000 A 
ENDBRANCH  14  22
ENDBRANCH  13  14
ENDBRANCH   1  13
TORSDOF 4
ENDMDL
MODEL 8
REMARK VINA RESULT:    -6.679      2.621      4.534
REMARK INTER + INTRA:          -9.143
REMARK INTER:                  -8.354
REMARK INTRA:                  -0.790
REMARK UNBOUND:                -0.902
REMARK  Name = 
REMARK  4 active torsions:
REMARK  status: ('A' for Active; 'I' for Inactive)
REMARK    1  A    between atoms: C_7  and  N_8
REMARK    2  A    between atoms: N_8  and  C_9
REMARK    3  A    between atoms: C_9  and  C_10
REMARK    4  A    between atoms: C_14  and  C_15
REMARK                            x       y       z     vdW  Elec       q    Type
REMARK                         _______ _______ _______ _____ _____    ______ ____
ROOT
ATOM      1  C   UNL     1      47.278   6.968  13.241  0.00  0.00    +0.000 A 
ATOM      2  C   UNL     1      46.497   8.114  13.265  0.00  0.00    +0.000 A 
ATOM      3  N   UNL     1      45.428   8.312  12.468  0.00  0.00    +0.000 NA
ATOM      4  C   UNL     1      45.117   7.311  11.605  0.00  0.00    +0.000 A 
ATOM      5  C   UNL     1      45.795   6.094  11.500  0.00  0.00    +0.000 A 
ATOM      6  C   UNL     1      46.896   5.945  12.359  0.00  0.00    +0.000 A 
ENDROOT
BRANCH   5   7
ATOM      7  C   UNL     1      45.375   5.029  10.562  0.00  0.00    +0.000 A 
ATOM      8  C   UNL     1      45.691   5.088   9.191  0.00  0.00    +0.000 A 
ATOM      9  C   UNL     1      45.335   4.057   8.313  0.00  0.00    +0.000 A 
ATOM     10  C   UNL     1      44.639   2.948   8.784  0.00  0.00    +0.000 A 
ATOM     11  C   UNL     1      44.294   2.874  10.129  0.00  0.00    +0.000 A 
ATOM     12  C   UNL     1      44.659   3.901  11.006  0.00  0.00    +0.000 A 
ENDBRANCH   5   7
BRANCH   1  13
ATOM     13  C   UNL     1      48.496   6.837  14.114  0.00  0.00    +0.000 C 
BRANCH  13  14
ATOM     14  N   UNL     1      48.108   6.673  15.507  0.00  0.00    +0.000 N 
ATOM     15  H   UNL     1      48.426   7.422  16.116  0.00  0.00    +0.000 HD
BRANCH  14  22
ATOM     16  F   UNL     1      46.340   4.397  15.079  0.00  0.00    +0.000 F 
ATOM     17  C   UNL     1      47.357   4.313  15.955  0.00  0.00    +0.000 A 
ATOM     18  N   UNL     1      47.461   3.130  16.606  0.00  0.00    +0.000 NA
ATOM     19  C   UNL     1      48.468   3.015  17.490  0.00  0.00    +0.000 A 
ATOM     20  C   UNL     1      49.375   4.025  17.751  0.00  0.00    +0.000 A 
ATOM     21  C   UNL     1      49.249   5.227  17.053  0.00  0.00    +0.000 A 
ATOM     22  C   UNL     1      48.234   5.405  16.105  0.00  0.00    +0.000 A 
ENDBRANCH  14  22
ENDBRANCH  13  14
ENDBRANCH   1  13
TORSDOF 4
ENDMDL
MODEL 9
REMARK VINA RESULT:    -6.641      1.911      6.169
REMARK INTER + INTRA:          -9.096
REMARK INTER:                  -8.306
REMARK INTRA:                  -0.790
REMARK UNBOUND:                -0.902
REMARK  Name = 
REMARK  4 active torsions:
REMARK  status: ('A' for Active; 'I' for Inactive)
REMARK    1  A    between atoms: C_7  and  N_8
REMARK    2  A    between atoms: N_8  and  C_9
REMARK    3  A    between atoms: C_9  and  C_10
REMARK    4  A    between atoms: C_14  and  C_15
REMARK                            x       y       z     vdW  Elec       q    Type
REMARK                         _______ _______ _______ _____ _____    ______ ____
ROOT
ATOM      1  C   UNL     1      45.233   5.479  12.861  0.00  0.00    +0.000 A 
ATOM      2  C   UNL     1      46.143   4.638  13.485  0.00  0.00    +0.000 A 
ATOM      3  N   UNL     1      47.443   4.943  13.674  0.00  0.00    +0.000 NA
ATOM      4  C   UNL     1      47.855   6.155  13.220  0.00  0.00    +0.000 A 
ATOM      5  C   UNL     1      47.041   7.110  12.607  0.00  0.00    +0.000 A 
ATOM      6  C   UNL     1      45.697   6.735  12.443  0.00  0.00    +0.000 A 
ENDROOT
BRANCH   5   7
ATOM      7  C   UNL     1      47.551   8.429  12.173  0.00  0.00    +0.000 A 
ATOM      8  C   UNL     1      46.729   9.573  12.166  0.00  0.00    +0.000 A 
ATOM      9  C   UNL     1      47.226  10.830  11.801  0.00  0.00    +0.000 A 
ATOM     10  C   UNL     1      48.555  10.969  11.417  0.00  0.00    +0.000 A 
ATOM     11  C   UNL     1      49.385   9.854  11.391  0.00  0.00    +0.000 A 
ATOM     12  C   UNL     1      48.888   8.600  11.766  0.00  0.00    +0.000 A 
ENDBRANCH   5   7
BRANCH   1  13
ATOM     13  C   UNL     1      43.811   5.049  12.627  0.00  0.00    +0.000 C 
BRANCH  13  14
ATOM     14  N   UNL     1      43.472   5.157  11.215  0.00  0.00    +0.000 N 
ATOM     15  H   UNL     1      42.480   5.290  11.036  0.00  0.00    +0.000 HD
BRANCH  14  22
ATOM     16  F   UNL     1      43.350   2.249  11.335  0.00  0.00    +0.000 F 
ATOM     17  C   UNL     1      44.068   2.860  10.377  0.00  0.00    +0.000 A 
ATOM     18  N   UNL     1      44.717   2.030   9.525  0.00  0.00    +0.000 NA
ATOM     19  C   UNL     1      45.445   2.613   8.554  0.00  0.00    +0.000 A 
ATOM     20  C   UNL     1      45.551   3.982   8.396  0.00  0.00    +0.000 A 
ATOM     21  C   UNL     1      44.858   4.808   9.280  0.00  0.00    +0.000 A 
ATOM     22  C   UNL     1      44.067   4.267  10.301  0.00  0.00    +0.000 A 
ENDBRANCH  14  22
ENDBRANCH  13  14
ENDBRANCH   1  13
TORSDOF 4
ENDMDL
