MODEL 1
REMARK VINA RESULT:    -7.976      0.000      0.000
REMARK INTER + INTRA:         -11.592
REMARK INTER:                 -10.773
REMARK INTRA:                  -0.819
REMARK UNBOUND:                -0.819
REMARK  Name = 
REMARK  7 active torsions:
REMARK  status: ('A' for Active; 'I' for Inactive)
REMARK    1  A    between atoms: C_1  and  C_2
REMARK    2  A    between atoms: C_6  and  C_7
REMARK    3  A    between atoms: C_7  and  O_8
REMARK    4  A    between atoms: O_8  and  C_9
REMARK    5  A    between atoms: C_12  and  C_13
REMARK    6  A    between atoms: C_13  and  N_14
REMARK    7  A    between atoms: C_15  and  C_17
REMARK                            x       y       z     vdW  Elec       q    Type
REMARK                         _______ _______ _______ _____ _____    ______ ____
ROOT
ATOM      1  C   UNL     1      48.009   6.267  14.381  0.00  0.00    +0.000 C 
ENDROOT
BRANCH   1   5
ATOM      2  C   UNL     1      45.436   3.703  12.262  0.00  0.00    +0.000 A 
ATOM      3  C   UNL     1      45.424   5.071  12.024  0.00  0.00    +0.000 A 
ATOM      4  N   UNL     1      46.252   5.938  12.670  0.00  0.00    +0.000 NA
ATOM      5  C   UNL     1      47.081   5.380  13.594  0.00  0.00    +0.000 A 
ATOM      6  C   UNL     1      47.056   4.012  13.846  0.00  0.00    +0.000 A 
ATOM      7  N   UNL     1      46.249   3.147  13.185  0.00  0.00    +0.000 NA
BRANCH   2   8
ATOM      8  O   UNL     1      44.543   2.898  11.589  0.00  0.00    +0.000 OA
BRANCH   8   9
ATOM      9  C   UNL     1      44.079   3.519  10.380  0.00  0.00    +0.000 C 
BRANCH   9  15
ATOM     10  C   UNL     1      46.589   0.193   7.832  0.00  0.00    +0.000 C 
ATOM     11  C   UNL     1      46.230   1.635   8.022  0.00  0.00    +0.000 A 
ATOM     12  C   UNL     1      46.760   2.616   7.191  0.00  0.00    +0.000 A 
ATOM     13  C   UNL     1      46.397   3.941   7.405  0.00  0.00    +0.000 A 
ATOM     14  C   UNL     1      45.523   4.252   8.442  0.00  0.00    +0.000 A 
ATOM     15  C   UNL     1      45.038   3.222   9.245  0.00  0.00    +0.000 A 
ATOM     16  N   UNL     1      45.378   1.922   9.036  0.00  0.00    +0.000 NA
ENDBRANCH   9  15
ENDBRANCH   8   9
ENDBRANCH   2   8
ENDBRANCH   1   5
BRANCH   1  17
ATOM     17  N   UNL     1      47.899   6.055  15.803  0.00  0.00    +0.000 N 
ATOM     18  C   UNL     1      48.993   5.864  16.608  0.00  0.00    +0.000 C 
ATOM     19  O   UNL     1      50.143   5.924  16.182  0.00  0.00    +0.000 OA
ATOM     20  H   UNL     1      46.992   5.733  16.122  0.00  0.00    +0.000 HD
BRANCH  18  21
ATOM     21  C   UNL     1      48.701   5.662  18.029  0.00  0.00    +0.000 A 
ATOM     22  C   UNL     1      48.875   4.420  18.620  0.00  0.00    +0.000 A 
ATOM     23  S   UNL     1      48.573   4.425  20.301  0.00  0.00    +0.000 S 
ATOM     24  C   UNL     1      48.137   6.072  20.276  0.00  0.00    +0.000 A 
ATOM     25  N   UNL     1      47.753   6.720  21.408  0.00  0.00    +0.000 NA
ATOM     26  C   UNL     1      47.423   7.957  21.228  0.00  0.00    +0.000 A 
ATOM     27  N   UNL     1      47.438   8.602  20.022  0.00  0.00    +0.000 N 
ATOM     28  C   UNL     1      47.841   7.998  18.855  0.00  0.00    +0.000 A 
ATOM     29  O   UNL     1      47.893   8.617  17.800  0.00  0.00    +0.000 OA
ATOM     30  C   UNL     1      48.225   6.607  19.006  0.00  0.00    +0.000 A 
ATOM     31  H   UNL     1      47.174   9.575  19.942  0.00  0.00    +0.000 HD
ENDBRANCH  18  21
ENDBRANCH   1  17
TORSDOF 6
ENDMDL
MODEL 2
REMARK VINA RESULT:    -7.926      1.552      2.268
REMARK INTER + INTRA:         -11.525
REMARK INTER:                 -10.743
REMARK INTRA:                  -0.782
REMARK UNBOUND:                -0.819
REMARK  Name = 
REMARK  7 active torsions:
REMARK  status: ('A' for Active; 'I' for Inactive)
REMARK    1  A    between atoms: C_1  and  C_2
REMARK    2  A    between atoms: C_6  and  C_7
REMARK    3  A    between atoms: C_7  and  O_8
REMARK    4  A    between atoms: O_8  and  C_9
REMARK    5  A    between atoms: C_12  and  C_13
REMARK    6  A    between atoms: C_13  and  N_14
REMARK    7  A    between atoms: C_15  and  C_17
REMARK                            x       y       z     vdW  Elec       q    Type
REMARK                         _______ _______ _______ _____ _____    ______ ____
ROOT
ATOM      1  C   UNL     1      47.932   7.216  13.685  0.00  0.00    +0.000 C 
ENDROOT
BRANCH   1   5
ATOM      2  C   UNL     1      45.534   4.137  12.119  0.00  0.00    +0.000 A 
ATOM      3  C   UNL     1      46.560   3.850  13.010  0.00  0.00    +0.000 A 
ATOM      4  N   UNL     1      47.349   4.815  13.559  0.00  0.00    +0.000 NA
ATOM      5  C   UNL     1      47.087   6.087  13.155  0.00  0.00    +0.000 A 
ATOM      6  C   UNL     1      46.079   6.354  12.235  0.00  0.00    +0.000 A 
ATOM      7  N   UNL     1      45.278   5.396  11.709  0.00  0.00    +0.000 NA
BRANCH   2   8
ATOM      8  O   UNL     1      44.802   3.099  11.585  0.00  0.00    +0.000 OA
BRANCH   8   9
ATOM      9  C   UNL     1      44.188   3.470  10.341  0.00  0.00    +0.000 C 
BRANCH   9  15
ATOM     10  C   UNL     1      46.699   0.184   7.743  0.00  0.00    +0.000 C 
ATOM     11  C   UNL     1      46.327   1.621   7.945  0.00  0.00    +0.000 A 
ATOM     12  C   UNL     1      46.835   2.611   7.112  0.00  0.00    +0.000 A 
ATOM     13  C   UNL     1      46.462   3.931   7.338  0.00  0.00    +0.000 A 
ATOM     14  C   UNL     1      45.598   4.228   8.387  0.00  0.00    +0.000 A 
ATOM     15  C   UNL     1      45.135   3.189   9.191  0.00  0.00    +0.000 A 
ATOM     16  N   UNL     1      45.485   1.894   8.972  0.00  0.00    +0.000 NA
ENDBRANCH   9  15
ENDBRANCH   8   9
ENDBRANCH   2   8
ENDBRANCH   1   5
BRANCH   1  17
ATOM     17  N   UNL     1      47.986   7.233  15.126  0.00  0.00    +0.000 N 
ATOM     18  C   UNL     1      49.124   6.921  15.825  0.00  0.00    +0.000 C 
ATOM     19  O   UNL     1      50.190   6.668  15.271  0.00  0.00    +0.000 OA
ATOM     20  H   UNL     1      47.088   7.164  15.592  0.00  0.00    +0.000 HD
BRANCH  18  21
ATOM     21  C   UNL     1      49.004   6.987  17.283  0.00  0.00    +0.000 A 
ATOM     22  C   UNL     1      48.907   8.206  17.934  0.00  0.00    +0.000 A 
ATOM     23  S   UNL     1      48.675   8.055  19.620  0.00  0.00    +0.000 S 
ATOM     24  C   UNL     1      48.764   6.356  19.537  0.00  0.00    +0.000 A 
ATOM     25  N   UNL     1      48.649   5.585  20.652  0.00  0.00    +0.000 NA
ATOM     26  C   UNL     1      48.767   4.316  20.437  0.00  0.00    +0.000 A 
ATOM     27  N   UNL     1      48.994   3.748  19.214  0.00  0.00    +0.000 N 
ATOM     28  C   UNL     1      49.093   4.481  18.055  0.00  0.00    +0.000 A 
ATOM     29  O   UNL     1      49.243   3.940  16.968  0.00  0.00    +0.000 OA
ATOM     30  C   UNL     1      48.963   5.914  18.244  0.00  0.00    +0.000 A 
ATOM     31  H   UNL     1      49.072   2.746  19.104  0.00  0.00    +0.000 HD
ENDBRANCH  18  21
ENDBRANCH   1  17
TORSDOF 6
ENDMDL
MODEL 3
REMARK VINA RESULT:    -7.826      2.238      3.011
REMARK INTER + INTRA:         -11.390
REMARK INTER:                 -10.461
REMARK INTRA:                  -0.930
REMARK UNBOUND:                -0.819
REMARK  Name = 
REMARK  7 active torsions:
REMARK  status: ('A' for Active; 'I' for Inactive)
REMARK    1  A    between atoms: C_1  and  C_2
REMARK    2  A    between atoms: C_6  and  C_7
REMARK    3  A    between atoms: C_7  and  O_8
REMARK    4  A    between atoms: O_8  and  C_9
REMARK    5  A    between atoms: C_12  and  C_13
REMARK    6  A    between atoms: C_13  and  N_14
REMARK    7  A    between atoms: C_15  and  C_17
REMARK                            x       y       z     vdW  Elec       q    Type
REMARK                         _______ _______ _______ _____ _____    ______ ____
ROOT
ATOM      1  C   UNL     1      46.975   3.914  14.952  0.00  0.00    +0.000 C 
ENDROOT
BRANCH   1   5
ATOM      2  C   UNL     1      45.298   4.724  11.182  0.00  0.00    +0.000 A 
ATOM      3  C   UNL     1      45.061   3.511  11.815  0.00  0.00    +0.000 A 
ATOM      4  N   UNL     1      45.565   3.211  13.043  0.00  0.00    +0.000 NA
ATOM      5  C   UNL     1      46.347   4.172  13.607  0.00  0.00    +0.000 A 
ATOM      6  C   UNL     1      46.603   5.368  12.945  0.00  0.00    +0.000 A 
ATOM      7  N   UNL     1      46.081   5.675  11.733  0.00  0.00    +0.000 NA
BRANCH   2   8
ATOM      8  O   UNL     1      44.777   4.936   9.924  0.00  0.00    +0.000 OA
BRANCH   8   9
ATOM      9  C   UNL     1      44.341   3.709   9.319  0.00  0.00    +0.000 C 
BRANCH   9  15
ATOM     10  C   UNL     1      46.759  -0.222   7.720  0.00  0.00    +0.000 C 
ATOM     11  C   UNL     1      46.591   1.266   7.674  0.00  0.00    +0.000 A 
ATOM     12  C   UNL     1      47.410   2.050   6.869  0.00  0.00    +0.000 A 
ATOM     13  C   UNL     1      47.217   3.427   6.858  0.00  0.00    +0.000 A 
ATOM     14  C   UNL     1      46.218   3.984   7.652  0.00  0.00    +0.000 A 
ATOM     15  C   UNL     1      45.441   3.142   8.444  0.00  0.00    +0.000 A 
ATOM     16  N   UNL     1      45.615   1.794   8.454  0.00  0.00    +0.000 NA
ENDBRANCH   9  15
ENDBRANCH   8   9
ENDBRANCH   2   8
ENDBRANCH   1   5
BRANCH   1  17
ATOM     17  N   UNL     1      47.457   5.123  15.575  0.00  0.00    +0.000 N 
ATOM     18  C   UNL     1      48.469   5.123  16.501  0.00  0.00    +0.000 C 
ATOM     19  O   UNL     1      49.075   4.103  16.815  0.00  0.00    +0.000 OA
ATOM     20  H   UNL     1      46.814   5.907  15.548  0.00  0.00    +0.000 HD
BRANCH  18  21
ATOM     21  C   UNL     1      48.832   6.437  17.034  0.00  0.00    +0.000 A 
ATOM     22  C   UNL     1      48.625   6.744  18.370  0.00  0.00    +0.000 A 
ATOM     23  S   UNL     1      49.209   8.289  18.806  0.00  0.00    +0.000 S 
ATOM     24  C   UNL     1      49.696   8.619  17.207  0.00  0.00    +0.000 A 
ATOM     25  N   UNL     1      50.278   9.802  16.874  0.00  0.00    +0.000 NA
ATOM     26  C   UNL     1      50.565   9.920  15.619  0.00  0.00    +0.000 A 
ATOM     27  N   UNL     1      50.321   8.967  14.668  0.00  0.00    +0.000 N 
ATOM     28  C   UNL     1      49.758   7.747  14.959  0.00  0.00    +0.000 A 
ATOM     29  O   UNL     1      49.601   6.894  14.095  0.00  0.00    +0.000 OA
ATOM     30  C   UNL     1      49.421   7.565  16.358  0.00  0.00    +0.000 A 
ATOM     31  H   UNL     1      50.573   9.112  13.700  0.00  0.00    +0.000 HD
ENDBRANCH  18  21
ENDBRANCH   1  17
TORSDOF 6
ENDMDL
MODEL 4
REMARK VINA RESULT:    -7.787      1.630      2.211
REMARK INTER + INTRA:         -11.337
REMARK INTER:                 -10.516
REMARK INTRA:                  -0.821
REMARK UNBOUND:                -0.819
REMARK  Name = 
REMARK  7 active torsions:
REMARK  status: ('A' for Active; 'I' for Inactive)
REMARK    1  A    between atoms: C_1  and  C_2
REMARK    2  A    between atoms: C_6  and  C_7
REMARK    3  A    between atoms: C_7  and  O_8
REMARK    4  A    between atoms: O_8  and  C_9
REMARK    5  A    between atoms: C_12  and  C_13
REMARK    6  A    between atoms: C_13  and  N_14
REMARK    7  A    between atoms: C_15  and  C_17
REMARK                            x       y       z     vdW  Elec       q    Type
REMARK                         _______ _______ _______ _____ _____    ______ ____
ROOT
ATOM      1  C   UNL     1      47.704   4.464  15.256  0.00  0.00    +0.000 C 
ENDROOT
BRANCH   1   5
ATOM      2  C   UNL     1      45.232   4.726  11.865  0.00  0.00    +0.000 A 
ATOM      3  C   UNL     1      45.479   3.499  12.466  0.00  0.00    +0.000 A 
ATOM      4  N   UNL     1      46.255   3.367  13.577  0.00  0.00    +0.000 NA
ATOM      5  C   UNL     1      46.804   4.519  14.050  0.00  0.00    +0.000 A 
ATOM      6  C   UNL     1      46.576   5.735  13.415  0.00  0.00    +0.000 A 
ATOM      7  N   UNL     1      45.782   5.869  12.324  0.00  0.00    +0.000 NA
BRANCH   2   8
ATOM      8  O   UNL     1      44.461   4.768  10.724  0.00  0.00    +0.000 OA
BRANCH   8   9
ATOM      9  C   UNL     1      44.217   3.454  10.200  0.00  0.00    +0.000 C 
BRANCH   9  15
ATOM     10  C   UNL     1      46.758   0.124   7.689  0.00  0.00    +0.000 C 
ATOM     11  C   UNL     1      46.394   1.566   7.870  0.00  0.00    +0.000 A 
ATOM     12  C   UNL     1      46.930   2.545   7.041  0.00  0.00    +0.000 A 
ATOM     13  C   UNL     1      46.563   3.870   7.247  0.00  0.00    +0.000 A 
ATOM     14  C   UNL     1      45.678   4.183   8.274  0.00  0.00    +0.000 A 
ATOM     15  C   UNL     1      45.187   3.155   9.075  0.00  0.00    +0.000 A 
ATOM     16  N   UNL     1      45.531   1.855   8.875  0.00  0.00    +0.000 NA
ENDBRANCH   9  15
ENDBRANCH   8   9
ENDBRANCH   2   8
ENDBRANCH   1   5
BRANCH   1  17
ATOM     17  N   UNL     1      47.682   5.690  16.016  0.00  0.00    +0.000 N 
ATOM     18  C   UNL     1      48.819   6.400  16.305  0.00  0.00    +0.000 C 
ATOM     19  O   UNL     1      49.925   6.073  15.884  0.00  0.00    +0.000 OA
ATOM     20  H   UNL     1      46.858   5.826  16.591  0.00  0.00    +0.000 HD
BRANCH  18  21
ATOM     21  C   UNL     1      48.616   7.621  17.087  0.00  0.00    +0.000 A 
ATOM     22  C   UNL     1      48.828   8.869  16.524  0.00  0.00    +0.000 A 
ATOM     23  S   UNL     1      48.440  10.159  17.575  0.00  0.00    +0.000 S 
ATOM     24  C   UNL     1      48.040   9.086  18.836  0.00  0.00    +0.000 A 
ATOM     25  N   UNL     1      47.625   9.541  20.049  0.00  0.00    +0.000 NA
ATOM     26  C   UNL     1      47.387   8.610  20.914  0.00  0.00    +0.000 A 
ATOM     27  N   UNL     1      47.529   7.270  20.681  0.00  0.00    +0.000 N 
ATOM     28  C   UNL     1      47.921   6.760  19.466  0.00  0.00    +0.000 A 
ATOM     29  O   UNL     1      47.987   5.554  19.272  0.00  0.00    +0.000 OA
ATOM     30  C   UNL     1      48.196   7.767  18.458  0.00  0.00    +0.000 A 
ATOM     31  H   UNL     1      47.322   6.586  21.396  0.00  0.00    +0.000 HD
ENDBRANCH  18  21
ENDBRANCH   1  17
TORSDOF 6
ENDMDL
MODEL 5
REMARK VINA RESULT:    -7.383      3.271      4.702
REMARK INTER + INTRA:         -10.792
REMARK INTER:                  -9.657
REMARK INTRA:                  -1.135
REMARK UNBOUND:                -0.819
REMARK  Name = 
REMARK  7 active torsions:
REMARK  status: ('A' for Active; 'I' for Inactive)
REMARK    1  A    between atoms: C_1  and  C_2
REMARK    2  A    between atoms: C_6  and  C_7
REMARK    3  A    between atoms: C_7  and  O_8
REMARK    4  A    between atoms: O_8  and  C_9
REMARK    5  A    between atoms: C_12  and  C_13
REMARK    6  A    between atoms: C_13  and  N_14
REMARK    7  A    between atoms: C_15  and  C_17
REMARK                            x       y       z     vdW  Elec       q    Type
REMARK                         _______ _______ _______ _____ _____    ______ ____
ROOT
ATOM      1  C   UNL     1      47.436   5.375  14.872  0.00  0.00    +0.000 C 
ENDROOT
BRANCH   1   5
ATOM      2  C   UNL     1      45.032   3.651  11.883  0.00  0.00    +0.000 A 
ATOM      3  C   UNL     1      45.024   5.024  12.092  0.00  0.00    +0.000 A 
ATOM      4  N   UNL     1      45.800   5.630  13.032  0.00  0.00    +0.000 NA
ATOM      5  C   UNL     1      46.569   4.796  13.784  0.00  0.00    +0.000 A 
ATOM      6  C   UNL     1      46.540   3.420  13.586  0.00  0.00    +0.000 A 
ATOM      7  N   UNL     1      45.786   2.820  12.632  0.00  0.00    +0.000 NA
BRANCH   2   8
ATOM      8  O   UNL     1      44.193   3.114  10.931  0.00  0.00    +0.000 OA
BRANCH   8   9
ATOM      9  C   UNL     1      44.175   3.906   9.733  0.00  0.00    +0.000 C 
BRANCH   9  15
ATOM     10  C   UNL     1      46.615   0.147   7.791  0.00  0.00    +0.000 C 
ATOM     11  C   UNL     1      46.407   1.630   7.843  0.00  0.00    +0.000 A 
ATOM     12  C   UNL     1      47.166   2.483   7.050  0.00  0.00    +0.000 A 
ATOM     13  C   UNL     1      46.938   3.852   7.132  0.00  0.00    +0.000 A 
ATOM     14  C   UNL     1      45.964   4.333   8.003  0.00  0.00    +0.000 A 
ATOM     15  C   UNL     1      45.247   3.424   8.777  0.00  0.00    +0.000 A 
ATOM     16  N   UNL     1      45.456   2.083   8.697  0.00  0.00    +0.000 NA
ENDBRANCH   9  15
ENDBRANCH   8   9
ENDBRANCH   2   8
ENDBRANCH   1   5
BRANCH   1  17
ATOM     17  N   UNL     1      47.718   6.774  14.664  0.00  0.00    +0.000 N 
ATOM     18  C   UNL     1      48.952   7.322  14.908  0.00  0.00    +0.000 C 
ATOM     19  O   UNL     1      49.916   6.646  15.258  0.00  0.00    +0.000 OA
ATOM     20  H   UNL     1      46.906   7.381  14.649  0.00  0.00    +0.000 HD
BRANCH  18  21
ATOM     21  C   UNL     1      49.065   8.758  14.646  0.00  0.00    +0.000 A 
ATOM     22  C   UNL     1      49.304   9.652  15.677  0.00  0.00    +0.000 A 
ATOM     23  S   UNL     1      49.499  11.263  15.143  0.00  0.00    +0.000 S 
ATOM     24  C   UNL     1      49.204  10.822  13.524  0.00  0.00    +0.000 A 
ATOM     25  N   UNL     1      49.214  11.745  12.526  0.00  0.00    +0.000 NA
ATOM     26  C   UNL     1      48.944  11.267  11.355  0.00  0.00    +0.000 A 
ATOM     27  N   UNL     1      48.661   9.955  11.093  0.00  0.00    +0.000 N 
ATOM     28  C   UNL     1      48.664   8.981  12.063  0.00  0.00    +0.000 A 
ATOM     29  O   UNL     1      48.460   7.806  11.788  0.00  0.00    +0.000 OA
ATOM     30  C   UNL     1      48.966   9.468  13.396  0.00  0.00    +0.000 A 
ATOM     31  H   UNL     1      48.463   9.636  10.154  0.00  0.00    +0.000 HD
ENDBRANCH  18  21
ENDBRANCH   1  17
TORSDOF 6
ENDMDL
MODEL 6
REMARK VINA RESULT:    -7.230      3.324      4.718
REMARK INTER + INTRA:         -10.585
REMARK INTER:                  -9.977
REMARK INTRA:                  -0.608
REMARK UNBOUND:                -0.819
REMARK  Name = 
REMARK  7 active torsions:
REMARK  status: ('A' for Active; 'I' for Inactive)
REMARK    1  A    between atoms: C_1  and  C_2
REMARK    2  A    between atoms: C_6  and  C_7
REMARK    3  A    between atoms: C_7  and  O_8
REMARK    4  A    between atoms: O_8  and  C_9
REMARK    5  A    between atoms: C_12  and  C_13
REMARK    6  A    between atoms: C_13  and  N_14
REMARK    7  A    between atoms: C_15  and  C_17
REMARK                            x       y       z     vdW  Elec       q    Type
REMARK                         _______ _______ _______ _____ _____    ______ ____
ROOT
ATOM      1  C   UNL     1      47.555   4.261  16.712  0.00  0.00    +0.000 C 
ENDROOT
BRANCH   1   5
ATOM      2  C   UNL     1      46.822   5.684  12.823  0.00  0.00    +0.000 A 
ATOM      3  C   UNL     1      46.295   4.469  13.243  0.00  0.00    +0.000 A 
ATOM      4  N   UNL     1      46.488   3.978  14.498  0.00  0.00    +0.000 NA
ATOM      5  C   UNL     1      47.261   4.743  15.315  0.00  0.00    +0.000 A 
ATOM      6  C   UNL     1      47.811   5.940  14.869  0.00  0.00    +0.000 A 
ATOM      7  N   UNL     1      47.598   6.440  13.627  0.00  0.00    +0.000 NA
BRANCH   2   8
ATOM      8  O   UNL     1      46.607   6.094  11.526  0.00  0.00    +0.000 OA
BRANCH   8   9
ATOM      9  C   UNL     1      45.237   5.914  11.134  0.00  0.00    +0.000 C 
BRANCH   9  15
ATOM     10  C   UNL     1      46.530   3.931   6.862  0.00  0.00    +0.000 C 
ATOM     11  C   UNL     1      45.746   3.801   8.132  0.00  0.00    +0.000 A 
ATOM     12  C   UNL     1      44.973   2.673   8.378  0.00  0.00    +0.000 A 
ATOM     13  C   UNL     1      44.262   2.596   9.571  0.00  0.00    +0.000 A 
ATOM     14  C   UNL     1      44.339   3.646  10.482  0.00  0.00    +0.000 A 
ATOM     15  C   UNL     1      45.123   4.753  10.167  0.00  0.00    +0.000 A 
ATOM     16  N   UNL     1      45.830   4.833   9.008  0.00  0.00    +0.000 NA
ENDBRANCH   9  15
ENDBRANCH   8   9
ENDBRANCH   2   8
ENDBRANCH   1   5
BRANCH   1  17
ATOM     17  N   UNL     1      48.965   4.059  16.938  0.00  0.00    +0.000 N 
ATOM     18  C   UNL     1      49.547   4.230  18.169  0.00  0.00    +0.000 C 
ATOM     19  O   UNL     1      48.897   4.507  19.173  0.00  0.00    +0.000 OA
ATOM     20  H   UNL     1      49.546   4.105  16.109  0.00  0.00    +0.000 HD
BRANCH  18  21
ATOM     21  C   UNL     1      50.990   3.985  18.221  0.00  0.00    +0.000 A 
ATOM     22  C   UNL     1      51.862   4.965  18.667  0.00  0.00    +0.000 A 
ATOM     23  S   UNL     1      53.486   4.440  18.743  0.00  0.00    +0.000 S 
ATOM     24  C   UNL     1      53.080   2.908  18.119  0.00  0.00    +0.000 A 
ATOM     25  N   UNL     1      54.025   1.952  17.918  0.00  0.00    +0.000 NA
ATOM     26  C   UNL     1      53.571   0.852  17.412  0.00  0.00    +0.000 A 
ATOM     27  N   UNL     1      52.264   0.623  17.085  0.00  0.00    +0.000 N 
ATOM     28  C   UNL     1      51.268   1.548  17.291  0.00  0.00    +0.000 A 
ATOM     29  O   UNL     1      50.098   1.294  17.037  0.00  0.00    +0.000 OA
ATOM     30  C   UNL     1      51.727   2.800  17.863  0.00  0.00    +0.000 A 
ATOM     31  H   UNL     1      51.965  -0.261  16.696  0.00  0.00    +0.000 HD
ENDBRANCH  18  21
ENDBRANCH   1  17
TORSDOF 6
ENDMDL
MODEL 7
REMARK VINA RESULT:    -7.215      3.661      5.180
REMARK INTER + INTRA:         -10.564
REMARK INTER:                  -9.945
REMARK INTRA:                  -0.619
REMARK UNBOUND:                -0.819
REMARK  Name = 
REMARK  7 active torsions:
REMARK  status: ('A' for Active; 'I' for Inactive)
REMARK    1  A    between atoms: C_1  and  C_2
REMARK    2  A    between atoms: C_6  and  C_7
REMARK    3  A    between atoms: C_7  and  O_8
REMARK    4  A    between atoms: O_8  and  C_9
REMARK    5  A    between atoms: C_12  and  C_13
REMARK    6  A    between atoms: C_13  and  N_14
REMARK    7  A    between atoms: C_15  and  C_17
REMARK                            x       y       z     vdW  Elec       q    Type
REMARK                         _______ _______ _______ _____ _____    ______ ____
ROOT
ATOM      1  C   UNL     1      48.099   3.292  17.759  0.00  0.00    +0.000 C 
ENDROOT
BRANCH   1   5
ATOM      2  C   UNL     1      47.524   5.532  14.247  0.00  0.00    +0.000 A 
ATOM      3  C   UNL     1      46.970   4.264  14.376  0.00  0.00    +0.000 A 
ATOM      4  N   UNL     1      47.112   3.511  15.501  0.00  0.00    +0.000 NA
ATOM      5  C   UNL     1      47.861   4.068  16.490  0.00  0.00    +0.000 A 
ATOM      6  C   UNL     1      48.439   5.323  16.332  0.00  0.00    +0.000 A 
ATOM      7  N   UNL     1      48.276   6.083  15.222  0.00  0.00    +0.000 NA
BRANCH   2   8
ATOM      8  O   UNL     1      47.361   6.216  13.062  0.00  0.00    +0.000 OA
BRANCH   8   9
ATOM      9  C   UNL     1      46.052   6.798  12.964  0.00  0.00    +0.000 C 
BRANCH   9  15
ATOM     10  C   UNL     1      45.549   4.519   8.673  0.00  0.00    +0.000 C 
ATOM     11  C   UNL     1      44.945   4.871   9.998  0.00  0.00    +0.000 A 
ATOM     12  C   UNL     1      43.664   4.445  10.331  0.00  0.00    +0.000 A 
ATOM     13  C   UNL     1      43.144   4.796  11.572  0.00  0.00    +0.000 A 
ATOM     14  C   UNL     1      43.912   5.563  12.443  0.00  0.00    +0.000 A 
ATOM     15  C   UNL     1      45.183   5.967  12.042  0.00  0.00    +0.000 A 
ATOM     16  N   UNL     1      45.704   5.620  10.835  0.00  0.00    +0.000 NA
ENDBRANCH   9  15
ENDBRANCH   8   9
ENDBRANCH   2   8
ENDBRANCH   1   5
BRANCH   1  17
ATOM     17  N   UNL     1      49.496   3.009  17.978  0.00  0.00    +0.000 N 
ATOM     18  C   UNL     1      50.222   2.193  17.148  0.00  0.00    +0.000 C 
ATOM     19  O   UNL     1      49.748   1.699  16.129  0.00  0.00    +0.000 OA
ATOM     20  H   UNL     1      49.825   3.166  18.924  0.00  0.00    +0.000 HD
BRANCH  18  21
ATOM     21  C   UNL     1      51.628   2.011  17.517  0.00  0.00    +0.000 A 
ATOM     22  C   UNL     1      52.154   0.744  17.710  0.00  0.00    +0.000 A 
ATOM     23  S   UNL     1      53.831   0.751  18.036  0.00  0.00    +0.000 S 
ATOM     24  C   UNL     1      53.889   2.453  17.995  0.00  0.00    +0.000 A 
ATOM     25  N   UNL     1      55.050   3.128  18.208  0.00  0.00    +0.000 NA
ATOM     26  C   UNL     1      54.932   4.415  18.176  0.00  0.00    +0.000 A 
ATOM     27  N   UNL     1      53.763   5.088  17.955  0.00  0.00    +0.000 N 
ATOM     28  C   UNL     1      52.569   4.452  17.710  0.00  0.00    +0.000 A 
ATOM     29  O   UNL     1      51.549   5.082  17.463  0.00  0.00    +0.000 OA
ATOM     30  C   UNL     1      52.650   3.004  17.732  0.00  0.00    +0.000 A 
ATOM     31  H   UNL     1      53.732   6.098  17.935  0.00  0.00    +0.000 HD
ENDBRANCH  18  21
ENDBRANCH   1  17
TORSDOF 6
ENDMDL
MODEL 8
REMARK VINA RESULT:    -7.093      3.119      9.152
REMARK INTER + INTRA:         -10.400
REMARK INTER:                  -9.413
REMARK INTRA:                  -0.987
REMARK UNBOUND:                -0.819
REMARK  Name = 
REMARK  7 active torsions:
REMARK  status: ('A' for Active; 'I' for Inactive)
REMARK    1  A    between atoms: C_1  and  C_2
REMARK    2  A    between atoms: C_6  and  C_7
REMARK    3  A    between atoms: C_7  and  O_8
REMARK    4  A    between atoms: O_8  and  C_9
REMARK    5  A    between atoms: C_12  and  C_13
REMARK    6  A    between atoms: C_13  and  N_14
REMARK    7  A    between atoms: C_15  and  C_17
REMARK                            x       y       z     vdW  Elec       q    Type
REMARK                         _______ _______ _______ _____ _____    ______ ____
ROOT
ATOM      1  C   UNL     1      46.834   7.925  12.180  0.00  0.00    +0.000 C 
ENDROOT
BRANCH   1   5
ATOM      2  C   UNL     1      49.539   7.797  15.397  0.00  0.00    +0.000 A 
ATOM      3  C   UNL     1      48.503   8.722  15.381  0.00  0.00    +0.000 A 
ATOM      4  N   UNL     1      47.591   8.788  14.372  0.00  0.00    +0.000 NA
ATOM      5  C   UNL     1      47.776   7.902  13.355  0.00  0.00    +0.000 A 
ATOM      6  C   UNL     1      48.839   7.006  13.369  0.00  0.00    +0.000 A 
ATOM      7  N   UNL     1      49.732   6.925  14.386  0.00  0.00    +0.000 NA
BRANCH   2   8
ATOM      8  O   UNL     1      50.439   7.818  16.440  0.00  0.00    +0.000 OA
BRANCH   8   9
ATOM      9  C   UNL     1      49.863   7.291  17.646  0.00  0.00    +0.000 C 
BRANCH   9  15
ATOM     10  C   UNL     1      47.342   3.112  17.450  0.00  0.00    +0.000 C 
ATOM     11  C   UNL     1      48.682   3.781  17.509  0.00  0.00    +0.000 A 
ATOM     12  C   UNL     1      49.852   3.030  17.528  0.00  0.00    +0.000 A 
ATOM     13  C   UNL     1      51.072   3.694  17.583  0.00  0.00    +0.000 A 
ATOM     14  C   UNL     1      51.093   5.085  17.621  0.00  0.00    +0.000 A 
ATOM     15  C   UNL     1      49.883   5.776  17.611  0.00  0.00    +0.000 A 
ATOM     16  N   UNL     1      48.685   5.136  17.546  0.00  0.00    +0.000 NA
ENDBRANCH   9  15
ENDBRANCH   8   9
ENDBRANCH   2   8
ENDBRANCH   1   5
BRANCH   1  17
ATOM     17  N   UNL     1      46.288   6.622  11.887  0.00  0.00    +0.000 N 
ATOM     18  C   UNL     1      44.973   6.433  11.547  0.00  0.00    +0.000 C 
ATOM     19  O   UNL     1      44.187   7.366  11.407  0.00  0.00    +0.000 OA
ATOM     20  H   UNL     1      46.818   5.840  12.254  0.00  0.00    +0.000 HD
BRANCH  18  21
ATOM     21  C   UNL     1      44.585   5.046  11.284  0.00  0.00    +0.000 A 
ATOM     22  C   UNL     1      43.833   4.331  12.204  0.00  0.00    +0.000 A 
ATOM     23  S   UNL     1      43.407   2.769  11.659  0.00  0.00    +0.000 S 
ATOM     24  C   UNL     1      44.271   2.978  10.206  0.00  0.00    +0.000 A 
ATOM     25  N   UNL     1      44.327   1.995   9.268  0.00  0.00    +0.000 NA
ATOM     26  C   UNL     1      45.044   2.287   8.232  0.00  0.00    +0.000 A 
ATOM     27  N   UNL     1      45.712   3.466   8.051  0.00  0.00    +0.000 N 
ATOM     28  C   UNL     1      45.666   4.498   8.958  0.00  0.00    +0.000 A 
ATOM     29  O   UNL     1      46.232   5.562   8.743  0.00  0.00    +0.000 OA
ATOM     30  C   UNL     1      44.869   4.221  10.138  0.00  0.00    +0.000 A 
ATOM     31  H   UNL     1      46.254   3.642   7.216  0.00  0.00    +0.000 HD
ENDBRANCH  18  21
ENDBRANCH   1  17
TORSDOF 6
ENDMDL
MODEL 9
REMARK VINA RESULT:    -6.769      4.020      5.898
REMARK INTER + INTRA:          -9.962
REMARK INTER:                  -8.969
REMARK INTRA:                  -0.993
REMARK UNBOUND:                -0.819
REMARK  Name = 
REMARK  7 active torsions:
REMARK  status: ('A' for Active; 'I' for Inactive)
REMARK    1  A    between atoms: C_1  and  C_2
REMARK    2  A    between atoms: C_6  and  C_7
REMARK    3  A    between atoms: C_7  and  O_8
REMARK    4  A    between atoms: O_8  and  C_9
REMARK    5  A    between atoms: C_12  and  C_13
REMARK    6  A    between atoms: C_13  and  N_14
REMARK    7  A    between atoms: C_15  and  C_17
REMARK                            x       y       z     vdW  Elec       q    Type
REMARK                         _______ _______ _______ _____ _____    ______ ____
ROOT
ATOM      1  C   UNL     1      49.347   4.891  19.247  0.00  0.00    +0.000 C 
ENDROOT
BRANCH   1   5
ATOM      2  C   UNL     1      47.333   4.294  15.604  0.00  0.00    +0.000 A 
ATOM      3  C   UNL     1      47.167   3.404  16.658  0.00  0.00    +0.000 A 
ATOM      4  N   UNL     1      47.781   3.567  17.862  0.00  0.00    +0.000 NA
ATOM      5  C   UNL     1      48.600   4.649  17.962  0.00  0.00    +0.000 A 
ATOM      6  C   UNL     1      48.783   5.511  16.886  0.00  0.00    +0.000 A 
ATOM      7  N   UNL     1      48.151   5.363  15.696  0.00  0.00    +0.000 NA
BRANCH   2   8
ATOM      8  O   UNL     1      46.700   4.039  14.407  0.00  0.00    +0.000 OA
BRANCH   8   9
ATOM      9  C   UNL     1      46.252   5.250  13.778  0.00  0.00    +0.000 C 
BRANCH   9  15
ATOM     10  C   UNL     1      44.857   2.811   9.782  0.00  0.00    +0.000 C 
ATOM     11  C   UNL     1      44.489   3.769  10.874  0.00  0.00    +0.000 A 
ATOM     12  C   UNL     1      43.214   4.320  10.936  0.00  0.00    +0.000 A 
ATOM     13  C   UNL     1      42.917   5.204  11.967  0.00  0.00    +0.000 A 
ATOM     14  C   UNL     1      43.898   5.517  12.904  0.00  0.00    +0.000 A 
ATOM     15  C   UNL     1      45.158   4.939  12.776  0.00  0.00    +0.000 A 
ATOM     16  N   UNL     1      45.455   4.065  11.777  0.00  0.00    +0.000 NA
ENDBRANCH   9  15
ENDBRANCH   8   9
ENDBRANCH   2   8
ENDBRANCH   1   5
BRANCH   1  17
ATOM     17  N   UNL     1      50.572   4.133  19.322  0.00  0.00    +0.000 N 
ATOM     18  C   UNL     1      51.779   4.639  18.913  0.00  0.00    +0.000 C 
ATOM     19  O   UNL     1      51.909   5.793  18.514  0.00  0.00    +0.000 OA
ATOM     20  H   UNL     1      50.454   3.127  19.378  0.00  0.00    +0.000 HD
BRANCH  18  21
ATOM     21  C   UNL     1      52.922   3.735  19.056  0.00  0.00    +0.000 A 
ATOM     22  C   UNL     1      54.051   4.122  19.759  0.00  0.00    +0.000 A 
ATOM     23  S   UNL     1      55.222   2.886  19.891  0.00  0.00    +0.000 S 
ATOM     24  C   UNL     1      54.282   1.817  18.956  0.00  0.00    +0.000 A 
ATOM     25  N   UNL     1      54.712   0.559  18.671  0.00  0.00    +0.000 NA
ATOM     26  C   UNL     1      53.905  -0.124  17.927  0.00  0.00    +0.000 A 
ATOM     27  N   UNL     1      52.713   0.335  17.438  0.00  0.00    +0.000 N 
ATOM     28  C   UNL     1      52.224   1.590  17.718  0.00  0.00    +0.000 A 
ATOM     29  O   UNL     1      51.129   1.953  17.310  0.00  0.00    +0.000 OA
ATOM     30  C   UNL     1      53.093   2.395  18.555  0.00  0.00    +0.000 A 
ATOM     31  H   UNL     1      52.119  -0.247  16.864  0.00  0.00    +0.000 HD
ENDBRANCH  18  21
ENDBRANCH   1  17
TORSDOF 6
ENDMDL
