MODEL 1
REMARK VINA RESULT:    -7.945      0.000      0.000
REMARK INTER + INTRA:         -11.840
REMARK INTER:                 -11.196
REMARK INTRA:                  -0.643
REMARK UNBOUND:                -0.643
REMARK  Name = 
REMARK  7 active torsions:
REMARK  status: ('A' for Active; 'I' for Inactive)
REMARK    1  A    between atoms: C_2  and  C_11
REMARK    2  A    between atoms: N_3  and  C_4
REMARK    3  A    between atoms: C_4  and  C_5
REMARK    4  A    between atoms: C_14  and  C_15
REMARK    5  A    between atoms: C_15  and  O_16
REMARK    6  A    between atoms: O_16  and  C_17
REMARK    7  A    between atoms: C_17  and  C_18
REMARK                            x       y       z     vdW  Elec       q    Type
REMARK                         _______ _______ _______ _____ _____    ______ ____
ROOT
ATOM      1  C   UNL     1      46.573   5.336  13.541  0.00  0.00    +0.000 A 
ATOM      2  C   UNL     1      46.493   6.231  12.469  0.00  0.00    +0.000 A 
ATOM      3  C   UNL     1      45.562   6.023  11.449  0.00  0.00    +0.000 A 
ATOM      4  C   UNL     1      44.687   4.927  11.495  0.00  0.00    +0.000 A 
ATOM      5  C   UNL     1      44.756   4.052  12.589  0.00  0.00    +0.000 A 
ATOM      6  C   UNL     1      45.688   4.255  13.610  0.00  0.00    +0.000 A 
ENDROOT
BRANCH   1   8
ATOM      7  O   UNL     1      48.638   6.153  14.319  0.00  0.00    +0.000 OA
ATOM      8  C   UNL     1      47.592   5.571  14.594  0.00  0.00    +0.000 C 
ATOM      9  N   UNL     1      47.299   5.079  15.846  0.00  0.00    +0.000 N 
ATOM     10  H   UNL     1      46.564   4.390  15.938  0.00  0.00    +0.000 HD
BRANCH   9  11
ATOM     11  C   UNL     1      48.262   5.185  16.919  0.00  0.00    +0.000 C 
BRANCH  11  12
ATOM     12  C   UNL     1      49.136   3.969  16.997  0.00  0.00    +0.000 A 
ATOM     13  C   UNL     1      50.362   3.995  17.670  0.00  0.00    +0.000 A 
ATOM     14  C   UNL     1      51.165   2.859  17.693  0.00  0.00    +0.000 A 
ATOM     15  C   UNL     1      50.714   1.725  17.036  0.00  0.00    +0.000 A 
ATOM     16  N   UNL     1      49.540   1.661  16.373  0.00  0.00    +0.000 NA
ATOM     17  C   UNL     1      48.782   2.782  16.365  0.00  0.00    +0.000 A 
ENDBRANCH  11  12
ENDBRANCH   9  11
ENDBRANCH   1   8
BRANCH   4  18
ATOM     18  C   UNL     1      43.651   4.713  10.417  0.00  0.00    +0.000 C 
BRANCH  18  19
ATOM     19  O   UNL     1      44.275   4.273   9.217  0.00  0.00    +0.000 OA
BRANCH  19  20
ATOM     20  C   UNL     1      44.453   2.850   9.223  0.00  0.00    +0.000 C 
BRANCH  20  21
ATOM     21  C   UNL     1      45.633   2.439   8.368  0.00  0.00    +0.000 A 
ATOM     22  N   UNL     1      45.986   1.135   8.367  0.00  0.00    +0.000 NA
ATOM     23  C   UNL     1      47.039   0.800   7.598  0.00  0.00    +0.000 A 
ATOM     24  C   UNL     1      47.737   1.699   6.830  0.00  0.00    +0.000 A 
ATOM     25  C   UNL     1      47.294   2.998   6.891  0.00  0.00    +0.000 A 
ATOM     26  N   UNL     1      46.249   3.396   7.641  0.00  0.00    +0.000 NA
ENDBRANCH  20  21
ENDBRANCH  19  20
ENDBRANCH  18  19
ENDBRANCH   4  18
TORSDOF 7
ENDMDL
MODEL 2
REMARK VINA RESULT:    -7.674      1.510      8.427
REMARK INTER + INTRA:         -11.458
REMARK INTER:                 -10.639
REMARK INTRA:                  -0.818
REMARK UNBOUND:                -0.643
REMARK  Name = 
REMARK  7 active torsions:
REMARK  status: ('A' for Active; 'I' for Inactive)
REMARK    1  A    between atoms: C_2  and  C_11
REMARK    2  A    between atoms: N_3  and  C_4
REMARK    3  A    between atoms: C_4  and  C_5
REMARK    4  A    between atoms: C_14  and  C_15
REMARK    5  A    between atoms: C_15  and  O_16
REMARK    6  A    between atoms: O_16  and  C_17
REMARK    7  A    between atoms: C_17  and  C_18
REMARK                            x       y       z     vdW  Elec       q    Type
REMARK                         _______ _______ _______ _____ _____    ______ ____
ROOT
ATOM      1  C   UNL     1      46.122   5.436  11.944  0.00  0.00    +0.000 A 
ATOM      2  C   UNL     1      46.431   4.842  13.172  0.00  0.00    +0.000 A 
ATOM      3  C   UNL     1      47.252   5.508  14.086  0.00  0.00    +0.000 A 
ATOM      4  C   UNL     1      47.760   6.783  13.791  0.00  0.00    +0.000 A 
ATOM      5  C   UNL     1      47.419   7.380  12.569  0.00  0.00    +0.000 A 
ATOM      6  C   UNL     1      46.600   6.716  11.651  0.00  0.00    +0.000 A 
ENDROOT
BRANCH   1   8
ATOM      7  O   UNL     1      44.467   3.854  11.395  0.00  0.00    +0.000 OA
ATOM      8  C   UNL     1      45.269   4.689  10.986  0.00  0.00    +0.000 C 
ATOM      9  N   UNL     1      45.462   4.971   9.651  0.00  0.00    +0.000 N 
ATOM     10  H   UNL     1      46.305   5.456   9.374  0.00  0.00    +0.000 HD
BRANCH   9  11
ATOM     11  C   UNL     1      44.739   4.239   8.635  0.00  0.00    +0.000 C 
BRANCH  11  12
ATOM     12  C   UNL     1      45.579   3.150   8.039  0.00  0.00    +0.000 A 
ATOM     13  C   UNL     1      46.290   3.345   6.850  0.00  0.00    +0.000 A 
ATOM     14  C   UNL     1      47.032   2.302   6.305  0.00  0.00    +0.000 A 
ATOM     15  C   UNL     1      47.038   1.087   6.971  0.00  0.00    +0.000 A 
ATOM     16  N   UNL     1      46.364   0.857   8.117  0.00  0.00    +0.000 NA
ATOM     17  C   UNL     1      45.648   1.889   8.621  0.00  0.00    +0.000 A 
ENDBRANCH  11  12
ENDBRANCH   9  11
ENDBRANCH   1   8
BRANCH   4  18
ATOM     18  C   UNL     1      48.617   7.527  14.786  0.00  0.00    +0.000 C 
BRANCH  18  19
ATOM     19  O   UNL     1      49.775   6.766  15.104  0.00  0.00    +0.000 OA
BRANCH  19  20
ATOM     20  C   UNL     1      49.954   6.673  16.525  0.00  0.00    +0.000 C 
BRANCH  20  21
ATOM     21  C   UNL     1      49.321   5.414  17.078  0.00  0.00    +0.000 A 
ATOM     22  N   UNL     1      48.095   5.519  17.634  0.00  0.00    +0.000 NA
ATOM     23  C   UNL     1      47.557   4.383  18.119  0.00  0.00    +0.000 A 
ATOM     24  C   UNL     1      48.181   3.161  18.060  0.00  0.00    +0.000 A 
ATOM     25  C   UNL     1      49.420   3.157  17.466  0.00  0.00    +0.000 A 
ATOM     26  N   UNL     1      50.011   4.259  16.965  0.00  0.00    +0.000 NA
ENDBRANCH  20  21
ENDBRANCH  19  20
ENDBRANCH  18  19
ENDBRANCH   4  18
TORSDOF 7
ENDMDL
MODEL 3
REMARK VINA RESULT:    -7.668      1.196      1.780
REMARK INTER + INTRA:         -11.450
REMARK INTER:                 -10.593
REMARK INTRA:                  -0.856
REMARK UNBOUND:                -0.643
REMARK  Name = 
REMARK  7 active torsions:
REMARK  status: ('A' for Active; 'I' for Inactive)
REMARK    1  A    between atoms: C_2  and  C_11
REMARK    2  A    between atoms: N_3  and  C_4
REMARK    3  A    between atoms: C_4  and  C_5
REMARK    4  A    between atoms: C_14  and  C_15
REMARK    5  A    between atoms: C_15  and  O_16
REMARK    6  A    between atoms: O_16  and  C_17
REMARK    7  A    between atoms: C_17  and  C_18
REMARK                            x       y       z     vdW  Elec       q    Type
REMARK                         _______ _______ _______ _____ _____    ______ ____
ROOT
ATOM      1  C   UNL     1      46.962   5.990  12.991  0.00  0.00    +0.000 A 
ATOM      2  C   UNL     1      46.105   5.016  13.514  0.00  0.00    +0.000 A 
ATOM      3  C   UNL     1      44.999   4.585  12.776  0.00  0.00    +0.000 A 
ATOM      4  C   UNL     1      44.746   5.110  11.499  0.00  0.00    +0.000 A 
ATOM      5  C   UNL     1      45.628   6.065  10.973  0.00  0.00    +0.000 A 
ATOM      6  C   UNL     1      46.734   6.500  11.709  0.00  0.00    +0.000 A 
ENDROOT
BRANCH   1   8
ATOM      7  O   UNL     1      49.208   6.628  13.289  0.00  0.00    +0.000 OA
ATOM      8  C   UNL     1      48.111   6.445  13.812  0.00  0.00    +0.000 C 
ATOM      9  N   UNL     1      47.872   6.607  15.159  0.00  0.00    +0.000 N 
ATOM     10  H   UNL     1      47.043   6.188  15.559  0.00  0.00    +0.000 HD
BRANCH   9  11
ATOM     11  C   UNL     1      48.946   6.968  16.056  0.00  0.00    +0.000 C 
BRANCH  11  12
ATOM     12  C   UNL     1      49.572   5.757  16.681  0.00  0.00    +0.000 A 
ATOM     13  C   UNL     1      48.810   4.632  17.014  0.00  0.00    +0.000 A 
ATOM     14  C   UNL     1      49.417   3.539  17.625  0.00  0.00    +0.000 A 
ATOM     15  C   UNL     1      50.776   3.606  17.886  0.00  0.00    +0.000 A 
ATOM     16  N   UNL     1      51.545   4.673  17.582  0.00  0.00    +0.000 NA
ATOM     17  C   UNL     1      50.927   5.723  16.993  0.00  0.00    +0.000 A 
ENDBRANCH  11  12
ENDBRANCH   9  11
ENDBRANCH   1   8
BRANCH   4  18
ATOM     18  C   UNL     1      43.576   4.624  10.678  0.00  0.00    +0.000 C 
BRANCH  18  19
ATOM     19  O   UNL     1      44.022   4.171   9.406  0.00  0.00    +0.000 OA
BRANCH  19  20
ATOM     20  C   UNL     1      44.416   2.792   9.463  0.00  0.00    +0.000 C 
BRANCH  20  21
ATOM     21  C   UNL     1      45.525   2.496   8.476  0.00  0.00    +0.000 A 
ATOM     22  N   UNL     1      45.996   1.231   8.419  0.00  0.00    +0.000 NA
ATOM     23  C   UNL     1      46.983   0.998   7.532  0.00  0.00    +0.000 A 
ATOM     24  C   UNL     1      47.502   1.961   6.702  0.00  0.00    +0.000 A 
ATOM     25  C   UNL     1      46.950   3.213   6.829  0.00  0.00    +0.000 A 
ATOM     26  N   UNL     1      45.964   3.508   7.697  0.00  0.00    +0.000 NA
ENDBRANCH  20  21
ENDBRANCH  19  20
ENDBRANCH  18  19
ENDBRANCH   4  18
TORSDOF 7
ENDMDL
MODEL 4
REMARK VINA RESULT:    -7.529      1.408      2.144
REMARK INTER + INTRA:         -11.253
REMARK INTER:                 -10.553
REMARK INTRA:                  -0.700
REMARK UNBOUND:                -0.643
REMARK  Name = 
REMARK  7 active torsions:
REMARK  status: ('A' for Active; 'I' for Inactive)
REMARK    1  A    between atoms: C_2  and  C_11
REMARK    2  A    between atoms: N_3  and  C_4
REMARK    3  A    between atoms: C_4  and  C_5
REMARK    4  A    between atoms: C_14  and  C_15
REMARK    5  A    between atoms: C_15  and  O_16
REMARK    6  A    between atoms: O_16  and  C_17
REMARK    7  A    between atoms: C_17  and  C_18
REMARK                            x       y       z     vdW  Elec       q    Type
REMARK                         _______ _______ _______ _____ _____    ______ ____
ROOT
ATOM      1  C   UNL     1      46.973   5.887  13.011  0.00  0.00    +0.000 A 
ATOM      2  C   UNL     1      46.782   6.484  11.761  0.00  0.00    +0.000 A 
ATOM      3  C   UNL     1      45.721   6.083  10.946  0.00  0.00    +0.000 A 
ATOM      4  C   UNL     1      44.827   5.092  11.377  0.00  0.00    +0.000 A 
ATOM      5  C   UNL     1      45.010   4.520  12.645  0.00  0.00    +0.000 A 
ATOM      6  C   UNL     1      46.072   4.917  13.462  0.00  0.00    +0.000 A 
ENDROOT
BRANCH   1   8
ATOM      7  O   UNL     1      49.194   6.609  13.307  0.00  0.00    +0.000 OA
ATOM      8  C   UNL     1      48.126   6.318  13.840  0.00  0.00    +0.000 C 
ATOM      9  N   UNL     1      47.925   6.334  15.203  0.00  0.00    +0.000 N 
ATOM     10  H   UNL     1      47.131   5.835  15.583  0.00  0.00    +0.000 HD
BRANCH   9  11
ATOM     11  C   UNL     1      49.010   6.660  16.100  0.00  0.00    +0.000 C 
BRANCH  11  12
ATOM     12  C   UNL     1      48.849   5.982  17.428  0.00  0.00    +0.000 A 
ATOM     13  C   UNL     1      48.002   6.500  18.413  0.00  0.00    +0.000 A 
ATOM     14  C   UNL     1      47.903   5.865  19.647  0.00  0.00    +0.000 A 
ATOM     15  C   UNL     1      48.661   4.725  19.859  0.00  0.00    +0.000 A 
ATOM     16  N   UNL     1      49.491   4.196  18.937  0.00  0.00    +0.000 NA
ATOM     17  C   UNL     1      49.570   4.837  17.747  0.00  0.00    +0.000 A 
ENDBRANCH  11  12
ENDBRANCH   9  11
ENDBRANCH   1   8
BRANCH   4  18
ATOM     18  C   UNL     1      43.654   4.677  10.521  0.00  0.00    +0.000 C 
BRANCH  18  19
ATOM     19  O   UNL     1      44.112   4.180   9.269  0.00  0.00    +0.000 OA
BRANCH  19  20
ATOM     20  C   UNL     1      44.455   2.790   9.364  0.00  0.00    +0.000 C 
BRANCH  20  21
ATOM     21  C   UNL     1      45.593   2.439   8.429  0.00  0.00    +0.000 A 
ATOM     22  N   UNL     1      46.142   3.438   7.704  0.00  0.00    +0.000 NA
ATOM     23  C   UNL     1      47.151   3.097   6.881  0.00  0.00    +0.000 A 
ATOM     24  C   UNL     1      47.638   1.818   6.763  0.00  0.00    +0.000 A 
ATOM     25  C   UNL     1      47.020   0.875   7.550  0.00  0.00    +0.000 A 
ATOM     26  N   UNL     1      46.006   1.154   8.391  0.00  0.00    +0.000 NA
ENDBRANCH  20  21
ENDBRANCH  19  20
ENDBRANCH  18  19
ENDBRANCH   4  18
TORSDOF 7
ENDMDL
MODEL 5
REMARK VINA RESULT:    -7.119      3.681      4.945
REMARK INTER + INTRA:         -10.676
REMARK INTER:                  -9.796
REMARK INTRA:                  -0.880
REMARK UNBOUND:                -0.643
REMARK  Name = 
REMARK  7 active torsions:
REMARK  status: ('A' for Active; 'I' for Inactive)
REMARK    1  A    between atoms: C_2  and  C_11
REMARK    2  A    between atoms: N_3  and  C_4
REMARK    3  A    between atoms: C_4  and  C_5
REMARK    4  A    between atoms: C_14  and  C_15
REMARK    5  A    between atoms: C_15  and  O_16
REMARK    6  A    between atoms: O_16  and  C_17
REMARK    7  A    between atoms: C_17  and  C_18
REMARK                            x       y       z     vdW  Elec       q    Type
REMARK                         _______ _______ _______ _____ _____    ______ ____
ROOT
ATOM      1  C   UNL     1      47.200   6.066  12.535  0.00  0.00    +0.000 A 
ATOM      2  C   UNL     1      46.720   5.026  13.337  0.00  0.00    +0.000 A 
ATOM      3  C   UNL     1      45.557   4.341  12.975  0.00  0.00    +0.000 A 
ATOM      4  C   UNL     1      44.870   4.675  11.799  0.00  0.00    +0.000 A 
ATOM      5  C   UNL     1      45.376   5.701  10.988  0.00  0.00    +0.000 A 
ATOM      6  C   UNL     1      46.538   6.390  11.347  0.00  0.00    +0.000 A 
ENDROOT
BRANCH   1   8
ATOM      7  O   UNL     1      48.963   6.512  14.030  0.00  0.00    +0.000 OA
ATOM      8  C   UNL     1      48.423   6.791  12.963  0.00  0.00    +0.000 C 
ATOM      9  N   UNL     1      48.870   7.783  12.119  0.00  0.00    +0.000 N 
ATOM     10  H   UNL     1      48.241   8.137  11.410  0.00  0.00    +0.000 HD
BRANCH   9  11
ATOM     11  C   UNL     1      50.004   8.601  12.485  0.00  0.00    +0.000 C 
BRANCH  11  12
ATOM     12  C   UNL     1      51.047   8.610  11.407  0.00  0.00    +0.000 A 
ATOM     13  C   UNL     1      51.370   7.450  10.696  0.00  0.00    +0.000 A 
ATOM     14  C   UNL     1      52.368   7.485   9.726  0.00  0.00    +0.000 A 
ATOM     15  C   UNL     1      53.016   8.688   9.499  0.00  0.00    +0.000 A 
ATOM     16  N   UNL     1      52.736   9.828  10.165  0.00  0.00    +0.000 NA
ATOM     17  C   UNL     1      51.764   9.762  11.105  0.00  0.00    +0.000 A 
ENDBRANCH  11  12
ENDBRANCH   9  11
ENDBRANCH   1   8
BRANCH   4  18
ATOM     18  C   UNL     1      43.633   3.917  11.380  0.00  0.00    +0.000 C 
BRANCH  18  19
ATOM     19  O   UNL     1      43.700   3.594   9.996  0.00  0.00    +0.000 OA
BRANCH  19  20
ATOM     20  C   UNL     1      44.332   2.322   9.797  0.00  0.00    +0.000 C 
BRANCH  20  21
ATOM     21  C   UNL     1      45.366   2.388   8.692  0.00  0.00    +0.000 A 
ATOM     22  N   UNL     1      46.065   1.266   8.416  0.00  0.00    +0.000 NA
ATOM     23  C   UNL     1      46.977   1.355   7.430  0.00  0.00    +0.000 A 
ATOM     24  C   UNL     1      47.208   2.501   6.708  0.00  0.00    +0.000 A 
ATOM     25  C   UNL     1      46.439   3.585   7.058  0.00  0.00    +0.000 A 
ATOM     26  N   UNL     1      45.513   3.559   8.035  0.00  0.00    +0.000 NA
ENDBRANCH  20  21
ENDBRANCH  19  20
ENDBRANCH  18  19
ENDBRANCH   4  18
TORSDOF 7
ENDMDL
MODEL 6
REMARK VINA RESULT:    -6.778      1.658      8.666
REMARK INTER + INTRA:         -10.195
REMARK INTER:                  -9.612
REMARK INTRA:                  -0.583
REMARK UNBOUND:                -0.643
REMARK  Name = 
REMARK  7 active torsions:
REMARK  status: ('A' for Active; 'I' for Inactive)
REMARK    1  A    between atoms: C_2  and  C_11
REMARK    2  A    between atoms: N_3  and  C_4
REMARK    3  A    between atoms: C_4  and  C_5
REMARK    4  A    between atoms: C_14  and  C_15
REMARK    5  A    between atoms: C_15  and  O_16
REMARK    6  A    between atoms: O_16  and  C_17
REMARK    7  A    between atoms: C_17  and  C_18
REMARK                            x       y       z     vdW  Elec       q    Type
REMARK                         _______ _______ _______ _____ _____    ______ ____
ROOT
ATOM      1  C   UNL     1      46.253   5.218  12.766  0.00  0.00    +0.000 A 
ATOM      2  C   UNL     1      46.376   4.257  13.774  0.00  0.00    +0.000 A 
ATOM      3  C   UNL     1      47.157   4.520  14.903  0.00  0.00    +0.000 A 
ATOM      4  C   UNL     1      47.810   5.753  15.046  0.00  0.00    +0.000 A 
ATOM      5  C   UNL     1      47.656   6.721  14.042  0.00  0.00    +0.000 A 
ATOM      6  C   UNL     1      46.877   6.461  12.911  0.00  0.00    +0.000 A 
ENDROOT
BRANCH   1   8
ATOM      7  O   UNL     1      44.905   5.797  10.925  0.00  0.00    +0.000 OA
ATOM      8  C   UNL     1      45.438   4.896  11.568  0.00  0.00    +0.000 C 
ATOM      9  N   UNL     1      45.303   3.559  11.264  0.00  0.00    +0.000 N 
ATOM     10  H   UNL     1      45.534   2.875  11.971  0.00  0.00    +0.000 HD
BRANCH   9  11
ATOM     11  C   UNL     1      44.463   3.139  10.166  0.00  0.00    +0.000 C 
BRANCH  11  12
ATOM     12  C   UNL     1      45.260   2.921   8.914  0.00  0.00    +0.000 A 
ATOM     13  C   UNL     1      45.828   1.677   8.618  0.00  0.00    +0.000 A 
ATOM     14  C   UNL     1      46.591   1.520   7.466  0.00  0.00    +0.000 A 
ATOM     15  C   UNL     1      46.765   2.619   6.641  0.00  0.00    +0.000 A 
ATOM     16  N   UNL     1      46.238   3.835   6.893  0.00  0.00    +0.000 NA
ATOM     17  C   UNL     1      45.503   3.960   8.022  0.00  0.00    +0.000 A 
ENDBRANCH  11  12
ENDBRANCH   9  11
ENDBRANCH   1   8
BRANCH   4  18
ATOM     18  C   UNL     1      48.626   6.062  16.278  0.00  0.00    +0.000 C 
BRANCH  18  19
ATOM     19  O   UNL     1      49.719   5.159  16.383  0.00  0.00    +0.000 OA
BRANCH  19  20
ATOM     20  C   UNL     1      49.741   4.527  17.671  0.00  0.00    +0.000 C 
BRANCH  20  21
ATOM     21  C   UNL     1      50.819   3.467  17.745  0.00  0.00    +0.000 A 
ATOM     22  N   UNL     1      52.016   3.821  18.263  0.00  0.00    +0.000 NA
ATOM     23  C   UNL     1      52.955   2.857  18.315  0.00  0.00    +0.000 A 
ATOM     24  C   UNL     1      52.747   1.568  17.889  0.00  0.00    +0.000 A 
ATOM     25  C   UNL     1      51.494   1.305  17.389  0.00  0.00    +0.000 A 
ATOM     26  N   UNL     1      50.515   2.225  17.309  0.00  0.00    +0.000 NA
ENDBRANCH  20  21
ENDBRANCH  19  20
ENDBRANCH  18  19
ENDBRANCH   4  18
TORSDOF 7
ENDMDL
MODEL 7
REMARK VINA RESULT:    -6.710      3.832      8.304
REMARK INTER + INTRA:         -10.099
REMARK INTER:                  -9.300
REMARK INTRA:                  -0.799
REMARK UNBOUND:                -0.643
REMARK  Name = 
REMARK  7 active torsions:
REMARK  status: ('A' for Active; 'I' for Inactive)
REMARK    1  A    between atoms: C_2  and  C_11
REMARK    2  A    between atoms: N_3  and  C_4
REMARK    3  A    between atoms: C_4  and  C_5
REMARK    4  A    between atoms: C_14  and  C_15
REMARK    5  A    between atoms: C_15  and  O_16
REMARK    6  A    between atoms: O_16  and  C_17
REMARK    7  A    between atoms: C_17  and  C_18
REMARK                            x       y       z     vdW  Elec       q    Type
REMARK                         _______ _______ _______ _____ _____    ______ ____
ROOT
ATOM      1  C   UNL     1      45.651   6.136  11.775  0.00  0.00    +0.000 A 
ATOM      2  C   UNL     1      46.813   5.695  12.417  0.00  0.00    +0.000 A 
ATOM      3  C   UNL     1      47.562   6.580  13.196  0.00  0.00    +0.000 A 
ATOM      4  C   UNL     1      47.150   7.912  13.358  0.00  0.00    +0.000 A 
ATOM      5  C   UNL     1      45.968   8.335  12.733  0.00  0.00    +0.000 A 
ATOM      6  C   UNL     1      45.217   7.453  11.950  0.00  0.00    +0.000 A 
ENDROOT
BRANCH   1   8
ATOM      7  O   UNL     1      44.059   4.434  11.443  0.00  0.00    +0.000 OA
ATOM      8  C   UNL     1      44.893   5.177  10.933  0.00  0.00    +0.000 C 
ATOM      9  N   UNL     1      45.208   5.162   9.592  0.00  0.00    +0.000 N 
ATOM     10  H   UNL     1      46.072   5.594   9.291  0.00  0.00    +0.000 HD
BRANCH   9  11
ATOM     11  C   UNL     1      44.585   4.208   8.703  0.00  0.00    +0.000 C 
BRANCH  11  12
ATOM     12  C   UNL     1      45.577   3.211   8.182  0.00  0.00    +0.000 A 
ATOM     13  C   UNL     1      46.535   3.567   7.226  0.00  0.00    +0.000 A 
ATOM     14  C   UNL     1      47.418   2.609   6.738  0.00  0.00    +0.000 A 
ATOM     15  C   UNL     1      47.313   1.315   7.223  0.00  0.00    +0.000 A 
ATOM     16  N   UNL     1      46.401   0.932   8.142  0.00  0.00    +0.000 NA
ATOM     17  C   UNL     1      45.553   1.884   8.596  0.00  0.00    +0.000 A 
ENDBRANCH  11  12
ENDBRANCH   9  11
ENDBRANCH   1   8
BRANCH   4  18
ATOM     18  C   UNL     1      47.932   8.866  14.228  0.00  0.00    +0.000 C 
BRANCH  18  19
ATOM     19  O   UNL     1      48.919   9.540  13.456  0.00  0.00    +0.000 OA
BRANCH  19  20
ATOM     20  C   UNL     1      48.668  10.952  13.423  0.00  0.00    +0.000 C 
BRANCH  20  21
ATOM     21  C   UNL     1      48.242  11.403  12.042  0.00  0.00    +0.000 A 
ATOM     22  N   UNL     1      49.154  11.335  11.048  0.00  0.00    +0.000 NA
ATOM     23  C   UNL     1      48.747  11.743   9.832  0.00  0.00    +0.000 A 
ATOM     24  C   UNL     1      47.479  12.199   9.568  0.00  0.00    +0.000 A 
ATOM     25  C   UNL     1      46.622  12.221  10.642  0.00  0.00    +0.000 A 
ATOM     26  N   UNL     1      46.970  11.828  11.882  0.00  0.00    +0.000 NA
ENDBRANCH  20  21
ENDBRANCH  19  20
ENDBRANCH  18  19
ENDBRANCH   4  18
TORSDOF 7
ENDMDL
MODEL 8
REMARK VINA RESULT:    -6.545      2.619      9.072
REMARK INTER + INTRA:          -9.867
REMARK INTER:                  -9.356
REMARK INTRA:                  -0.511
REMARK UNBOUND:                -0.643
REMARK  Name = 
REMARK  7 active torsions:
REMARK  status: ('A' for Active; 'I' for Inactive)
REMARK    1  A    between atoms: C_2  and  C_11
REMARK    2  A    between atoms: N_3  and  C_4
REMARK    3  A    between atoms: C_4  and  C_5
REMARK    4  A    between atoms: C_14  and  C_15
REMARK    5  A    between atoms: C_15  and  O_16
REMARK    6  A    between atoms: O_16  and  C_17
REMARK    7  A    between atoms: C_17  and  C_18
REMARK                            x       y       z     vdW  Elec       q    Type
REMARK                         _______ _______ _______ _____ _____    ______ ____
ROOT
ATOM      1  C   UNL     1      45.421   6.320  11.519  0.00  0.00    +0.000 A 
ATOM      2  C   UNL     1      44.954   7.605  11.811  0.00  0.00    +0.000 A 
ATOM      3  C   UNL     1      45.663   8.427  12.691  0.00  0.00    +0.000 A 
ATOM      4  C   UNL     1      46.858   7.981  13.277  0.00  0.00    +0.000 A 
ATOM      5  C   UNL     1      47.332   6.701  12.954  0.00  0.00    +0.000 A 
ATOM      6  C   UNL     1      46.624   5.875  12.076  0.00  0.00    +0.000 A 
ENDROOT
BRANCH   1   8
ATOM      7  O   UNL     1      43.465   5.181  10.874  0.00  0.00    +0.000 OA
ATOM      8  C   UNL     1      44.629   5.464  10.602  0.00  0.00    +0.000 C 
ATOM      9  N   UNL     1      45.285   5.001   9.482  0.00  0.00    +0.000 N 
ATOM     10  H   UNL     1      46.295   5.045   9.458  0.00  0.00    +0.000 HD
BRANCH   9  11
ATOM     11  C   UNL     1      44.626   4.094   8.569  0.00  0.00    +0.000 C 
BRANCH  11  12
ATOM     12  C   UNL     1      45.581   3.080   8.015  0.00  0.00    +0.000 A 
ATOM     13  C   UNL     1      46.401   3.374   6.920  0.00  0.00    +0.000 A 
ATOM     14  C   UNL     1      47.251   2.397   6.409  0.00  0.00    +0.000 A 
ATOM     15  C   UNL     1      47.253   1.150   7.012  0.00  0.00    +0.000 A 
ATOM     16  N   UNL     1      46.475   0.827   8.067  0.00  0.00    +0.000 NA
ATOM     17  C   UNL     1      45.656   1.795   8.540  0.00  0.00    +0.000 A 
ENDBRANCH  11  12
ENDBRANCH   9  11
ENDBRANCH   1   8
BRANCH   4  18
ATOM     18  C   UNL     1      47.652   8.874  14.199  0.00  0.00    +0.000 C 
BRANCH  18  19
ATOM     19  O   UNL     1      48.341   8.092  15.167  0.00  0.00    +0.000 OA
BRANCH  19  20
ATOM     20  C   UNL     1      48.877   8.921  16.208  0.00  0.00    +0.000 C 
BRANCH  20  21
ATOM     21  C   UNL     1      49.304   8.095  17.403  0.00  0.00    +0.000 A 
ATOM     22  N   UNL     1      50.438   8.454  18.044  0.00  0.00    +0.000 NA
ATOM     23  C   UNL     1      50.793   7.701  19.102  0.00  0.00    +0.000 A 
ATOM     24  C   UNL     1      50.065   6.626  19.549  0.00  0.00    +0.000 A 
ATOM     25  C   UNL     1      48.922   6.348  18.838  0.00  0.00    +0.000 A 
ATOM     26  N   UNL     1      48.516   7.062  17.771  0.00  0.00    +0.000 NA
ENDBRANCH  20  21
ENDBRANCH  19  20
ENDBRANCH  18  19
ENDBRANCH   4  18
TORSDOF 7
ENDMDL
MODEL 9
REMARK VINA RESULT:    -6.365      3.251      4.001
REMARK INTER + INTRA:          -9.613
REMARK INTER:                  -9.110
REMARK INTRA:                  -0.503
REMARK UNBOUND:                -0.643
REMARK  Name = 
REMARK  7 active torsions:
REMARK  status: ('A' for Active; 'I' for Inactive)
REMARK    1  A    between atoms: C_2  and  C_11
REMARK    2  A    between atoms: N_3  and  C_4
REMARK    3  A    between atoms: C_4  and  C_5
REMARK    4  A    between atoms: C_14  and  C_15
REMARK    5  A    between atoms: C_15  and  O_16
REMARK    6  A    between atoms: O_16  and  C_17
REMARK    7  A    between atoms: C_17  and  C_18
REMARK                            x       y       z     vdW  Elec       q    Type
REMARK                         _______ _______ _______ _____ _____    ______ ____
ROOT
ATOM      1  C   UNL     1      46.724   7.790  13.025  0.00  0.00    +0.000 A 
ATOM      2  C   UNL     1      45.542   8.204  12.402  0.00  0.00    +0.000 A 
ATOM      3  C   UNL     1      44.807   7.304  11.626  0.00  0.00    +0.000 A 
ATOM      4  C   UNL     1      45.234   5.977  11.477  0.00  0.00    +0.000 A 
ATOM      5  C   UNL     1      46.405   5.565  12.129  0.00  0.00    +0.000 A 
ATOM      6  C   UNL     1      47.145   6.462  12.905  0.00  0.00    +0.000 A 
ENDROOT
BRANCH   1   8
ATOM      7  O   UNL     1      47.912   9.805  13.291  0.00  0.00    +0.000 OA
ATOM      8  C   UNL     1      47.495   8.778  13.820  0.00  0.00    +0.000 C 
ATOM      9  N   UNL     1      47.727   8.451  15.138  0.00  0.00    +0.000 N 
ATOM     10  H   UNL     1      47.596   7.492  15.432  0.00  0.00    +0.000 HD
BRANCH   9  11
ATOM     11  C   UNL     1      48.538   9.308  15.974  0.00  0.00    +0.000 C 
BRANCH  11  12
ATOM     12  C   UNL     1      48.094   9.261  17.406  0.00  0.00    +0.000 A 
ATOM     13  C   UNL     1      47.653  10.410  18.070  0.00  0.00    +0.000 A 
ATOM     14  C   UNL     1      47.281  10.337  19.410  0.00  0.00    +0.000 A 
ATOM     15  C   UNL     1      47.365   9.110  20.046  0.00  0.00    +0.000 A 
ATOM     16  N   UNL     1      47.788   7.980  19.441  0.00  0.00    +0.000 NA
ATOM     17  C   UNL     1      48.146   8.081  18.140  0.00  0.00    +0.000 A 
ENDBRANCH  11  12
ENDBRANCH   9  11
ENDBRANCH   1   8
BRANCH   4  18
ATOM     18  C   UNL     1      44.427   4.987  10.671  0.00  0.00    +0.000 C 
BRANCH  18  19
ATOM     19  O   UNL     1      45.046   3.707  10.701  0.00  0.00    +0.000 OA
BRANCH  19  20
ATOM     20  C   UNL     1      44.514   2.855   9.676  0.00  0.00    +0.000 C 
BRANCH  20  21
ATOM     21  C   UNL     1      45.510   2.657   8.553  0.00  0.00    +0.000 A 
ATOM     22  N   UNL     1      46.079   1.439   8.425  0.00  0.00    +0.000 NA
ATOM     23  C   UNL     1      46.962   1.292   7.418  0.00  0.00    +0.000 A 
ATOM     24  C   UNL     1      47.285   2.296   6.539  0.00  0.00    +0.000 A 
ATOM     25  C   UNL     1      46.646   3.494   6.746  0.00  0.00    +0.000 A 
ATOM     26  N   UNL     1      45.756   3.703   7.735  0.00  0.00    +0.000 NA
ENDBRANCH  20  21
ENDBRANCH  19  20
ENDBRANCH  18  19
ENDBRANCH   4  18
TORSDOF 7
ENDMDL
