MODEL 1
REMARK VINA RESULT:    -8.189      0.000      0.000
REMARK INTER + INTRA:         -11.657
REMARK INTER:                 -10.823
REMARK INTRA:                  -0.834
REMARK UNBOUND:                -0.834
REMARK  Name = 
REMARK  6 active torsions:
REMARK  status: ('A' for Active; 'I' for Inactive)
REMARK    1  A    between atoms: N_1  and  S_2
REMARK    2  A    between atoms: S_2  and  C_5
REMARK    3  A    between atoms: C_9  and  C_10
REMARK    4  A    between atoms: C_10  and  O_11
REMARK    5  A    between atoms: O_11  and  C_12
REMARK    6  A    between atoms: C_17  and  C_18
REMARK                            x       y       z     vdW  Elec       q    Type
REMARK                         _______ _______ _______ _____ _____    ______ ____
ROOT
ATOM      1  O   UNL     1      44.608   6.321  10.751  0.00  0.00    +0.000 OA
ENDROOT
BRANCH   1   2
ATOM      2  C   UNL     1      44.637   5.026  10.313  0.00  0.00    +0.000 A 
ATOM      3  C   UNL     1      43.828   4.131  11.005  0.00  0.00    +0.000 A 
ATOM      4  C   UNL     1      43.831   2.794  10.635  0.00  0.00    +0.000 A 
ATOM      5  F   UNL     1      43.075   1.918  11.312  0.00  0.00    +0.000 F 
ATOM      6  C   UNL     1      44.607   2.336   9.568  0.00  0.00    +0.000 A 
ATOM      7  C   UNL     1      45.404   3.225   8.831  0.00  0.00    +0.000 A 
ATOM      8  C   UNL     1      45.398   4.575   9.230  0.00  0.00    +0.000 A 
BRANCH   7   9
ATOM      9  C   UNL     1      46.216   2.782   7.679  0.00  0.00    +0.000 A 
ATOM     10  C   UNL     1      46.330   3.536   6.504  0.00  0.00    +0.000 A 
ATOM     11  C   UNL     1      47.112   3.082   5.441  0.00  0.00    +0.000 A 
ATOM     12  C   UNL     1      47.762   1.868   5.571  0.00  0.00    +0.000 A 
ATOM     13  N   UNL     1      47.679   1.096   6.671  0.00  0.00    +0.000 NA
ATOM     14  C   UNL     1      46.922   1.573   7.689  0.00  0.00    +0.000 A 
ENDBRANCH   7   9
ENDBRANCH   1   2
BRANCH   1  15
ATOM     15  C   UNL     1      44.348   6.491  12.150  0.00  0.00    +0.000 C 
BRANCH  15  20
ATOM     16  C   UNL     1      47.115   5.310  14.468  0.00  0.00    +0.000 A 
ATOM     17  C   UNL     1      48.062   6.281  14.210  0.00  0.00    +0.000 A 
ATOM     18  N   UNL     1      47.843   7.309  13.351  0.00  0.00    +0.000 NA
ATOM     19  C   UNL     1      46.637   7.350  12.738  0.00  0.00    +0.000 A 
ATOM     20  C   UNL     1      45.628   6.409  12.931  0.00  0.00    +0.000 A 
ATOM     21  C   UNL     1      45.893   5.355  13.804  0.00  0.00    +0.000 A 
BRANCH  16  22
ATOM     22  S   UNL     1      47.446   4.019  15.594  0.00  0.00    +0.000 S 
ATOM     23  O   UNL     1      47.829   2.832  14.870  0.00  0.00    +0.000 OA
ATOM     24  O   UNL     1      46.428   4.004  16.620  0.00  0.00    +0.000 OA
BRANCH  22  25
ATOM     25  N   UNL     1      48.840   4.580  16.342  0.00  0.00    +0.000 NA
ATOM     26  H   UNL     1      49.596   4.664  15.662  0.00  0.00    +0.000 HD
ATOM     27  H   UNL     1      49.072   4.007  17.154  0.00  0.00    +0.000 HD
ENDBRANCH  22  25
ENDBRANCH  16  22
ENDBRANCH  15  20
ENDBRANCH   1  15
TORSDOF 6
ENDMDL
MODEL 2
REMARK VINA RESULT:    -7.819      1.649      2.346
REMARK INTER + INTRA:         -11.167
REMARK INTER:                 -10.244
REMARK INTRA:                  -0.923
REMARK UNBOUND:                -0.834
REMARK  Name = 
REMARK  6 active torsions:
REMARK  status: ('A' for Active; 'I' for Inactive)
REMARK    1  A    between atoms: N_1  and  S_2
REMARK    2  A    between atoms: S_2  and  C_5
REMARK    3  A    between atoms: C_9  and  C_10
REMARK    4  A    between atoms: C_10  and  O_11
REMARK    5  A    between atoms: O_11  and  C_12
REMARK    6  A    between atoms: C_17  and  C_18
REMARK                            x       y       z     vdW  Elec       q    Type
REMARK                         _______ _______ _______ _____ _____    ______ ____
ROOT
ATOM      1  O   UNL     1      45.896   7.582  12.200  0.00  0.00    +0.000 OA
ENDROOT
BRANCH   1   2
ATOM      2  C   UNL     1      45.172   6.594  11.591  0.00  0.00    +0.000 A 
ATOM      3  C   UNL     1      43.822   6.542  11.914  0.00  0.00    +0.000 A 
ATOM      4  C   UNL     1      43.032   5.546  11.357  0.00  0.00    +0.000 A 
ATOM      5  F   UNL     1      41.734   5.469  11.684  0.00  0.00    +0.000 F 
ATOM      6  C   UNL     1      43.561   4.616  10.460  0.00  0.00    +0.000 A 
ATOM      7  C   UNL     1      44.914   4.669  10.089  0.00  0.00    +0.000 A 
ATOM      8  C   UNL     1      45.701   5.679  10.676  0.00  0.00    +0.000 A 
BRANCH   7   9
ATOM      9  C   UNL     1      45.501   3.719   9.122  0.00  0.00    +0.000 A 
ATOM     10  C   UNL     1      46.177   4.141   7.969  0.00  0.00    +0.000 A 
ATOM     11  C   UNL     1      46.721   3.210   7.084  0.00  0.00    +0.000 A 
ATOM     12  C   UNL     1      46.569   1.864   7.365  0.00  0.00    +0.000 A 
ATOM     13  N   UNL     1      45.919   1.401   8.450  0.00  0.00    +0.000 NA
ATOM     14  C   UNL     1      45.415   2.333   9.296  0.00  0.00    +0.000 A 
ENDBRANCH   7   9
ENDBRANCH   1   2
BRANCH   1  15
ATOM     15  C   UNL     1      47.312   7.368  12.244  0.00  0.00    +0.000 C 
BRANCH  15  20
ATOM     16  C   UNL     1      48.038   5.471  15.453  0.00  0.00    +0.000 A 
ATOM     17  C   UNL     1      48.698   6.457  16.159  0.00  0.00    +0.000 A 
ATOM     18  N   UNL     1      48.894   7.706  15.666  0.00  0.00    +0.000 NA
ATOM     19  C   UNL     1      48.412   7.959  14.426  0.00  0.00    +0.000 A 
ATOM     20  C   UNL     1      47.745   7.023  13.640  0.00  0.00    +0.000 A 
ATOM     21  C   UNL     1      47.578   5.743  14.168  0.00  0.00    +0.000 A 
BRANCH  16  22
ATOM     22  S   UNL     1      47.802   3.886  16.143  0.00  0.00    +0.000 S 
ATOM     23  O   UNL     1      46.562   3.858  16.879  0.00  0.00    +0.000 OA
ATOM     24  O   UNL     1      49.047   3.418  16.708  0.00  0.00    +0.000 OA
BRANCH  22  25
ATOM     25  N   UNL     1      47.549   2.959  14.766  0.00  0.00    +0.000 NA
ATOM     26  H   UNL     1      47.159   2.051  15.019  0.00  0.00    +0.000 HD
ATOM     27  H   UNL     1      48.400   2.905  14.204  0.00  0.00    +0.000 HD
ENDBRANCH  22  25
ENDBRANCH  16  22
ENDBRANCH  15  20
ENDBRANCH   1  15
TORSDOF 6
ENDMDL
MODEL 3
REMARK VINA RESULT:    -7.701      2.391      3.148
REMARK INTER + INTRA:         -11.012
REMARK INTER:                 -10.121
REMARK INTRA:                  -0.891
REMARK UNBOUND:                -0.834
REMARK  Name = 
REMARK  6 active torsions:
REMARK  status: ('A' for Active; 'I' for Inactive)
REMARK    1  A    between atoms: N_1  and  S_2
REMARK    2  A    between atoms: S_2  and  C_5
REMARK    3  A    between atoms: C_9  and  C_10
REMARK    4  A    between atoms: C_10  and  O_11
REMARK    5  A    between atoms: O_11  and  C_12
REMARK    6  A    between atoms: C_17  and  C_18
REMARK                            x       y       z     vdW  Elec       q    Type
REMARK                         _______ _______ _______ _____ _____    ______ ____
ROOT
ATOM      1  O   UNL     1      44.421   6.373  11.072  0.00  0.00    +0.000 OA
ENDROOT
BRANCH   1   2
ATOM      2  C   UNL     1      44.436   5.068  10.664  0.00  0.00    +0.000 A 
ATOM      3  C   UNL     1      43.639   4.193  11.393  0.00  0.00    +0.000 A 
ATOM      4  C   UNL     1      43.630   2.847  11.055  0.00  0.00    +0.000 A 
ATOM      5  F   UNL     1      42.886   1.990  11.768  0.00  0.00    +0.000 F 
ATOM      6  C   UNL     1      44.382   2.361   9.984  0.00  0.00    +0.000 A 
ATOM      7  C   UNL     1      45.167   3.230   9.209  0.00  0.00    +0.000 A 
ATOM      8  C   UNL     1      45.174   4.589   9.577  0.00  0.00    +0.000 A 
BRANCH   7   9
ATOM      9  C   UNL     1      45.955   2.756   8.052  0.00  0.00    +0.000 A 
ATOM     10  C   UNL     1      46.205   3.561   6.933  0.00  0.00    +0.000 A 
ATOM     11  C   UNL     1      46.958   3.076   5.863  0.00  0.00    +0.000 A 
ATOM     12  C   UNL     1      47.440   1.780   5.928  0.00  0.00    +0.000 A 
ATOM     13  N   UNL     1      47.220   0.958   6.972  0.00  0.00    +0.000 NA
ATOM     14  C   UNL     1      46.497   1.467   7.999  0.00  0.00    +0.000 A 
ENDBRANCH   7   9
ENDBRANCH   1   2
BRANCH   1  15
ATOM     15  C   UNL     1      44.708   6.587  12.459  0.00  0.00    +0.000 C 
BRANCH  15  20
ATOM     16  C   UNL     1      48.283   7.868  12.515  0.00  0.00    +0.000 A 
ATOM     17  C   UNL     1      48.879   6.856  13.240  0.00  0.00    +0.000 A 
ATOM     18  N   UNL     1      48.194   5.772  13.686  0.00  0.00    +0.000 NA
ATOM     19  C   UNL     1      46.874   5.716  13.391  0.00  0.00    +0.000 A 
ATOM     20  C   UNL     1      46.190   6.695  12.674  0.00  0.00    +0.000 A 
ATOM     21  C   UNL     1      46.919   7.805  12.249  0.00  0.00    +0.000 A 
BRANCH  16  22
ATOM     22  S   UNL     1      49.215   9.232  11.954  0.00  0.00    +0.000 S 
ATOM     23  O   UNL     1      48.341  10.193  11.329  0.00  0.00    +0.000 OA
ATOM     24  O   UNL     1      50.424   8.759  11.319  0.00  0.00    +0.000 OA
BRANCH  22  25
ATOM     25  N   UNL     1      49.702   9.920  13.407  0.00  0.00    +0.000 NA
ATOM     26  H   UNL     1      49.399  10.893  13.456  0.00  0.00    +0.000 HD
ATOM     27  H   UNL     1      50.704   9.788  13.553  0.00  0.00    +0.000 HD
ENDBRANCH  22  25
ENDBRANCH  16  22
ENDBRANCH  15  20
ENDBRANCH   1  15
TORSDOF 6
ENDMDL
MODEL 4
REMARK VINA RESULT:    -7.096      3.088      4.659
REMARK INTER + INTRA:         -10.212
REMARK INTER:                  -9.396
REMARK INTRA:                  -0.816
REMARK UNBOUND:                -0.834
REMARK  Name = 
REMARK  6 active torsions:
REMARK  status: ('A' for Active; 'I' for Inactive)
REMARK    1  A    between atoms: N_1  and  S_2
REMARK    2  A    between atoms: S_2  and  C_5
REMARK    3  A    between atoms: C_9  and  C_10
REMARK    4  A    between atoms: C_10  and  O_11
REMARK    5  A    between atoms: O_11  and  C_12
REMARK    6  A    between atoms: C_17  and  C_18
REMARK                            x       y       z     vdW  Elec       q    Type
REMARK                         _______ _______ _______ _____ _____    ______ ____
ROOT
ATOM      1  O   UNL     1      48.662   7.393  13.743  0.00  0.00    +0.000 OA
ENDROOT
BRANCH   1   2
ATOM      2  C   UNL     1      47.470   7.387  13.073  0.00  0.00    +0.000 A 
ATOM      3  C   UNL     1      46.696   8.535  13.197  0.00  0.00    +0.000 A 
ATOM      4  C   UNL     1      45.460   8.587  12.569  0.00  0.00    +0.000 A 
ATOM      5  F   UNL     1      44.694   9.679  12.705  0.00  0.00    +0.000 F 
ATOM      6  C   UNL     1      44.991   7.523  11.797  0.00  0.00    +0.000 A 
ATOM      7  C   UNL     1      45.769   6.366  11.626  0.00  0.00    +0.000 A 
ATOM      8  C   UNL     1      47.014   6.328  12.282  0.00  0.00    +0.000 A 
BRANCH   7   9
ATOM      9  C   UNL     1      45.318   5.232  10.793  0.00  0.00    +0.000 A 
ATOM     10  C   UNL     1      45.511   5.194   9.406  0.00  0.00    +0.000 A 
ATOM     11  C   UNL     1      45.073   4.100   8.658  0.00  0.00    +0.000 A 
ATOM     12  C   UNL     1      44.436   3.063   9.315  0.00  0.00    +0.000 A 
ATOM     13  N   UNL     1      44.213   3.052  10.643  0.00  0.00    +0.000 NA
ATOM     14  C   UNL     1      44.663   4.123  11.340  0.00  0.00    +0.000 A 
ENDBRANCH   7   9
ENDBRANCH   1   2
BRANCH   1  15
ATOM     15  C   UNL     1      48.654   8.069  15.006  0.00  0.00    +0.000 C 
BRANCH  15  20
ATOM     16  C   UNL     1      48.352   4.848  16.996  0.00  0.00    +0.000 A 
ATOM     17  C   UNL     1      48.766   5.302  18.233  0.00  0.00    +0.000 A 
ATOM     18  N   UNL     1      49.109   6.595  18.462  0.00  0.00    +0.000 NA
ATOM     19  C   UNL     1      49.033   7.446  17.412  0.00  0.00    +0.000 A 
ATOM     20  C   UNL     1      48.635   7.074  16.130  0.00  0.00    +0.000 A 
ATOM     21  C   UNL     1      48.310   5.734  15.924  0.00  0.00    +0.000 A 
BRANCH  16  22
ATOM     22  S   UNL     1      47.910   3.177  16.762  0.00  0.00    +0.000 S 
ATOM     23  O   UNL     1      46.626   2.926  17.367  0.00  0.00    +0.000 OA
ATOM     24  O   UNL     1      49.060   2.337  17.012  0.00  0.00    +0.000 OA
BRANCH  22  25
ATOM     25  N   UNL     1      47.663   3.129  15.102  0.00  0.00    +0.000 NA
ATOM     26  H   UNL     1      48.211   3.857  14.643  0.00  0.00    +0.000 HD
ATOM     27  H   UNL     1      46.667   3.158  14.882  0.00  0.00    +0.000 HD
ENDBRANCH  22  25
ENDBRANCH  16  22
ENDBRANCH  15  20
ENDBRANCH   1  15
TORSDOF 6
ENDMDL
MODEL 5
REMARK VINA RESULT:    -6.954      2.343      3.121
REMARK INTER + INTRA:         -10.024
REMARK INTER:                  -9.419
REMARK INTRA:                  -0.605
REMARK UNBOUND:                -0.834
REMARK  Name = 
REMARK  6 active torsions:
REMARK  status: ('A' for Active; 'I' for Inactive)
REMARK    1  A    between atoms: N_1  and  S_2
REMARK    2  A    between atoms: S_2  and  C_5
REMARK    3  A    between atoms: C_9  and  C_10
REMARK    4  A    between atoms: C_10  and  O_11
REMARK    5  A    between atoms: O_11  and  C_12
REMARK    6  A    between atoms: C_17  and  C_18
REMARK                            x       y       z     vdW  Elec       q    Type
REMARK                         _______ _______ _______ _____ _____    ______ ____
ROOT
ATOM      1  O   UNL     1      45.438   4.495  14.192  0.00  0.00    +0.000 OA
ENDROOT
BRANCH   1   2
ATOM      2  C   UNL     1      44.841   4.539  12.963  0.00  0.00    +0.000 A 
ATOM      3  C   UNL     1      43.598   5.159  12.912  0.00  0.00    +0.000 A 
ATOM      4  C   UNL     1      42.919   5.213  11.703  0.00  0.00    +0.000 A 
ATOM      5  F   UNL     1      41.708   5.785  11.648  0.00  0.00    +0.000 F 
ATOM      6  C   UNL     1      43.470   4.681  10.536  0.00  0.00    +0.000 A 
ATOM      7  C   UNL     1      44.740   4.082  10.553  0.00  0.00    +0.000 A 
ATOM      8  C   UNL     1      45.406   4.025  11.792  0.00  0.00    +0.000 A 
BRANCH   7   9
ATOM      9  C   UNL     1      45.366   3.534   9.332  0.00  0.00    +0.000 A 
ATOM     10  C   UNL     1      45.861   4.352   8.308  0.00  0.00    +0.000 A 
ATOM     11  C   UNL     1      46.450   3.793   7.173  0.00  0.00    +0.000 A 
ATOM     12  C   UNL     1      46.523   2.414   7.079  0.00  0.00    +0.000 A 
ATOM     13  N   UNL     1      46.054   1.580   8.026  0.00  0.00    +0.000 NA
ATOM     14  C   UNL     1      45.501   2.157   9.120  0.00  0.00    +0.000 A 
ENDBRANCH   7   9
ENDBRANCH   1   2
BRANCH   1  15
ATOM     15  C   UNL     1      46.816   4.103  14.193  0.00  0.00    +0.000 C 
BRANCH  15  20
ATOM     16  C   UNL     1      48.664   5.289  17.292  0.00  0.00    +0.000 A 
ATOM     17  C   UNL     1      49.149   6.494  16.824  0.00  0.00    +0.000 A 
ATOM     18  N   UNL     1      48.887   6.954  15.574  0.00  0.00    +0.000 NA
ATOM     19  C   UNL     1      48.118   6.171  14.780  0.00  0.00    +0.000 A 
ATOM     20  C   UNL     1      47.596   4.940  15.166  0.00  0.00    +0.000 A 
ATOM     21  C   UNL     1      47.901   4.486  16.449  0.00  0.00    +0.000 A 
BRANCH  16  22
ATOM     22  S   UNL     1      49.021   4.753  18.913  0.00  0.00    +0.000 S 
ATOM     23  O   UNL     1      47.984   5.200  19.810  0.00  0.00    +0.000 OA
ATOM     24  O   UNL     1      50.425   4.961  19.189  0.00  0.00    +0.000 OA
BRANCH  22  25
ATOM     25  N   UNL     1      48.826   3.092  18.764  0.00  0.00    +0.000 NA
ATOM     26  H   UNL     1      48.735   2.664  19.686  0.00  0.00    +0.000 HD
ATOM     27  H   UNL     1      49.568   2.690  18.190  0.00  0.00    +0.000 HD
ENDBRANCH  22  25
ENDBRANCH  16  22
ENDBRANCH  15  20
ENDBRANCH   1  15
TORSDOF 6
ENDMDL
MODEL 6
REMARK VINA RESULT:    -6.910      2.084      2.739
REMARK INTER + INTRA:          -9.966
REMARK INTER:                  -9.511
REMARK INTRA:                  -0.455
REMARK UNBOUND:                -0.834
REMARK  Name = 
REMARK  6 active torsions:
REMARK  status: ('A' for Active; 'I' for Inactive)
REMARK    1  A    between atoms: N_1  and  S_2
REMARK    2  A    between atoms: S_2  and  C_5
REMARK    3  A    between atoms: C_9  and  C_10
REMARK    4  A    between atoms: C_10  and  O_11
REMARK    5  A    between atoms: O_11  and  C_12
REMARK    6  A    between atoms: C_17  and  C_18
REMARK                            x       y       z     vdW  Elec       q    Type
REMARK                         _______ _______ _______ _____ _____    ______ ____
ROOT
ATOM      1  O   UNL     1      46.127   7.133  12.315  0.00  0.00    +0.000 OA
ENDROOT
BRANCH   1   2
ATOM      2  C   UNL     1      45.346   6.259  11.610  0.00  0.00    +0.000 A 
ATOM      3  C   UNL     1      43.987   6.287  11.901  0.00  0.00    +0.000 A 
ATOM      4  C   UNL     1      43.138   5.406  11.247  0.00  0.00    +0.000 A 
ATOM      5  F   UNL     1      41.830   5.405  11.540  0.00  0.00    +0.000 F 
ATOM      6  C   UNL     1      43.617   4.514  10.285  0.00  0.00    +0.000 A 
ATOM      7  C   UNL     1      44.979   4.492   9.946  0.00  0.00    +0.000 A 
ATOM      8  C   UNL     1      45.826   5.384  10.631  0.00  0.00    +0.000 A 
BRANCH   7   9
ATOM      9  C   UNL     1      45.517   3.582   8.914  0.00  0.00    +0.000 A 
ATOM     10  C   UNL     1      46.098   4.049   7.728  0.00  0.00    +0.000 A 
ATOM     11  C   UNL     1      46.599   3.154   6.781  0.00  0.00    +0.000 A 
ATOM     12  C   UNL     1      46.496   1.798   7.035  0.00  0.00    +0.000 A 
ATOM     13  N   UNL     1      45.936   1.292   8.151  0.00  0.00    +0.000 NA
ATOM     14  C   UNL     1      45.474   2.190   9.055  0.00  0.00    +0.000 A 
ENDBRANCH   7   9
ENDBRANCH   1   2
BRANCH   1  15
ATOM     15  C   UNL     1      47.476   6.706  12.542  0.00  0.00    +0.000 C 
BRANCH  15  20
ATOM     16  C   UNL     1      48.149   5.600  16.113  0.00  0.00    +0.000 A 
ATOM     17  C   UNL     1      47.537   4.363  16.090  0.00  0.00    +0.000 A 
ATOM     18  N   UNL     1      46.946   3.858  14.978  0.00  0.00    +0.000 NA
ATOM     19  C   UNL     1      46.973   4.628  13.865  0.00  0.00    +0.000 A 
ATOM     20  C   UNL     1      47.559   5.889  13.800  0.00  0.00    +0.000 A 
ATOM     21  C   UNL     1      48.140   6.387  14.965  0.00  0.00    +0.000 A 
BRANCH  16  22
ATOM     22  S   UNL     1      48.907   6.194  17.568  0.00  0.00    +0.000 S 
ATOM     23  O   UNL     1      50.032   7.028  17.223  0.00  0.00    +0.000 OA
ATOM     24  O   UNL     1      49.008   5.119  18.529  0.00  0.00    +0.000 OA
BRANCH  22  25
ATOM     25  N   UNL     1      47.723   7.227  18.160  0.00  0.00    +0.000 NA
ATOM     26  H   UNL     1      47.523   7.010  19.137  0.00  0.00    +0.000 HD
ATOM     27  H   UNL     1      46.901   7.221  17.556  0.00  0.00    +0.000 HD
ENDBRANCH  22  25
ENDBRANCH  16  22
ENDBRANCH  15  20
ENDBRANCH   1  15
TORSDOF 6
ENDMDL
MODEL 7
REMARK VINA RESULT:    -6.798      1.818      2.269
REMARK INTER + INTRA:          -9.819
REMARK INTER:                  -9.216
REMARK INTRA:                  -0.603
REMARK UNBOUND:                -0.834
REMARK  Name = 
REMARK  6 active torsions:
REMARK  status: ('A' for Active; 'I' for Inactive)
REMARK    1  A    between atoms: N_1  and  S_2
REMARK    2  A    between atoms: S_2  and  C_5
REMARK    3  A    between atoms: C_9  and  C_10
REMARK    4  A    between atoms: C_10  and  O_11
REMARK    5  A    between atoms: O_11  and  C_12
REMARK    6  A    between atoms: C_17  and  C_18
REMARK                            x       y       z     vdW  Elec       q    Type
REMARK                         _______ _______ _______ _____ _____    ______ ____
ROOT
ATOM      1  O   UNL     1      42.933   6.378  11.315  0.00  0.00    +0.000 OA
ENDROOT
BRANCH   1   2
ATOM      2  C   UNL     1      43.396   5.113  11.074  0.00  0.00    +0.000 A 
ATOM      3  C   UNL     1      43.025   4.144  11.998  0.00  0.00    +0.000 A 
ATOM      4  C   UNL     1      43.484   2.844  11.834  0.00  0.00    +0.000 A 
ATOM      5  F   UNL     1      43.156   1.907  12.735  0.00  0.00    +0.000 F 
ATOM      6  C   UNL     1      44.286   2.488  10.748  0.00  0.00    +0.000 A 
ATOM      7  C   UNL     1      44.643   3.441   9.780  0.00  0.00    +0.000 A 
ATOM      8  C   UNL     1      44.179   4.756   9.972  0.00  0.00    +0.000 A 
BRANCH   7   9
ATOM      9  C   UNL     1      45.466   3.094   8.603  0.00  0.00    +0.000 A 
ATOM     10  C   UNL     1      46.017   1.819   8.419  0.00  0.00    +0.000 A 
ATOM     11  C   UNL     1      46.785   1.533   7.289  0.00  0.00    +0.000 A 
ATOM     12  C   UNL     1      46.999   2.539   6.364  0.00  0.00    +0.000 A 
ATOM     13  N   UNL     1      46.505   3.785   6.496  0.00  0.00    +0.000 NA
ATOM     14  C   UNL     1      45.753   4.024   7.597  0.00  0.00    +0.000 A 
ENDBRANCH   7   9
ENDBRANCH   1   2
BRANCH   1  15
ATOM     15  C   UNL     1      43.701   7.435  10.728  0.00  0.00    +0.000 C 
BRANCH  15  20
ATOM     16  C   UNL     1      46.673   7.401  13.093  0.00  0.00    +0.000 A 
ATOM     17  C   UNL     1      46.862   8.760  13.244  0.00  0.00    +0.000 A 
ATOM     18  N   UNL     1      46.066   9.682  12.647  0.00  0.00    +0.000 NA
ATOM     19  C   UNL     1      45.056   9.214  11.876  0.00  0.00    +0.000 A 
ATOM     20  C   UNL     1      44.797   7.863  11.661  0.00  0.00    +0.000 A 
ATOM     21  C   UNL     1      45.647   6.942  12.272  0.00  0.00    +0.000 A 
BRANCH  16  22
ATOM     22  S   UNL     1      47.719   6.259  13.897  0.00  0.00    +0.000 S 
ATOM     23  O   UNL     1      48.938   6.104  13.142  0.00  0.00    +0.000 OA
ATOM     24  O   UNL     1      46.940   5.129  14.347  0.00  0.00    +0.000 OA
BRANCH  22  25
ATOM     25  N   UNL     1      48.134   7.110  15.284  0.00  0.00    +0.000 NA
ATOM     26  H   UNL     1      48.057   8.114  15.118  0.00  0.00    +0.000 HD
ATOM     27  H   UNL     1      49.046   6.813  15.632  0.00  0.00    +0.000 HD
ENDBRANCH  22  25
ENDBRANCH  16  22
ENDBRANCH  15  20
ENDBRANCH   1  15
TORSDOF 6
ENDMDL
MODEL 8
REMARK VINA RESULT:    -6.592      3.161      4.608
REMARK INTER + INTRA:          -9.545
REMARK INTER:                  -8.835
REMARK INTRA:                  -0.710
REMARK UNBOUND:                -0.834
REMARK  Name = 
REMARK  6 active torsions:
REMARK  status: ('A' for Active; 'I' for Inactive)
REMARK    1  A    between atoms: N_1  and  S_2
REMARK    2  A    between atoms: S_2  and  C_5
REMARK    3  A    between atoms: C_9  and  C_10
REMARK    4  A    between atoms: C_10  and  O_11
REMARK    5  A    between atoms: O_11  and  C_12
REMARK    6  A    between atoms: C_17  and  C_18
REMARK                            x       y       z     vdW  Elec       q    Type
REMARK                         _______ _______ _______ _____ _____    ______ ____
ROOT
ATOM      1  O   UNL     1      44.322   6.286  12.017  0.00  0.00    +0.000 OA
ENDROOT
BRANCH   1   2
ATOM      2  C   UNL     1      44.320   5.048  11.436  0.00  0.00    +0.000 A 
ATOM      3  C   UNL     1      43.539   4.083  12.062  0.00  0.00    +0.000 A 
ATOM      4  C   UNL     1      43.513   2.796  11.546  0.00  0.00    +0.000 A 
ATOM      5  F   UNL     1      42.785   1.851  12.158  0.00  0.00    +0.000 F 
ATOM      6  C   UNL     1      44.234   2.458  10.398  0.00  0.00    +0.000 A 
ATOM      7  C   UNL     1      45.001   3.423   9.726  0.00  0.00    +0.000 A 
ATOM      8  C   UNL     1      45.025   4.720  10.274  0.00  0.00    +0.000 A 
BRANCH   7   9
ATOM      9  C   UNL     1      45.753   3.109   8.494  0.00  0.00    +0.000 A 
ATOM     10  C   UNL     1      46.245   1.827   8.219  0.00  0.00    +0.000 A 
ATOM     11  C   UNL     1      46.948   1.573   7.040  0.00  0.00    +0.000 A 
ATOM     12  C   UNL     1      47.156   2.618   6.158  0.00  0.00    +0.000 A 
ATOM     13  N   UNL     1      46.718   3.872   6.376  0.00  0.00    +0.000 NA
ATOM     14  C   UNL     1      46.028   4.080   7.524  0.00  0.00    +0.000 A 
ENDBRANCH   7   9
ENDBRANCH   1   2
BRANCH   1  15
ATOM     15  C   UNL     1      45.514   6.625  12.736  0.00  0.00    +0.000 C 
BRANCH  15  20
ATOM     16  C   UNL     1      45.558  10.286  11.726  0.00  0.00    +0.000 A 
ATOM     17  C   UNL     1      46.913  10.536  11.825  0.00  0.00    +0.000 A 
ATOM     18  N   UNL     1      47.811   9.580  12.171  0.00  0.00    +0.000 NA
ATOM     19  C   UNL     1      47.323   8.343  12.427  0.00  0.00    +0.000 A 
ATOM     20  C   UNL     1      45.974   8.005  12.361  0.00  0.00    +0.000 A 
ATOM     21  C   UNL     1      45.075   9.015  12.023  0.00  0.00    +0.000 A 
BRANCH  16  22
ATOM     22  S   UNL     1      44.450  11.551  11.262  0.00  0.00    +0.000 S 
ATOM     23  O   UNL     1      44.601  12.678  12.149  0.00  0.00    +0.000 OA
ATOM     24  O   UNL     1      43.160  10.972  10.961  0.00  0.00    +0.000 OA
BRANCH  22  25
ATOM     25  N   UNL     1      45.092  12.029   9.786  0.00  0.00    +0.000 NA
ATOM     26  H   UNL     1      44.622  12.872   9.454  0.00  0.00    +0.000 HD
ATOM     27  H   UNL     1      45.082  11.257   9.119  0.00  0.00    +0.000 HD
ENDBRANCH  22  25
ENDBRANCH  16  22
ENDBRANCH  15  20
ENDBRANCH   1  15
TORSDOF 6
ENDMDL
MODEL 9
REMARK VINA RESULT:    -6.394      2.991      3.476
REMARK INTER + INTRA:          -9.285
REMARK INTER:                  -8.576
REMARK INTRA:                  -0.708
REMARK UNBOUND:                -0.834
REMARK  Name = 
REMARK  6 active torsions:
REMARK  status: ('A' for Active; 'I' for Inactive)
REMARK    1  A    between atoms: N_1  and  S_2
REMARK    2  A    between atoms: S_2  and  C_5
REMARK    3  A    between atoms: C_9  and  C_10
REMARK    4  A    between atoms: C_10  and  O_11
REMARK    5  A    between atoms: O_11  and  C_12
REMARK    6  A    between atoms: C_17  and  C_18
REMARK                            x       y       z     vdW  Elec       q    Type
REMARK                         _______ _______ _______ _____ _____    ______ ____
ROOT
ATOM      1  O   UNL     1      44.576   6.069  11.858  0.00  0.00    +0.000 OA
ENDROOT
BRANCH   1   2
ATOM      2  C   UNL     1      44.503   4.848  11.245  0.00  0.00    +0.000 A 
ATOM      3  C   UNL     1      43.639   3.927  11.824  0.00  0.00    +0.000 A 
ATOM      4  C   UNL     1      43.538   2.657  11.274  0.00  0.00    +0.000 A 
ATOM      5  F   UNL     1      42.729   1.752  11.840  0.00  0.00    +0.000 F 
ATOM      6  C   UNL     1      44.265   2.298  10.137  0.00  0.00    +0.000 A 
ATOM      7  C   UNL     1      45.117   3.222   9.511  0.00  0.00    +0.000 A 
ATOM      8  C   UNL     1      45.216   4.500  10.093  0.00  0.00    +0.000 A 
BRANCH   7   9
ATOM      9  C   UNL     1      45.880   2.886   8.292  0.00  0.00    +0.000 A 
ATOM     10  C   UNL     1      46.158   3.830   7.294  0.00  0.00    +0.000 A 
ATOM     11  C   UNL     1      46.887   3.472   6.159  0.00  0.00    +0.000 A 
ATOM     12  C   UNL     1      47.317   2.163   6.037  0.00  0.00    +0.000 A 
ATOM     13  N   UNL     1      47.069   1.211   6.957  0.00  0.00    +0.000 NA
ATOM     14  C   UNL     1      46.371   1.597   8.053  0.00  0.00    +0.000 A 
ENDBRANCH   7   9
ENDBRANCH   1   2
BRANCH   1  15
ATOM     15  C   UNL     1      43.999   7.159  11.129  0.00  0.00    +0.000 C 
BRANCH  15  20
ATOM     16  C   UNL     1      46.629   9.648  12.273  0.00  0.00    +0.000 A 
ATOM     17  C   UNL     1      46.059  10.816  11.806  0.00  0.00    +0.000 A 
ATOM     18  N   UNL     1      44.861  10.844  11.170  0.00  0.00    +0.000 NA
ATOM     19  C   UNL     1      44.229   9.658  10.999  0.00  0.00    +0.000 A 
ATOM     20  C   UNL     1      44.733   8.434  11.428  0.00  0.00    +0.000 A 
ATOM     21  C   UNL     1      45.976   8.438  12.061  0.00  0.00    +0.000 A 
BRANCH  16  22
ATOM     22  S   UNL     1      48.166   9.673  13.098  0.00  0.00    +0.000 S 
ATOM     23  O   UNL     1      49.234   9.543  12.137  0.00  0.00    +0.000 OA
ATOM     24  O   UNL     1      48.088   8.849  14.283  0.00  0.00    +0.000 OA
BRANCH  22  25
ATOM     25  N   UNL     1      48.222  11.258  13.647  0.00  0.00    +0.000 NA
ATOM     26  H   UNL     1      48.911  11.349  14.394  0.00  0.00    +0.000 HD
ATOM     27  H   UNL     1      47.290  11.588  13.899  0.00  0.00    +0.000 HD
ENDBRANCH  22  25
ENDBRANCH  16  22
ENDBRANCH  15  20
ENDBRANCH   1  15
TORSDOF 6
ENDMDL
