MODEL 1
REMARK VINA RESULT:    -8.717      0.000      0.000
REMARK INTER + INTRA:         -13.151
REMARK INTER:                 -12.029
REMARK INTRA:                  -1.122
REMARK UNBOUND:                -1.122
REMARK  Name = 
REMARK  8 active torsions:
REMARK  status: ('A' for Active; 'I' for Inactive)
REMARK    1  A    between atoms: C_1  and  C_2
REMARK    2  A    between atoms: C_2  and  O_3
REMARK    3  A    between atoms: C_2  and  C_4
REMARK    4  A    between atoms: C_2  and  C_15
REMARK    5  A    between atoms: C_4  and  O_5
REMARK    6  A    between atoms: O_5  and  C_6
REMARK    7  A    between atoms: C_9  and  C_10
REMARK    8  A    between atoms: C_19  and  C_20
REMARK                            x       y       z     vdW  Elec       q    Type
REMARK                         _______ _______ _______ _____ _____    ______ ____
ROOT
ATOM      1  C   UNL     1      43.238   6.786  11.401  0.00  0.00    +0.000 C 
ATOM      2  C   UNL     1      43.670   5.517  12.148  0.00  0.00    +0.000 C 
ENDROOT
BRANCH   2   3
ATOM      3  C   UNL     1      45.104   5.638  12.675  0.00  0.00    +0.000 A 
ATOM      4  C   UNL     1      45.637   4.683  13.554  0.00  0.00    +0.000 A 
ATOM      5  C   UNL     1      46.948   4.784  14.012  0.00  0.00    +0.000 A 
ATOM      6  C   UNL     1      47.760   5.838  13.592  0.00  0.00    +0.000 A 
ATOM      7  C   UNL     1      47.290   6.810  12.695  0.00  0.00    +0.000 A 
ATOM      8  C   UNL     1      45.949   6.695  12.264  0.00  0.00    +0.000 A 
BRANCH   7   9
ATOM      9  C   UNL     1      48.182   7.890  12.199  0.00  0.00    +0.000 A 
ATOM     10  C   UNL     1      47.743   9.224  12.089  0.00  0.00    +0.000 A 
ATOM     11  C   UNL     1      48.583  10.233  11.601  0.00  0.00    +0.000 A 
ATOM     12  C   UNL     1      49.890   9.937  11.228  0.00  0.00    +0.000 A 
ATOM     13  C   UNL     1      50.349   8.629  11.338  0.00  0.00    +0.000 A 
ATOM     14 CL   UNL     1      51.968   8.252  10.892  0.00  0.00    +0.000 Cl
ATOM     15  C   UNL     1      49.507   7.617  11.806  0.00  0.00    +0.000 A 
ENDBRANCH   7   9
ENDBRANCH   2   3
BRANCH   2  16
ATOM     16  O   UNL     1      42.758   5.376  13.253  0.00  0.00    +0.000 OA
ATOM     17  H   UNL     1      43.176   4.754  13.876  0.00  0.00    +0.000 HD
ENDBRANCH   2  16
BRANCH   2  18
ATOM     18  C   UNL     1      43.523   4.260  11.252  0.00  0.00    +0.000 C 
BRANCH  18  19
ATOM     19  O   UNL     1      43.574   4.641   9.861  0.00  0.00    +0.000 OA
BRANCH  19  20
ATOM     20  C   UNL     1      44.556   3.965   9.166  0.00  0.00    +0.000 A 
ATOM     21  C   UNL     1      44.635   2.580   9.310  0.00  0.00    +0.000 A 
ATOM     22  N   UNL     1      45.546   1.814   8.652  0.00  0.00    +0.000 NA
ATOM     23  C   UNL     1      46.387   2.515   7.838  0.00  0.00    +0.000 A 
ATOM     24  C   UNL     1      46.313   3.892   7.697  0.00  0.00    +0.000 A 
ATOM     25  N   UNL     1      45.396   4.646   8.357  0.00  0.00    +0.000 NA
BRANCH  23  26
ATOM     26  C   UNL     1      47.410   1.757   7.063  0.00  0.00    +0.000 C 
ATOM     27  N   UNL     1      48.415   2.495   6.506  0.00  0.00    +0.000 N 
ATOM     28  O   UNL     1      47.356   0.541   6.934  0.00  0.00    +0.000 OA
ATOM     29  H   UNL     1      48.444   3.502   6.629  0.00  0.00    +0.000 HD
ATOM     30  H   UNL     1      49.138   2.027   5.979  0.00  0.00    +0.000 HD
ENDBRANCH  23  26
ENDBRANCH  19  20
ENDBRANCH  18  19
ENDBRANCH   2  18
TORSDOF 7
ENDMDL
MODEL 2
REMARK VINA RESULT:    -8.654      2.447      4.051
REMARK INTER + INTRA:         -13.064
REMARK INTER:                 -12.066
REMARK INTRA:                  -0.998
REMARK UNBOUND:                -1.122
REMARK  Name = 
REMARK  8 active torsions:
REMARK  status: ('A' for Active; 'I' for Inactive)
REMARK    1  A    between atoms: C_1  and  C_2
REMARK    2  A    between atoms: C_2  and  O_3
REMARK    3  A    between atoms: C_2  and  C_4
REMARK    4  A    between atoms: C_2  and  C_15
REMARK    5  A    between atoms: C_4  and  O_5
REMARK    6  A    between atoms: O_5  and  C_6
REMARK    7  A    between atoms: C_9  and  C_10
REMARK    8  A    between atoms: C_19  and  C_20
REMARK                            x       y       z     vdW  Elec       q    Type
REMARK                         _______ _______ _______ _____ _____    ______ ____
ROOT
ATOM      1  C   UNL     1      42.847   5.036  12.913  0.00  0.00    +0.000 C 
ATOM      2  C   UNL     1      44.023   4.380  12.175  0.00  0.00    +0.000 C 
ENDROOT
BRANCH   2   3
ATOM      3  C   UNL     1      45.363   4.982  12.611  0.00  0.00    +0.000 A 
ATOM      4  C   UNL     1      46.024   5.930  11.817  0.00  0.00    +0.000 A 
ATOM      5  C   UNL     1      47.231   6.492  12.227  0.00  0.00    +0.000 A 
ATOM      6  C   UNL     1      47.798   6.125  13.448  0.00  0.00    +0.000 A 
ATOM      7  C   UNL     1      47.170   5.199  14.296  0.00  0.00    +0.000 A 
ATOM      8  C   UNL     1      45.959   4.629  13.844  0.00  0.00    +0.000 A 
BRANCH   7   9
ATOM      9  C   UNL     1      47.745   4.865  15.625  0.00  0.00    +0.000 A 
ATOM     10  C   UNL     1      47.480   3.638  16.262  0.00  0.00    +0.000 A 
ATOM     11  C   UNL     1      48.008   3.339  17.524  0.00  0.00    +0.000 A 
ATOM     12  C   UNL     1      48.833   4.253  18.173  0.00  0.00    +0.000 A 
ATOM     13  C   UNL     1      49.117   5.467  17.558  0.00  0.00    +0.000 A 
ATOM     14 CL   UNL     1      50.147   6.601  18.345  0.00  0.00    +0.000 Cl
ATOM     15  C   UNL     1      48.575   5.775  16.308  0.00  0.00    +0.000 A 
ENDBRANCH   7   9
ENDBRANCH   2   3
BRANCH   2  16
ATOM     16  O   UNL     1      43.981   2.983  12.525  0.00  0.00    +0.000 OA
ATOM     17  H   UNL     1      44.012   2.491  11.685  0.00  0.00    +0.000 HD
ENDBRANCH   2  16
BRANCH   2  18
ATOM     18  C   UNL     1      43.851   4.487  10.638  0.00  0.00    +0.000 C 
BRANCH  18  19
ATOM     19  O   UNL     1      43.705   3.169  10.068  0.00  0.00    +0.000 OA
BRANCH  19  20
ATOM     20  C   UNL     1      44.664   2.901   9.112  0.00  0.00    +0.000 A 
ATOM     21  C   UNL     1      45.032   3.925   8.239  0.00  0.00    +0.000 A 
ATOM     22  N   UNL     1      45.983   3.777   7.279  0.00  0.00    +0.000 NA
ATOM     23  C   UNL     1      46.549   2.536   7.232  0.00  0.00    +0.000 A 
ATOM     24  C   UNL     1      46.181   1.516   8.097  0.00  0.00    +0.000 A 
ATOM     25  N   UNL     1      45.232   1.677   9.055  0.00  0.00    +0.000 NA
BRANCH  23  26
ATOM     26  C   UNL     1      47.614   2.284   6.221  0.00  0.00    +0.000 C 
ATOM     27  N   UNL     1      47.678   3.164   5.179  0.00  0.00    +0.000 N 
ATOM     28  O   UNL     1      48.393   1.345   6.320  0.00  0.00    +0.000 OA
ATOM     29  H   UNL     1      47.027   3.939   5.118  0.00  0.00    +0.000 HD
ATOM     30  H   UNL     1      48.389   3.042   4.472  0.00  0.00    +0.000 HD
ENDBRANCH  23  26
ENDBRANCH  19  20
ENDBRANCH  18  19
ENDBRANCH   2  18
TORSDOF 7
ENDMDL
MODEL 3
REMARK VINA RESULT:    -8.533      2.073      2.456
REMARK INTER + INTRA:         -12.898
REMARK INTER:                 -11.812
REMARK INTRA:                  -1.086
REMARK UNBOUND:                -1.122
REMARK  Name = 
REMARK  8 active torsions:
REMARK  status: ('A' for Active; 'I' for Inactive)
REMARK    1  A    between atoms: C_1  and  C_2
REMARK    2  A    between atoms: C_2  and  O_3
REMARK    3  A    between atoms: C_2  and  C_4
REMARK    4  A    between atoms: C_2  and  C_15
REMARK    5  A    between atoms: C_4  and  O_5
REMARK    6  A    between atoms: O_5  and  C_6
REMARK    7  A    between atoms: C_9  and  C_10
REMARK    8  A    between atoms: C_19  and  C_20
REMARK                            x       y       z     vdW  Elec       q    Type
REMARK                         _______ _______ _______ _____ _____    ______ ____
ROOT
ATOM      1  C   UNL     1      42.470   5.398  12.141  0.00  0.00    +0.000 C 
ATOM      2  C   UNL     1      43.626   4.431  12.436  0.00  0.00    +0.000 C 
ENDROOT
BRANCH   2   3
ATOM      3  C   UNL     1      44.925   5.187  12.733  0.00  0.00    +0.000 A 
ATOM      4  C   UNL     1      46.035   4.531  13.286  0.00  0.00    +0.000 A 
ATOM      5  C   UNL     1      47.222   5.216  13.533  0.00  0.00    +0.000 A 
ATOM      6  C   UNL     1      47.329   6.571  13.221  0.00  0.00    +0.000 A 
ATOM      7  C   UNL     1      46.261   7.275  12.643  0.00  0.00    +0.000 A 
ATOM      8  C   UNL     1      45.062   6.560  12.424  0.00  0.00    +0.000 A 
BRANCH   7   9
ATOM      9  C   UNL     1      46.405   8.701  12.251  0.00  0.00    +0.000 A 
ATOM     10  C   UNL     1      47.668   9.311  12.120  0.00  0.00    +0.000 A 
ATOM     11  C   UNL     1      47.796  10.661  11.770  0.00  0.00    +0.000 A 
ATOM     12  C   UNL     1      46.664  11.431  11.524  0.00  0.00    +0.000 A 
ATOM     13  C   UNL     1      45.407  10.848  11.637  0.00  0.00    +0.000 A 
ATOM     14 CL   UNL     1      43.999  11.787  11.322  0.00  0.00    +0.000 Cl
ATOM     15  C   UNL     1      45.276   9.506  12.005  0.00  0.00    +0.000 A 
ENDBRANCH   7   9
ENDBRANCH   2   3
BRANCH   2  16
ATOM     16  O   UNL     1      43.227   3.677  13.596  0.00  0.00    +0.000 OA
ATOM     17  H   UNL     1      42.821   4.315  14.210  0.00  0.00    +0.000 HD
ENDBRANCH   2  16
BRANCH   2  18
ATOM     18  C   UNL     1      43.831   3.430  11.270  0.00  0.00    +0.000 C 
BRANCH  18  19
ATOM     19  O   UNL     1      43.786   4.131  10.009  0.00  0.00    +0.000 OA
BRANCH  19  20
ATOM     20  C   UNL     1      44.775   3.715   9.141  0.00  0.00    +0.000 A 
ATOM     21  C   UNL     1      45.034   2.349   9.038  0.00  0.00    +0.000 A 
ATOM     22  N   UNL     1      45.968   1.830   8.196  0.00  0.00    +0.000 NA
ATOM     23  C   UNL     1      46.640   2.760   7.458  0.00  0.00    +0.000 A 
ATOM     24  C   UNL     1      46.386   4.120   7.562  0.00  0.00    +0.000 A 
ATOM     25  N   UNL     1      45.448   4.625   8.404  0.00  0.00    +0.000 NA
BRANCH  23  26
ATOM     26  C   UNL     1      47.671   2.284   6.494  0.00  0.00    +0.000 C 
ATOM     27  N   UNL     1      47.752   2.961   5.311  0.00  0.00    +0.000 N 
ATOM     28  O   UNL     1      48.410   1.341   6.748  0.00  0.00    +0.000 OA
ATOM     29  H   UNL     1      47.135   3.744   5.123  0.00  0.00    +0.000 HD
ATOM     30  H   UNL     1      48.442   2.683   4.629  0.00  0.00    +0.000 HD
ENDBRANCH  23  26
ENDBRANCH  19  20
ENDBRANCH  18  19
ENDBRANCH   2  18
TORSDOF 7
ENDMDL
MODEL 4
REMARK VINA RESULT:    -7.703      4.359      7.213
REMARK INTER + INTRA:         -11.752
REMARK INTER:                 -10.721
REMARK INTRA:                  -1.031
REMARK UNBOUND:                -1.122
REMARK  Name = 
REMARK  8 active torsions:
REMARK  status: ('A' for Active; 'I' for Inactive)
REMARK    1  A    between atoms: C_1  and  C_2
REMARK    2  A    between atoms: C_2  and  O_3
REMARK    3  A    between atoms: C_2  and  C_4
REMARK    4  A    between atoms: C_2  and  C_15
REMARK    5  A    between atoms: C_4  and  O_5
REMARK    6  A    between atoms: O_5  and  C_6
REMARK    7  A    between atoms: C_9  and  C_10
REMARK    8  A    between atoms: C_19  and  C_20
REMARK                            x       y       z     vdW  Elec       q    Type
REMARK                         _______ _______ _______ _____ _____    ______ ____
ROOT
ATOM      1  C   UNL     1      44.743   8.461  11.346  0.00  0.00    +0.000 C 
ATOM      2  C   UNL     1      45.641   7.255  11.659  0.00  0.00    +0.000 C 
ENDROOT
BRANCH   2   3
ATOM      3  C   UNL     1      45.027   5.951  11.139  0.00  0.00    +0.000 A 
ATOM      4  C   UNL     1      43.789   5.493  11.613  0.00  0.00    +0.000 A 
ATOM      5  C   UNL     1      43.224   4.319  11.121  0.00  0.00    +0.000 A 
ATOM      6  C   UNL     1      43.880   3.583  10.135  0.00  0.00    +0.000 A 
ATOM      7  C   UNL     1      45.110   4.004   9.605  0.00  0.00    +0.000 A 
ATOM      8  C   UNL     1      45.670   5.187  10.138  0.00  0.00    +0.000 A 
BRANCH   7   9
ATOM      9  C   UNL     1      45.769   3.251   8.506  0.00  0.00    +0.000 A 
ATOM     10  C   UNL     1      46.248   3.894   7.348  0.00  0.00    +0.000 A 
ATOM     11  C   UNL     1      46.850   3.175   6.307  0.00  0.00    +0.000 A 
ATOM     12  C   UNL     1      47.005   1.796   6.408  0.00  0.00    +0.000 A 
ATOM     13  C   UNL     1      46.549   1.141   7.546  0.00  0.00    +0.000 A 
ATOM     14 CL   UNL     1      46.747  -0.563   7.687  0.00  0.00    +0.000 Cl
ATOM     15  C   UNL     1      45.931   1.854   8.577  0.00  0.00    +0.000 A 
ENDBRANCH   7   9
ENDBRANCH   2   3
BRANCH   2  16
ATOM     16  O   UNL     1      46.890   7.506  10.988  0.00  0.00    +0.000 OA
ATOM     17  H   UNL     1      47.128   6.676  10.535  0.00  0.00    +0.000 HD
ENDBRANCH   2  16
BRANCH   2  18
ATOM     18  C   UNL     1      45.933   7.153  13.179  0.00  0.00    +0.000 C 
BRANCH  18  19
ATOM     19  O   UNL     1      47.328   6.845  13.390  0.00  0.00    +0.000 OA
BRANCH  19  20
ATOM     20  C   UNL     1      47.514   5.902  14.380  0.00  0.00    +0.000 A 
ATOM     21  C   UNL     1      46.790   4.713  14.306  0.00  0.00    +0.000 A 
ATOM     22  N   UNL     1      46.916   3.707  15.213  0.00  0.00    +0.000 NA
ATOM     23  C   UNL     1      47.810   3.960  16.213  0.00  0.00    +0.000 A 
ATOM     24  C   UNL     1      48.528   5.144  16.290  0.00  0.00    +0.000 A 
ATOM     25  N   UNL     1      48.396   6.139  15.375  0.00  0.00    +0.000 NA
BRANCH  23  26
ATOM     26  C   UNL     1      48.028   2.908  17.245  0.00  0.00    +0.000 C 
ATOM     27  N   UNL     1      46.931   2.532  17.967  0.00  0.00    +0.000 N 
ATOM     28  O   UNL     1      49.128   2.403  17.435  0.00  0.00    +0.000 OA
ATOM     29  H   UNL     1      46.028   2.959  17.790  0.00  0.00    +0.000 HD
ATOM     30  H   UNL     1      47.025   1.816  18.672  0.00  0.00    +0.000 HD
ENDBRANCH  23  26
ENDBRANCH  19  20
ENDBRANCH  18  19
ENDBRANCH   2  18
TORSDOF 7
ENDMDL
MODEL 5
REMARK VINA RESULT:    -7.548      3.241      4.462
REMARK INTER + INTRA:         -11.538
REMARK INTER:                 -10.710
REMARK INTRA:                  -0.829
REMARK UNBOUND:                -1.122
REMARK  Name = 
REMARK  8 active torsions:
REMARK  status: ('A' for Active; 'I' for Inactive)
REMARK    1  A    between atoms: C_1  and  C_2
REMARK    2  A    between atoms: C_2  and  O_3
REMARK    3  A    between atoms: C_2  and  C_4
REMARK    4  A    between atoms: C_2  and  C_15
REMARK    5  A    between atoms: C_4  and  O_5
REMARK    6  A    between atoms: O_5  and  C_6
REMARK    7  A    between atoms: C_9  and  C_10
REMARK    8  A    between atoms: C_19  and  C_20
REMARK                            x       y       z     vdW  Elec       q    Type
REMARK                         _______ _______ _______ _____ _____    ______ ____
ROOT
ATOM      1  C   UNL     1      43.286   5.021  13.067  0.00  0.00    +0.000 C 
ATOM      2  C   UNL     1      44.300   5.377  11.970  0.00  0.00    +0.000 C 
ENDROOT
BRANCH   2   3
ATOM      3  C   UNL     1      44.630   6.874  11.979  0.00  0.00    +0.000 A 
ATOM      4  C   UNL     1      45.740   7.367  12.680  0.00  0.00    +0.000 A 
ATOM      5  C   UNL     1      46.051   8.725  12.666  0.00  0.00    +0.000 A 
ATOM      6  C   UNL     1      45.263   9.618  11.941  0.00  0.00    +0.000 A 
ATOM      7  C   UNL     1      44.154   9.180  11.200  0.00  0.00    +0.000 A 
ATOM      8  C   UNL     1      43.850   7.801  11.250  0.00  0.00    +0.000 A 
BRANCH   7   9
ATOM      9  C   UNL     1      43.361  10.127  10.374  0.00  0.00    +0.000 A 
ATOM     10  C   UNL     1      42.001  10.382  10.636  0.00  0.00    +0.000 A 
ATOM     11  C   UNL     1      41.254  11.261   9.841  0.00  0.00    +0.000 A 
ATOM     12  C   UNL     1      41.855  11.922   8.775  0.00  0.00    +0.000 A 
ATOM     13  C   UNL     1      43.199  11.694   8.503  0.00  0.00    +0.000 A 
ATOM     14 CL   UNL     1      43.957  12.517   7.194  0.00  0.00    +0.000 Cl
ATOM     15  C   UNL     1      43.941  10.804   9.283  0.00  0.00    +0.000 A 
ENDBRANCH   7   9
ENDBRANCH   2   3
BRANCH   2  16
ATOM     16  O   UNL     1      45.487   4.616  12.264  0.00  0.00    +0.000 OA
ATOM     17  H   UNL     1      46.221   5.256  12.292  0.00  0.00    +0.000 HD
ENDBRANCH   2  16
BRANCH   2  18
ATOM     18  C   UNL     1      43.792   4.939  10.572  0.00  0.00    +0.000 C 
BRANCH  18  19
ATOM     19  O   UNL     1      43.952   3.513  10.418  0.00  0.00    +0.000 OA
BRANCH  19  20
ATOM     20  C   UNL     1      44.827   3.189   9.400  0.00  0.00    +0.000 A 
ATOM     21  C   UNL     1      45.340   4.221   8.616  0.00  0.00    +0.000 A 
ATOM     22  N   UNL     1      46.228   4.017   7.606  0.00  0.00    +0.000 NA
ATOM     23  C   UNL     1      46.575   2.711   7.416  0.00  0.00    +0.000 A 
ATOM     24  C   UNL     1      46.061   1.683   8.193  0.00  0.00    +0.000 A 
ATOM     25  N   UNL     1      45.178   1.901   9.201  0.00  0.00    +0.000 NA
BRANCH  23  26
ATOM     26  C   UNL     1      47.556   2.391   6.342  0.00  0.00    +0.000 C 
ATOM     27  N   UNL     1      47.393   3.052   5.158  0.00  0.00    +0.000 N 
ATOM     28  O   UNL     1      48.462   1.585   6.510  0.00  0.00    +0.000 OA
ATOM     29  H   UNL     1      46.640   3.721   5.041  0.00  0.00    +0.000 HD
ATOM     30  H   UNL     1      48.039   2.877   4.402  0.00  0.00    +0.000 HD
ENDBRANCH  23  26
ENDBRANCH  19  20
ENDBRANCH  18  19
ENDBRANCH   2  18
TORSDOF 7
ENDMDL
MODEL 6
REMARK VINA RESULT:    -7.428      4.607      7.643
REMARK INTER + INTRA:         -11.372
REMARK INTER:                 -10.357
REMARK INTRA:                  -1.015
REMARK UNBOUND:                -1.122
REMARK  Name = 
REMARK  8 active torsions:
REMARK  status: ('A' for Active; 'I' for Inactive)
REMARK    1  A    between atoms: C_1  and  C_2
REMARK    2  A    between atoms: C_2  and  O_3
REMARK    3  A    between atoms: C_2  and  C_4
REMARK    4  A    between atoms: C_2  and  C_15
REMARK    5  A    between atoms: C_4  and  O_5
REMARK    6  A    between atoms: O_5  and  C_6
REMARK    7  A    between atoms: C_9  and  C_10
REMARK    8  A    between atoms: C_19  and  C_20
REMARK                            x       y       z     vdW  Elec       q    Type
REMARK                         _______ _______ _______ _____ _____    ______ ____
ROOT
ATOM      1  C   UNL     1      49.452   9.336  11.871  0.00  0.00    +0.000 C 
ATOM      2  C   UNL     1      48.851   8.155  12.645  0.00  0.00    +0.000 C 
ENDROOT
BRANCH   2   3
ATOM      3  C   UNL     1      47.397   7.898  12.234  0.00  0.00    +0.000 A 
ATOM      4  C   UNL     1      46.402   8.864  12.445  0.00  0.00    +0.000 A 
ATOM      5  C   UNL     1      45.086   8.636  12.049  0.00  0.00    +0.000 A 
ATOM      6  C   UNL     1      44.739   7.440  11.422  0.00  0.00    +0.000 A 
ATOM      7  C   UNL     1      45.696   6.446  11.163  0.00  0.00    +0.000 A 
ATOM      8  C   UNL     1      47.017   6.695  11.595  0.00  0.00    +0.000 A 
BRANCH   7   9
ATOM      9  C   UNL     1      45.331   5.203  10.434  0.00  0.00    +0.000 A 
ATOM     10  C   UNL     1      44.502   4.221  11.008  0.00  0.00    +0.000 A 
ATOM     11  C   UNL     1      44.179   3.042  10.323  0.00  0.00    +0.000 A 
ATOM     12  C   UNL     1      44.664   2.826   9.037  0.00  0.00    +0.000 A 
ATOM     13  C   UNL     1      45.476   3.786   8.445  0.00  0.00    +0.000 A 
ATOM     14 CL   UNL     1      46.071   3.535   6.849  0.00  0.00    +0.000 Cl
ATOM     15  C   UNL     1      45.815   4.953   9.134  0.00  0.00    +0.000 A 
ENDBRANCH   7   9
ENDBRANCH   2   3
BRANCH   2  16
ATOM     16  O   UNL     1      49.658   7.010  12.313  0.00  0.00    +0.000 OA
ATOM     17  H   UNL     1      49.286   6.642  11.492  0.00  0.00    +0.000 HD
ENDBRANCH   2  16
BRANCH   2  18
ATOM     18  C   UNL     1      48.953   8.377  14.177  0.00  0.00    +0.000 C 
BRANCH  18  19
ATOM     19  O   UNL     1      49.937   7.482  14.737  0.00  0.00    +0.000 OA
BRANCH  19  20
ATOM     20  C   UNL     1      49.363   6.461  15.467  0.00  0.00    +0.000 A 
ATOM     21  C   UNL     1      49.928   6.130  16.698  0.00  0.00    +0.000 A 
ATOM     22  N   UNL     1      49.427   5.160  17.509  0.00  0.00    +0.000 NA
ATOM     23  C   UNL     1      48.324   4.527  17.016  0.00  0.00    +0.000 A 
ATOM     24  C   UNL     1      47.764   4.852  15.789  0.00  0.00    +0.000 A 
ATOM     25  N   UNL     1      48.271   5.826  14.990  0.00  0.00    +0.000 NA
BRANCH  23  26
ATOM     26  C   UNL     1      47.695   3.459  17.843  0.00  0.00    +0.000 C 
ATOM     27  N   UNL     1      48.287   3.198  19.045  0.00  0.00    +0.000 N 
ATOM     28  O   UNL     1      46.700   2.851  17.469  0.00  0.00    +0.000 OA
ATOM     29  H   UNL     1      49.108   3.717  19.339  0.00  0.00    +0.000 HD
ATOM     30  H   UNL     1      47.892   2.490  19.647  0.00  0.00    +0.000 HD
ENDBRANCH  23  26
ENDBRANCH  19  20
ENDBRANCH  18  19
ENDBRANCH   2  18
TORSDOF 7
ENDMDL
MODEL 7
REMARK VINA RESULT:    -6.610      5.449      7.221
REMARK INTER + INTRA:         -10.243
REMARK INTER:                  -9.448
REMARK INTRA:                  -0.795
REMARK UNBOUND:                -1.122
REMARK  Name = 
REMARK  8 active torsions:
REMARK  status: ('A' for Active; 'I' for Inactive)
REMARK    1  A    between atoms: C_1  and  C_2
REMARK    2  A    between atoms: C_2  and  O_3
REMARK    3  A    between atoms: C_2  and  C_4
REMARK    4  A    between atoms: C_2  and  C_15
REMARK    5  A    between atoms: C_4  and  O_5
REMARK    6  A    between atoms: O_5  and  C_6
REMARK    7  A    between atoms: C_9  and  C_10
REMARK    8  A    between atoms: C_19  and  C_20
REMARK                            x       y       z     vdW  Elec       q    Type
REMARK                         _______ _______ _______ _____ _____    ______ ____
ROOT
ATOM      1  C   UNL     1      47.247   2.577  17.811  0.00  0.00    +0.000 C 
ATOM      2  C   UNL     1      48.123   3.459  16.909  0.00  0.00    +0.000 C 
ENDROOT
BRANCH   2   3
ATOM      3  C   UNL     1      48.894   4.502  17.725  0.00  0.00    +0.000 A 
ATOM      4  C   UNL     1      50.296   4.542  17.709  0.00  0.00    +0.000 A 
ATOM      5  C   UNL     1      50.993   5.506  18.434  0.00  0.00    +0.000 A 
ATOM      6  C   UNL     1      50.301   6.459  19.182  0.00  0.00    +0.000 A 
ATOM      7  C   UNL     1      48.898   6.483  19.216  0.00  0.00    +0.000 A 
ATOM      8  C   UNL     1      48.218   5.480  18.490  0.00  0.00    +0.000 A 
BRANCH   7   9
ATOM      9  C   UNL     1      48.168   7.543  19.960  0.00  0.00    +0.000 A 
ATOM     10  C   UNL     1      47.785   7.377  21.305  0.00  0.00    +0.000 A 
ATOM     11  C   UNL     1      47.079   8.372  21.993  0.00  0.00    +0.000 A 
ATOM     12  C   UNL     1      46.755   9.567  21.358  0.00  0.00    +0.000 A 
ATOM     13  C   UNL     1      47.131   9.757  20.033  0.00  0.00    +0.000 A 
ATOM     14 CL   UNL     1      46.747  11.236  19.241  0.00  0.00    +0.000 Cl
ATOM     15  C   UNL     1      47.819   8.758  19.339  0.00  0.00    +0.000 A 
ENDBRANCH   7   9
ENDBRANCH   2   3
BRANCH   2  16
ATOM     16  O   UNL     1      49.049   2.567  16.260  0.00  0.00    +0.000 OA
ATOM     17  H   UNL     1      49.311   1.911  16.931  0.00  0.00    +0.000 HD
ENDBRANCH   2  16
BRANCH   2  18
ATOM     18  C   UNL     1      47.277   4.146  15.805  0.00  0.00    +0.000 C 
BRANCH  18  19
ATOM     19  O   UNL     1      47.461   3.459  14.549  0.00  0.00    +0.000 OA
BRANCH  19  20
ATOM     20  C   UNL     1      46.525   3.831  13.605  0.00  0.00    +0.000 A 
ATOM     21  C   UNL     1      46.265   5.190  13.431  0.00  0.00    +0.000 A 
ATOM     22  N   UNL     1      45.383   5.667  12.512  0.00  0.00    +0.000 NA
ATOM     23  C   UNL     1      44.765   4.702  11.772  0.00  0.00    +0.000 A 
ATOM     24  C   UNL     1      45.020   3.350  11.946  0.00  0.00    +0.000 A 
ATOM     25  N   UNL     1      45.906   2.887  12.865  0.00  0.00    +0.000 NA
BRANCH  23  26
ATOM     26  C   UNL     1      43.793   5.131  10.727  0.00  0.00    +0.000 C 
ATOM     27  N   UNL     1      43.997   4.634   9.471  0.00  0.00    +0.000 N 
ATOM     28  O   UNL     1      42.859   5.882  10.979  0.00  0.00    +0.000 OA
ATOM     29  H   UNL     1      44.773   4.009   9.285  0.00  0.00    +0.000 HD
ATOM     30  H   UNL     1      43.359   4.888   8.731  0.00  0.00    +0.000 HD
ENDBRANCH  23  26
ENDBRANCH  19  20
ENDBRANCH  18  19
ENDBRANCH   2  18
TORSDOF 7
ENDMDL
MODEL 8
REMARK VINA RESULT:    -6.168      4.348      6.817
REMARK INTER + INTRA:          -9.634
REMARK INTER:                  -8.639
REMARK INTRA:                  -0.994
REMARK UNBOUND:                -1.122
REMARK  Name = 
REMARK  8 active torsions:
REMARK  status: ('A' for Active; 'I' for Inactive)
REMARK    1  A    between atoms: C_1  and  C_2
REMARK    2  A    between atoms: C_2  and  O_3
REMARK    3  A    between atoms: C_2  and  C_4
REMARK    4  A    between atoms: C_2  and  C_15
REMARK    5  A    between atoms: C_4  and  O_5
REMARK    6  A    between atoms: O_5  and  C_6
REMARK    7  A    between atoms: C_9  and  C_10
REMARK    8  A    between atoms: C_19  and  C_20
REMARK                            x       y       z     vdW  Elec       q    Type
REMARK                         _______ _______ _______ _____ _____    ______ ____
ROOT
ATOM      1  C   UNL     1      49.139  10.143  14.695  0.00  0.00    +0.000 C 
ATOM      2  C   UNL     1      48.379   8.811  14.761  0.00  0.00    +0.000 C 
ENDROOT
BRANCH   2   3
ATOM      3  C   UNL     1      48.646   8.080  16.081  0.00  0.00    +0.000 A 
ATOM      4  C   UNL     1      48.414   8.704  17.316  0.00  0.00    +0.000 A 
ATOM      5  C   UNL     1      48.635   8.029  18.513  0.00  0.00    +0.000 A 
ATOM      6  C   UNL     1      49.083   6.708  18.502  0.00  0.00    +0.000 A 
ATOM      7  C   UNL     1      49.310   6.023  17.298  0.00  0.00    +0.000 A 
ATOM      8  C   UNL     1      49.098   6.740  16.099  0.00  0.00    +0.000 A 
BRANCH   7   9
ATOM      9  C   UNL     1      49.722   4.595  17.294  0.00  0.00    +0.000 A 
ATOM     10  C   UNL     1      48.818   3.562  16.978  0.00  0.00    +0.000 A 
ATOM     11  C   UNL     1      49.208   2.217  16.997  0.00  0.00    +0.000 A 
ATOM     12  C   UNL     1      50.518   1.872  17.315  0.00  0.00    +0.000 A 
ATOM     13  C   UNL     1      51.430   2.875  17.622  0.00  0.00    +0.000 A 
ATOM     14 CL   UNL     1      53.056   2.461  18.005  0.00  0.00    +0.000 Cl
ATOM     15  C   UNL     1      51.038   4.216  17.622  0.00  0.00    +0.000 A 
ENDBRANCH   7   9
ENDBRANCH   2   3
BRANCH   2  16
ATOM     16  O   UNL     1      46.982   9.145  14.665  0.00  0.00    +0.000 OA
ATOM     17  H   UNL     1      46.909  10.085  14.909  0.00  0.00    +0.000 HD
ENDBRANCH   2  16
BRANCH   2  18
ATOM     18  C   UNL     1      48.732   7.903  13.554  0.00  0.00    +0.000 C 
BRANCH  18  19
ATOM     19  O   UNL     1      47.735   8.053  12.521  0.00  0.00    +0.000 OA
BRANCH  19  20
ATOM     20  C   UNL     1      46.740   7.100  12.609  0.00  0.00    +0.000 A 
ATOM     21  C   UNL     1      47.104   5.791  12.921  0.00  0.00    +0.000 A 
ATOM     22  N   UNL     1      46.203   4.781  13.058  0.00  0.00    +0.000 NA
ATOM     23  C   UNL     1      44.905   5.153  12.859  0.00  0.00    +0.000 A 
ATOM     24  C   UNL     1      44.543   6.455  12.544  0.00  0.00    +0.000 A 
ATOM     25  N   UNL     1      45.452   7.455  12.413  0.00  0.00    +0.000 NA
BRANCH  23  26
ATOM     26  C   UNL     1      43.845   4.117  13.004  0.00  0.00    +0.000 C 
ATOM     27  N   UNL     1      44.183   2.849  12.628  0.00  0.00    +0.000 N 
ATOM     28  O   UNL     1      42.732   4.384  13.440  0.00  0.00    +0.000 OA
ATOM     29  H   UNL     1      45.112   2.647  12.274  0.00  0.00    +0.000 HD
ATOM     30  H   UNL     1      43.502   2.109  12.716  0.00  0.00    +0.000 HD
ENDBRANCH  23  26
ENDBRANCH  19  20
ENDBRANCH  18  19
ENDBRANCH   2  18
TORSDOF 7
ENDMDL
MODEL 9
REMARK VINA RESULT:    -6.122      4.331      6.368
REMARK INTER + INTRA:          -9.570
REMARK INTER:                  -8.397
REMARK INTRA:                  -1.172
REMARK UNBOUND:                -1.122
REMARK  Name = 
REMARK  8 active torsions:
REMARK  status: ('A' for Active; 'I' for Inactive)
REMARK    1  A    between atoms: C_1  and  C_2
REMARK    2  A    between atoms: C_2  and  O_3
REMARK    3  A    between atoms: C_2  and  C_4
REMARK    4  A    between atoms: C_2  and  C_15
REMARK    5  A    between atoms: C_4  and  O_5
REMARK    6  A    between atoms: O_5  and  C_6
REMARK    7  A    between atoms: C_9  and  C_10
REMARK    8  A    between atoms: C_19  and  C_20
REMARK                            x       y       z     vdW  Elec       q    Type
REMARK                         _______ _______ _______ _____ _____    ______ ____
ROOT
ATOM      1  C   UNL     1      45.150   4.928  11.239  0.00  0.00    +0.000 C 
ATOM      2  C   UNL     1      45.618   5.485  12.592  0.00  0.00    +0.000 C 
ENDROOT
BRANCH   2   3
ATOM      3  C   UNL     1      46.291   6.852  12.432  0.00  0.00    +0.000 A 
ATOM      4  C   UNL     1      45.547   8.039  12.492  0.00  0.00    +0.000 A 
ATOM      5  C   UNL     1      46.166   9.280  12.369  0.00  0.00    +0.000 A 
ATOM      6  C   UNL     1      47.547   9.362  12.194  0.00  0.00    +0.000 A 
ATOM      7  C   UNL     1      48.348   8.209  12.149  0.00  0.00    +0.000 A 
ATOM      8  C   UNL     1      47.690   6.964  12.255  0.00  0.00    +0.000 A 
BRANCH   7   9
ATOM      9  C   UNL     1      49.826   8.308  12.031  0.00  0.00    +0.000 A 
ATOM     10  C   UNL     1      50.595   9.060  12.939  0.00  0.00    +0.000 A 
ATOM     11  C   UNL     1      51.986   9.165  12.809  0.00  0.00    +0.000 A 
ATOM     12  C   UNL     1      52.645   8.504  11.777  0.00  0.00    +0.000 A 
ATOM     13  C   UNL     1      51.907   7.747  10.875  0.00  0.00    +0.000 A 
ATOM     14 CL   UNL     1      52.712   6.914   9.601  0.00  0.00    +0.000 Cl
ATOM     15  C   UNL     1      50.518   7.656  10.991  0.00  0.00    +0.000 A 
ENDBRANCH   7   9
ENDBRANCH   2   3
BRANCH   2  16
ATOM     16  O   UNL     1      44.432   5.620  13.398  0.00  0.00    +0.000 OA
ATOM     17  H   UNL     1      43.997   6.442  13.108  0.00  0.00    +0.000 HD
ENDBRANCH   2  16
BRANCH   2  18
ATOM     18  C   UNL     1      46.566   4.490  13.310  0.00  0.00    +0.000 C 
BRANCH  18  19
ATOM     19  O   UNL     1      46.130   4.295  14.672  0.00  0.00    +0.000 OA
BRANCH  19  20
ATOM     20  C   UNL     1      47.184   4.276  15.564  0.00  0.00    +0.000 A 
ATOM     21  C   UNL     1      48.045   5.373  15.593  0.00  0.00    +0.000 A 
ATOM     22  N   UNL     1      49.098   5.469  16.449  0.00  0.00    +0.000 NA
ATOM     23  C   UNL     1      49.248   4.397  17.279  0.00  0.00    +0.000 A 
ATOM     24  C   UNL     1      48.395   3.304  17.249  0.00  0.00    +0.000 A 
ATOM     25  N   UNL     1      47.345   3.221  16.391  0.00  0.00    +0.000 NA
BRANCH  23  26
ATOM     26  C   UNL     1      50.366   4.420  18.265  0.00  0.00    +0.000 C 
ATOM     27  N   UNL     1      50.016   4.289  19.578  0.00  0.00    +0.000 N 
ATOM     28  O   UNL     1      51.534   4.545  17.918  0.00  0.00    +0.000 OA
ATOM     29  H   UNL     1      49.043   4.181  19.844  0.00  0.00    +0.000 HD
ATOM     30  H   UNL     1      50.739   4.289  20.284  0.00  0.00    +0.000 HD
ENDBRANCH  23  26
ENDBRANCH  19  20
ENDBRANCH  18  19
ENDBRANCH   2  18
TORSDOF 7
ENDMDL
