MODEL 1
REMARK VINA RESULT:    -7.247      0.000      0.000
REMARK INTER + INTRA:         -10.320
REMARK INTER:                  -9.365
REMARK INTRA:                  -0.954
REMARK UNBOUND:                -0.954
REMARK  Name = 
REMARK  5 active torsions:
REMARK  status: ('A' for Active; 'I' for Inactive)
REMARK    1  A    between atoms: C_4  and  O_5
REMARK    2  A    between atoms: O_5  and  C_6
REMARK    3  A    between atoms: C_6  and  C_7
REMARK    4  A    between atoms: C_12  and  C_13
REMARK    5  A    between atoms: C_19  and  C_20
REMARK                            x       y       z     vdW  Elec       q    Type
REMARK                         _______ _______ _______ _____ _____    ______ ____
ROOT
ATOM      1  F   UNL     1      46.049   9.277  12.010  0.00  0.00    +0.000 F 
ATOM      2  C   UNL     1      46.364   8.075  12.511  0.00  0.00    +0.000 A 
ATOM      3  C   UNL     1      47.636   7.871  13.034  0.00  0.00    +0.000 A 
ATOM      4  C   UNL     1      47.962   6.638  13.589  0.00  0.00    +0.000 A 
ATOM      5  C   UNL     1      47.012   5.609  13.566  0.00  0.00    +0.000 A 
ATOM      6  C   UNL     1      45.711   5.813  13.053  0.00  0.00    +0.000 A 
ATOM      7  C   UNL     1      45.396   7.070  12.526  0.00  0.00    +0.000 A 
ENDROOT
BRANCH   6   8
ATOM      8  C   UNL     1      44.698   4.680  13.156  0.00  0.00    +0.000 C 
ATOM      9  C   UNL     1      45.048   3.415  12.348  0.00  0.00    +0.000 C 
ATOM     10  C   UNL     1      44.267   3.224  11.049  0.00  0.00    +0.000 C 
ATOM     11  N   UNL     1      42.848   3.520  11.200  0.00  0.00    +0.000 NA
ATOM     12  C   UNL     1      42.678   4.920  11.579  0.00  0.00    +0.000 C 
ATOM     13  C   UNL     1      43.257   5.188  12.964  0.00  0.00    +0.000 C 
ATOM     14  H   UNL     1      42.443   2.918  11.918  0.00  0.00    +0.000 HD
ENDBRANCH   6   8
BRANCH   4  15
ATOM     15  O   UNL     1      49.217   6.543  14.129  0.00  0.00    +0.000 OA
BRANCH  15  16
ATOM     16  C   UNL     1      49.470   7.365  15.274  0.00  0.00    +0.000 C 
BRANCH  16  17
ATOM     17  C   UNL     1      48.921   6.722  16.531  0.00  0.00    +0.000 A 
ATOM     18  C   UNL     1      48.516   7.537  17.600  0.00  0.00    +0.000 A 
ATOM     19  C   UNL     1      47.989   6.974  18.761  0.00  0.00    +0.000 A 
ATOM     20 CL   UNL     1      47.513   7.994  20.062  0.00  0.00    +0.000 Cl
ATOM     21  C   UNL     1      47.842   5.594  18.873  0.00  0.00    +0.000 A 
ATOM     22  C   UNL     1      48.223   4.757  17.815  0.00  0.00    +0.000 A 
ATOM     23  C   UNL     1      48.753   5.332  16.645  0.00  0.00    +0.000 A 
BRANCH  22  24
ATOM     24  C   UNL     1      48.069   3.259  17.918  0.00  0.00    +0.000 C 
ATOM     25  F   UNL     1      48.302   2.773  19.169  0.00  0.00    +0.000 F 
ATOM     26  F   UNL     1      46.815   2.842  17.585  0.00  0.00    +0.000 F 
ATOM     27  F   UNL     1      48.919   2.589  17.093  0.00  0.00    +0.000 F 
ENDBRANCH  22  24
ENDBRANCH  16  17
ENDBRANCH  15  16
ENDBRANCH   4  15
TORSDOF 5
ENDMDL
MODEL 2
REMARK VINA RESULT:    -6.957      3.930      5.597
REMARK INTER + INTRA:          -9.944
REMARK INTER:                  -9.031
REMARK INTRA:                  -0.913
REMARK UNBOUND:                -0.954
REMARK  Name = 
REMARK  5 active torsions:
REMARK  status: ('A' for Active; 'I' for Inactive)
REMARK    1  A    between atoms: C_4  and  O_5
REMARK    2  A    between atoms: O_5  and  C_6
REMARK    3  A    between atoms: C_6  and  C_7
REMARK    4  A    between atoms: C_12  and  C_13
REMARK    5  A    between atoms: C_19  and  C_20
REMARK                            x       y       z     vdW  Elec       q    Type
REMARK                         _______ _______ _______ _____ _____    ______ ____
ROOT
ATOM      1  F   UNL     1      43.834   2.791  12.517  0.00  0.00    +0.000 F 
ATOM      2  C   UNL     1      44.391   3.401  11.463  0.00  0.00    +0.000 A 
ATOM      3  C   UNL     1      44.847   4.707  11.599  0.00  0.00    +0.000 A 
ATOM      4  C   UNL     1      45.460   5.338  10.521  0.00  0.00    +0.000 A 
ATOM      5  C   UNL     1      45.562   4.657   9.302  0.00  0.00    +0.000 A 
ATOM      6  C   UNL     1      45.117   3.323   9.159  0.00  0.00    +0.000 A 
ATOM      7  C   UNL     1      44.530   2.698  10.265  0.00  0.00    +0.000 A 
ENDROOT
BRANCH   6   8
ATOM      8  C   UNL     1      45.354   2.611   7.834  0.00  0.00    +0.000 C 
ATOM      9  C   UNL     1      45.731   1.122   7.949  0.00  0.00    +0.000 C 
ATOM     10  C   UNL     1      47.207   0.796   7.729  0.00  0.00    +0.000 C 
ATOM     11  N   UNL     1      47.779   1.519   6.601  0.00  0.00    +0.000 NA
ATOM     12  C   UNL     1      47.709   2.955   6.855  0.00  0.00    +0.000 C 
ATOM     13  C   UNL     1      46.263   3.435   6.903  0.00  0.00    +0.000 C 
ATOM     14  H   UNL     1      47.262   1.295   5.749  0.00  0.00    +0.000 HD
ENDBRANCH   6   8
BRANCH   4  15
ATOM     15  O   UNL     1      45.927   6.603  10.761  0.00  0.00    +0.000 OA
BRANCH  15  16
ATOM     16  C   UNL     1      45.951   7.011  12.134  0.00  0.00    +0.000 C 
BRANCH  16  17
ATOM     17  C   UNL     1      47.376   7.165  12.625  0.00  0.00    +0.000 A 
ATOM     18  C   UNL     1      48.380   7.540  11.718  0.00  0.00    +0.000 A 
ATOM     19  C   UNL     1      49.696   7.707  12.147  0.00  0.00    +0.000 A 
ATOM     20 CL   UNL     1      50.910   8.154  11.013  0.00  0.00    +0.000 Cl
ATOM     21  C   UNL     1      50.032   7.520  13.484  0.00  0.00    +0.000 A 
ATOM     22  C   UNL     1      49.047   7.162  14.415  0.00  0.00    +0.000 A 
ATOM     23  C   UNL     1      47.720   6.995  13.976  0.00  0.00    +0.000 A 
BRANCH  22  24
ATOM     24  C   UNL     1      49.393   6.956  15.870  0.00  0.00    +0.000 C 
ATOM     25  F   UNL     1      50.482   6.161  16.063  0.00  0.00    +0.000 F 
ATOM     26  F   UNL     1      49.671   8.127  16.508  0.00  0.00    +0.000 F 
ATOM     27  F   UNL     1      48.380   6.378  16.571  0.00  0.00    +0.000 F 
ENDBRANCH  22  24
ENDBRANCH  16  17
ENDBRANCH  15  16
ENDBRANCH   4  15
TORSDOF 5
ENDMDL
MODEL 3
REMARK VINA RESULT:    -6.952      1.720      2.095
REMARK INTER + INTRA:          -9.938
REMARK INTER:                  -8.855
REMARK INTRA:                  -1.083
REMARK UNBOUND:                -0.954
REMARK  Name = 
REMARK  5 active torsions:
REMARK  status: ('A' for Active; 'I' for Inactive)
REMARK    1  A    between atoms: C_4  and  O_5
REMARK    2  A    between atoms: O_5  and  C_6
REMARK    3  A    between atoms: C_6  and  C_7
REMARK    4  A    between atoms: C_12  and  C_13
REMARK    5  A    between atoms: C_19  and  C_20
REMARK                            x       y       z     vdW  Elec       q    Type
REMARK                         _______ _______ _______ _____ _____    ______ ____
ROOT
ATOM      1  F   UNL     1      44.811   9.563  12.730  0.00  0.00    +0.000 F 
ATOM      2  C   UNL     1      45.622   8.500  12.809  0.00  0.00    +0.000 A 
ATOM      3  C   UNL     1      46.872   8.643  13.401  0.00  0.00    +0.000 A 
ATOM      4  C   UNL     1      47.708   7.537  13.521  0.00  0.00    +0.000 A 
ATOM      5  C   UNL     1      47.289   6.308  12.996  0.00  0.00    +0.000 A 
ATOM      6  C   UNL     1      46.013   6.150  12.408  0.00  0.00    +0.000 A 
ATOM      7  C   UNL     1      45.178   7.268  12.325  0.00  0.00    +0.000 A 
ENDROOT
BRANCH   6   8
ATOM      8  C   UNL     1      45.586   4.760  11.953  0.00  0.00    +0.000 C 
ATOM      9  C   UNL     1      45.023   4.686  10.521  0.00  0.00    +0.000 C 
ATOM     10  C   UNL     1      43.504   4.558  10.415  0.00  0.00    +0.000 C 
ATOM     11  N   UNL     1      42.953   3.609  11.374  0.00  0.00    +0.000 NA
ATOM     12  C   UNL     1      43.232   4.068  12.731  0.00  0.00    +0.000 C 
ATOM     13  C   UNL     1      44.729   4.052  13.019  0.00  0.00    +0.000 C 
ATOM     14  H   UNL     1      43.371   2.689  11.230  0.00  0.00    +0.000 HD
ENDBRANCH   6   8
BRANCH   4  15
ATOM     15  O   UNL     1      48.896   7.758  14.165  0.00  0.00    +0.000 OA
BRANCH  15  16
ATOM     16  C   UNL     1      48.825   7.856  15.592  0.00  0.00    +0.000 C 
BRANCH  16  17
ATOM     17  C   UNL     1      49.327   6.585  16.246  0.00  0.00    +0.000 A 
ATOM     18  C   UNL     1      50.673   6.499  16.638  0.00  0.00    +0.000 A 
ATOM     19  C   UNL     1      51.158   5.349  17.259  0.00  0.00    +0.000 A 
ATOM     20 CL   UNL     1      52.813   5.263  17.718  0.00  0.00    +0.000 Cl
ATOM     21  C   UNL     1      50.312   4.274  17.515  0.00  0.00    +0.000 A 
ATOM     22  C   UNL     1      48.960   4.340  17.149  0.00  0.00    +0.000 A 
ATOM     23  C   UNL     1      48.476   5.504  16.523  0.00  0.00    +0.000 A 
BRANCH  22  24
ATOM     24  C   UNL     1      48.027   3.184  17.420  0.00  0.00    +0.000 C 
ATOM     25  F   UNL     1      48.318   2.069  16.694  0.00  0.00    +0.000 F 
ATOM     26  F   UNL     1      48.049   2.794  18.725  0.00  0.00    +0.000 F 
ATOM     27  F   UNL     1      46.730   3.483  17.139  0.00  0.00    +0.000 F 
ENDBRANCH  22  24
ENDBRANCH  16  17
ENDBRANCH  15  16
ENDBRANCH   4  15
TORSDOF 5
ENDMDL
MODEL 4
REMARK VINA RESULT:    -6.742      4.236      7.504
REMARK INTER + INTRA:          -9.667
REMARK INTER:                  -8.792
REMARK INTRA:                  -0.875
REMARK UNBOUND:                -0.954
REMARK  Name = 
REMARK  5 active torsions:
REMARK  status: ('A' for Active; 'I' for Inactive)
REMARK    1  A    between atoms: C_4  and  O_5
REMARK    2  A    between atoms: O_5  and  C_6
REMARK    3  A    between atoms: C_6  and  C_7
REMARK    4  A    between atoms: C_12  and  C_13
REMARK    5  A    between atoms: C_19  and  C_20
REMARK                            x       y       z     vdW  Elec       q    Type
REMARK                         _______ _______ _______ _____ _____    ______ ____
ROOT
ATOM      1  F   UNL     1      50.695   7.919  15.015  0.00  0.00    +0.000 F 
ATOM      2  C   UNL     1      49.596   7.199  14.754  0.00  0.00    +0.000 A 
ATOM      3  C   UNL     1      48.971   7.337  13.520  0.00  0.00    +0.000 A 
ATOM      4  C   UNL     1      47.850   6.568  13.225  0.00  0.00    +0.000 A 
ATOM      5  C   UNL     1      47.344   5.701  14.201  0.00  0.00    +0.000 A 
ATOM      6  C   UNL     1      47.983   5.541  15.452  0.00  0.00    +0.000 A 
ATOM      7  C   UNL     1      49.125   6.303  15.716  0.00  0.00    +0.000 A 
ENDROOT
BRANCH   6   8
ATOM      8  C   UNL     1      47.435   4.504  16.424  0.00  0.00    +0.000 C 
ATOM      9  C   UNL     1      47.346   4.965  17.892  0.00  0.00    +0.000 C 
ATOM     10  C   UNL     1      48.430   4.421  18.822  0.00  0.00    +0.000 C 
ATOM     11  N   UNL     1      48.693   3.004  18.606  0.00  0.00    +0.000 NA
ATOM     12  C   UNL     1      49.180   2.798  17.245  0.00  0.00    +0.000 C 
ATOM     13  C   UNL     1      48.100   3.129  16.221  0.00  0.00    +0.000 C 
ATOM     14  H   UNL     1      47.837   2.468  18.751  0.00  0.00    +0.000 HD
ENDBRANCH   6   8
BRANCH   4  15
ATOM     15  O   UNL     1      47.333   6.731  11.967  0.00  0.00    +0.000 OA
BRANCH  15  16
ATOM     16  C   UNL     1      45.906   6.663  11.864  0.00  0.00    +0.000 C 
BRANCH  16  17
ATOM     17  C   UNL     1      45.476   5.392  11.161  0.00  0.00    +0.000 A 
ATOM     18  C   UNL     1      44.607   4.505  11.816  0.00  0.00    +0.000 A 
ATOM     19  C   UNL     1      44.179   3.337  11.186  0.00  0.00    +0.000 A 
ATOM     20 CL   UNL     1      43.126   2.260  12.015  0.00  0.00    +0.000 Cl
ATOM     21  C   UNL     1      44.595   3.040   9.891  0.00  0.00    +0.000 A 
ATOM     22  C   UNL     1      45.449   3.917   9.207  0.00  0.00    +0.000 A 
ATOM     23  C   UNL     1      45.877   5.095   9.849  0.00  0.00    +0.000 A 
BRANCH  22  24
ATOM     24  C   UNL     1      45.908   3.613   7.801  0.00  0.00    +0.000 C 
ATOM     25  F   UNL     1      46.629   2.462   7.703  0.00  0.00    +0.000 F 
ATOM     26  F   UNL     1      44.867   3.474   6.934  0.00  0.00    +0.000 F 
ATOM     27  F   UNL     1      46.698   4.594   7.287  0.00  0.00    +0.000 F 
ENDBRANCH  22  24
ENDBRANCH  16  17
ENDBRANCH  15  16
ENDBRANCH   4  15
TORSDOF 5
ENDMDL
MODEL 5
REMARK VINA RESULT:    -6.537      3.515      7.658
REMARK INTER + INTRA:          -9.402
REMARK INTER:                  -8.532
REMARK INTRA:                  -0.870
REMARK UNBOUND:                -0.954
REMARK  Name = 
REMARK  5 active torsions:
REMARK  status: ('A' for Active; 'I' for Inactive)
REMARK    1  A    between atoms: C_4  and  O_5
REMARK    2  A    between atoms: O_5  and  C_6
REMARK    3  A    between atoms: C_6  and  C_7
REMARK    4  A    between atoms: C_12  and  C_13
REMARK    5  A    between atoms: C_19  and  C_20
REMARK                            x       y       z     vdW  Elec       q    Type
REMARK                         _______ _______ _______ _____ _____    ______ ____
ROOT
ATOM      1  F   UNL     1      50.305   1.676  17.464  0.00  0.00    +0.000 F 
ATOM      2  C   UNL     1      49.547   2.779  17.402  0.00  0.00    +0.000 A 
ATOM      3  C   UNL     1      48.485   2.822  16.506  0.00  0.00    +0.000 A 
ATOM      4  C   UNL     1      47.670   3.948  16.459  0.00  0.00    +0.000 A 
ATOM      5  C   UNL     1      47.967   5.038  17.286  0.00  0.00    +0.000 A 
ATOM      6  C   UNL     1      49.034   4.996  18.213  0.00  0.00    +0.000 A 
ATOM      7  C   UNL     1      49.823   3.842  18.263  0.00  0.00    +0.000 A 
ENDROOT
BRANCH   6   8
ATOM      8  C   UNL     1      49.233   6.179  19.152  0.00  0.00    +0.000 C 
ATOM      9  C   UNL     1      47.944   6.733  19.788  0.00  0.00    +0.000 C 
ATOM     10  C   UNL     1      47.421   8.038  19.187  0.00  0.00    +0.000 C 
ATOM     11  N   UNL     1      48.482   9.003  18.935  0.00  0.00    +0.000 NA
ATOM     12  C   UNL     1      49.422   8.454  17.963  0.00  0.00    +0.000 C 
ATOM     13  C   UNL     1      50.156   7.245  18.533  0.00  0.00    +0.000 C 
ATOM     14  H   UNL     1      48.971   9.216  19.805  0.00  0.00    +0.000 HD
ENDBRANCH   6   8
BRANCH   4  15
ATOM     15  O   UNL     1      46.617   3.883  15.586  0.00  0.00    +0.000 OA
BRANCH  15  16
ATOM     16  C   UNL     1      46.957   3.675  14.210  0.00  0.00    +0.000 C 
BRANCH  16  17
ATOM     17  C   UNL     1      46.405   4.789  13.344  0.00  0.00    +0.000 A 
ATOM     18  C   UNL     1      47.229   5.877  13.016  0.00  0.00    +0.000 A 
ATOM     19  C   UNL     1      46.754   6.907  12.205  0.00  0.00    +0.000 A 
ATOM     20 CL   UNL     1      47.779   8.236  11.829  0.00  0.00    +0.000 Cl
ATOM     21  C   UNL     1      45.460   6.864  11.695  0.00  0.00    +0.000 A 
ATOM     22  C   UNL     1      44.621   5.781  11.992  0.00  0.00    +0.000 A 
ATOM     23  C   UNL     1      45.107   4.744  12.811  0.00  0.00    +0.000 A 
BRANCH  22  24
ATOM     24  C   UNL     1      43.215   5.717  11.446  0.00  0.00    +0.000 C 
ATOM     25  F   UNL     1      42.315   5.188  12.321  0.00  0.00    +0.000 F 
ATOM     26  F   UNL     1      42.731   6.946  11.113  0.00  0.00    +0.000 F 
ATOM     27  F   UNL     1      43.128   4.960  10.319  0.00  0.00    +0.000 F 
ENDBRANCH  22  24
ENDBRANCH  16  17
ENDBRANCH  15  16
ENDBRANCH   4  15
TORSDOF 5
ENDMDL
MODEL 6
REMARK VINA RESULT:    -6.416      1.617      2.159
REMARK INTER + INTRA:          -9.246
REMARK INTER:                  -8.495
REMARK INTRA:                  -0.751
REMARK UNBOUND:                -0.954
REMARK  Name = 
REMARK  5 active torsions:
REMARK  status: ('A' for Active; 'I' for Inactive)
REMARK    1  A    between atoms: C_4  and  O_5
REMARK    2  A    between atoms: O_5  and  C_6
REMARK    3  A    between atoms: C_6  and  C_7
REMARK    4  A    between atoms: C_12  and  C_13
REMARK    5  A    between atoms: C_19  and  C_20
REMARK                            x       y       z     vdW  Elec       q    Type
REMARK                         _______ _______ _______ _____ _____    ______ ____
ROOT
ATOM      1  F   UNL     1      48.656   7.971  11.320  0.00  0.00    +0.000 F 
ATOM      2  C   UNL     1      47.912   7.093  12.005  0.00  0.00    +0.000 A 
ATOM      3  C   UNL     1      48.352   6.659  13.251  0.00  0.00    +0.000 A 
ATOM      4  C   UNL     1      47.570   5.774  13.987  0.00  0.00    +0.000 A 
ATOM      5  C   UNL     1      46.374   5.301  13.435  0.00  0.00    +0.000 A 
ATOM      6  C   UNL     1      45.910   5.751  12.177  0.00  0.00    +0.000 A 
ATOM      7  C   UNL     1      46.699   6.662  11.467  0.00  0.00    +0.000 A 
ENDROOT
BRANCH   6   8
ATOM      8  C   UNL     1      44.550   5.272  11.686  0.00  0.00    +0.000 C 
ATOM      9  C   UNL     1      43.712   4.506  12.727  0.00  0.00    +0.000 C 
ATOM     10  C   UNL     1      43.666   2.989  12.551  0.00  0.00    +0.000 C 
ATOM     11  N   UNL     1      43.487   2.591  11.160  0.00  0.00    +0.000 NA
ATOM     12  C   UNL     1      44.619   3.062  10.367  0.00  0.00    +0.000 C 
ATOM     13  C   UNL     1      44.653   4.586  10.311  0.00  0.00    +0.000 C 
ATOM     14  H   UNL     1      42.622   2.990  10.795  0.00  0.00    +0.000 HD
ENDBRANCH   6   8
BRANCH   4  15
ATOM     15  O   UNL     1      48.055   5.443  15.225  0.00  0.00    +0.000 OA
BRANCH  15  16
ATOM     16  C   UNL     1      48.966   6.380  15.811  0.00  0.00    +0.000 C 
BRANCH  16  17
ATOM     17  C   UNL     1      48.647   6.597  17.276  0.00  0.00    +0.000 A 
ATOM     18  C   UNL     1      48.096   7.821  17.686  0.00  0.00    +0.000 A 
ATOM     19  C   UNL     1      47.776   8.042  19.025  0.00  0.00    +0.000 A 
ATOM     20 CL   UNL     1      47.114   9.556  19.503  0.00  0.00    +0.000 Cl
ATOM     21  C   UNL     1      47.983   7.045  19.974  0.00  0.00    +0.000 A 
ATOM     22  C   UNL     1      48.516   5.807  19.590  0.00  0.00    +0.000 A 
ATOM     23  C   UNL     1      48.837   5.590  18.237  0.00  0.00    +0.000 A 
BRANCH  22  24
ATOM     24  C   UNL     1      48.745   4.713  20.606  0.00  0.00    +0.000 C 
ATOM     25  F   UNL     1      50.045   4.601  20.999  0.00  0.00    +0.000 F 
ATOM     26  F   UNL     1      48.028   4.906  21.747  0.00  0.00    +0.000 F 
ATOM     27  F   UNL     1      48.389   3.486  20.140  0.00  0.00    +0.000 F 
ENDBRANCH  22  24
ENDBRANCH  16  17
ENDBRANCH  15  16
ENDBRANCH   4  15
TORSDOF 5
ENDMDL
MODEL 7
REMARK VINA RESULT:    -6.375      4.572      7.650
REMARK INTER + INTRA:          -9.193
REMARK INTER:                  -8.305
REMARK INTRA:                  -0.888
REMARK UNBOUND:                -0.954
REMARK  Name = 
REMARK  5 active torsions:
REMARK  status: ('A' for Active; 'I' for Inactive)
REMARK    1  A    between atoms: C_4  and  O_5
REMARK    2  A    between atoms: O_5  and  C_6
REMARK    3  A    between atoms: C_6  and  C_7
REMARK    4  A    between atoms: C_12  and  C_13
REMARK    5  A    between atoms: C_19  and  C_20
REMARK                            x       y       z     vdW  Elec       q    Type
REMARK                         _______ _______ _______ _____ _____    ______ ____
ROOT
ATOM      1  F   UNL     1      50.211   8.634  11.197  0.00  0.00    +0.000 F 
ATOM      2  C   UNL     1      49.504   8.140  12.222  0.00  0.00    +0.000 A 
ATOM      3  C   UNL     1      48.141   7.916  12.060  0.00  0.00    +0.000 A 
ATOM      4  C   UNL     1      47.404   7.370  13.106  0.00  0.00    +0.000 A 
ATOM      5  C   UNL     1      48.044   7.101  14.322  0.00  0.00    +0.000 A 
ATOM      6  C   UNL     1      49.432   7.308  14.490  0.00  0.00    +0.000 A 
ATOM      7  C   UNL     1      50.159   7.831  13.415  0.00  0.00    +0.000 A 
ENDROOT
BRANCH   6   8
ATOM      8  C   UNL     1      50.079   6.895  15.806  0.00  0.00    +0.000 C 
ATOM      9  C   UNL     1      49.401   5.712  16.524  0.00  0.00    +0.000 C 
ATOM     10  C   UNL     1      48.536   6.081  17.729  0.00  0.00    +0.000 C 
ATOM     11  N   UNL     1      49.163   7.081  18.584  0.00  0.00    +0.000 NA
ATOM     12  C   UNL     1      49.361   8.315  17.829  0.00  0.00    +0.000 C 
ATOM     13  C   UNL     1      50.368   8.113  16.702  0.00  0.00    +0.000 C 
ATOM     14  H   UNL     1      50.063   6.735  18.919  0.00  0.00    +0.000 HD
ENDBRANCH   6   8
BRANCH   4  15
ATOM     15  O   UNL     1      46.081   7.134  12.840  0.00  0.00    +0.000 OA
BRANCH  15  16
ATOM     16  C   UNL     1      45.710   7.143  11.457  0.00  0.00    +0.000 C 
BRANCH  16  17
ATOM     17  C   UNL     1      45.395   5.742  10.974  0.00  0.00    +0.000 A 
ATOM     18  C   UNL     1      44.631   4.890  11.788  0.00  0.00    +0.000 A 
ATOM     19  C   UNL     1      44.310   3.602  11.362  0.00  0.00    +0.000 A 
ATOM     20 CL   UNL     1      43.384   2.573  12.383  0.00  0.00    +0.000 Cl
ATOM     21  C   UNL     1      44.728   3.146  10.115  0.00  0.00    +0.000 A 
ATOM     22  C   UNL     1      45.478   3.981   9.275  0.00  0.00    +0.000 A 
ATOM     23  C   UNL     1      45.799   5.281   9.711  0.00  0.00    +0.000 A 
BRANCH  22  24
ATOM     24  C   UNL     1      45.939   3.504   7.918  0.00  0.00    +0.000 C 
ATOM     25  F   UNL     1      46.854   4.328   7.335  0.00  0.00    +0.000 F 
ATOM     26  F   UNL     1      46.525   2.276   7.972  0.00  0.00    +0.000 F 
ATOM     27  F   UNL     1      44.915   3.395   7.029  0.00  0.00    +0.000 F 
ENDBRANCH  22  24
ENDBRANCH  16  17
ENDBRANCH  15  16
ENDBRANCH   4  15
TORSDOF 5
ENDMDL
MODEL 8
REMARK VINA RESULT:    -6.352      2.168      2.628
REMARK INTER + INTRA:          -9.163
REMARK INTER:                  -8.495
REMARK INTRA:                  -0.668
REMARK UNBOUND:                -0.954
REMARK  Name = 
REMARK  5 active torsions:
REMARK  status: ('A' for Active; 'I' for Inactive)
REMARK    1  A    between atoms: C_4  and  O_5
REMARK    2  A    between atoms: O_5  and  C_6
REMARK    3  A    between atoms: C_6  and  C_7
REMARK    4  A    between atoms: C_12  and  C_13
REMARK    5  A    between atoms: C_19  and  C_20
REMARK                            x       y       z     vdW  Elec       q    Type
REMARK                         _______ _______ _______ _____ _____    ______ ____
ROOT
ATOM      1  F   UNL     1      48.578   8.199  11.397  0.00  0.00    +0.000 F 
ATOM      2  C   UNL     1      47.873   7.223  11.983  0.00  0.00    +0.000 A 
ATOM      3  C   UNL     1      48.319   6.693  13.188  0.00  0.00    +0.000 A 
ATOM      4  C   UNL     1      47.575   5.704  13.823  0.00  0.00    +0.000 A 
ATOM      5  C   UNL     1      46.412   5.227  13.208  0.00  0.00    +0.000 A 
ATOM      6  C   UNL     1      45.941   5.772  11.991  0.00  0.00    +0.000 A 
ATOM      7  C   UNL     1      46.690   6.786  11.385  0.00  0.00    +0.000 A 
ENDROOT
BRANCH   6   8
ATOM      8  C   UNL     1      44.613   5.275  11.433  0.00  0.00    +0.000 C 
ATOM      9  C   UNL     1      43.696   4.574  12.454  0.00  0.00    +0.000 C 
ATOM     10  C   UNL     1      43.648   3.050  12.360  0.00  0.00    +0.000 C 
ATOM     11  N   UNL     1      43.561   2.576  10.984  0.00  0.00    +0.000 NA
ATOM     12  C   UNL     1      44.750   2.995  10.248  0.00  0.00    +0.000 C 
ATOM     13  C   UNL     1      44.804   4.512  10.109  0.00  0.00    +0.000 C 
ATOM     14  H   UNL     1      42.727   2.959  10.538  0.00  0.00    +0.000 HD
ENDBRANCH   6   8
BRANCH   4  15
ATOM     15  O   UNL     1      48.061   5.279  15.031  0.00  0.00    +0.000 OA
BRANCH  15  16
ATOM     16  C   UNL     1      48.555   6.304  15.902  0.00  0.00    +0.000 C 
BRANCH  16  17
ATOM     17  C   UNL     1      49.116   5.705  17.175  0.00  0.00    +0.000 A 
ATOM     18  C   UNL     1      48.413   5.867  18.380  0.00  0.00    +0.000 A 
ATOM     19  C   UNL     1      48.896   5.312  19.563  0.00  0.00    +0.000 A 
ATOM     20 CL   UNL     1      48.022   5.536  21.028  0.00  0.00    +0.000 Cl
ATOM     21  C   UNL     1      50.076   4.573  19.567  0.00  0.00    +0.000 A 
ATOM     22  C   UNL     1      50.789   4.380  18.375  0.00  0.00    +0.000 A 
ATOM     23  C   UNL     1      50.296   4.944  17.184  0.00  0.00    +0.000 A 
BRANCH  22  24
ATOM     24  C   UNL     1      52.069   3.580  18.360  0.00  0.00    +0.000 C 
ATOM     25  F   UNL     1      53.036   4.118  17.565  0.00  0.00    +0.000 F 
ATOM     26  F   UNL     1      52.627   3.468  19.598  0.00  0.00    +0.000 F 
ATOM     27  F   UNL     1      51.884   2.308  17.913  0.00  0.00    +0.000 F 
ENDBRANCH  22  24
ENDBRANCH  16  17
ENDBRANCH  15  16
ENDBRANCH   4  15
TORSDOF 5
ENDMDL
MODEL 9
REMARK VINA RESULT:    -6.330      3.322      6.229
REMARK INTER + INTRA:          -9.135
REMARK INTER:                  -8.112
REMARK INTRA:                  -1.023
REMARK UNBOUND:                -0.954
REMARK  Name = 
REMARK  5 active torsions:
REMARK  status: ('A' for Active; 'I' for Inactive)
REMARK    1  A    between atoms: C_4  and  O_5
REMARK    2  A    between atoms: O_5  and  C_6
REMARK    3  A    between atoms: C_6  and  C_7
REMARK    4  A    between atoms: C_12  and  C_13
REMARK    5  A    between atoms: C_19  and  C_20
REMARK                            x       y       z     vdW  Elec       q    Type
REMARK                         _______ _______ _______ _____ _____    ______ ____
ROOT
ATOM      1  F   UNL     1      53.730   6.475  16.384  0.00  0.00    +0.000 F 
ATOM      2  C   UNL     1      52.392   6.407  16.376  0.00  0.00    +0.000 A 
ATOM      3  C   UNL     1      51.674   7.260  15.546  0.00  0.00    +0.000 A 
ATOM      4  C   UNL     1      50.287   7.174  15.503  0.00  0.00    +0.000 A 
ATOM      5  C   UNL     1      49.636   6.256  16.337  0.00  0.00    +0.000 A 
ATOM      6  C   UNL     1      50.358   5.372  17.171  0.00  0.00    +0.000 A 
ATOM      7  C   UNL     1      51.754   5.458  17.176  0.00  0.00    +0.000 A 
ENDROOT
BRANCH   6   8
ATOM      8  C   UNL     1      49.588   4.331  17.973  0.00  0.00    +0.000 C 
ATOM      9  C   UNL     1      49.487   2.942  17.314  0.00  0.00    +0.000 C 
ATOM     10  C   UNL     1      48.139   2.609  16.678  0.00  0.00    +0.000 C 
ATOM     11  N   UNL     1      47.012   3.011  17.510  0.00  0.00    +0.000 NA
ATOM     12  C   UNL     1      47.032   4.459  17.694  0.00  0.00    +0.000 C 
ATOM     13  C   UNL     1      48.253   4.893  18.497  0.00  0.00    +0.000 C 
ATOM     14  H   UNL     1      47.069   2.548  18.417  0.00  0.00    +0.000 HD
ENDBRANCH   6   8
BRANCH   4  15
ATOM     15  O   UNL     1      49.666   8.015  14.618  0.00  0.00    +0.000 OA
BRANCH  15  16
ATOM     16  C   UNL     1      49.447   7.489  13.304  0.00  0.00    +0.000 C 
BRANCH  16  17
ATOM     17  C   UNL     1      47.976   7.214  13.071  0.00  0.00    +0.000 A 
ATOM     18  C   UNL     1      47.102   8.290  12.845  0.00  0.00    +0.000 A 
ATOM     19  C   UNL     1      45.747   8.066  12.609  0.00  0.00    +0.000 A 
ATOM     20 CL   UNL     1      44.695   9.401  12.348  0.00  0.00    +0.000 Cl
ATOM     21  C   UNL     1      45.241   6.769  12.579  0.00  0.00    +0.000 A 
ATOM     22  C   UNL     1      46.093   5.676  12.785  0.00  0.00    +0.000 A 
ATOM     23  C   UNL     1      47.461   5.909  13.022  0.00  0.00    +0.000 A 
BRANCH  22  24
ATOM     24  C   UNL     1      45.562   4.263  12.753  0.00  0.00    +0.000 C 
ATOM     25  F   UNL     1      45.360   3.786  11.493  0.00  0.00    +0.000 F 
ATOM     26  F   UNL     1      46.405   3.378  13.354  0.00  0.00    +0.000 F 
ATOM     27  F   UNL     1      44.368   4.139  13.394  0.00  0.00    +0.000 F 
ENDBRANCH  22  24
ENDBRANCH  16  17
ENDBRANCH  15  16
ENDBRANCH   4  15
TORSDOF 5
ENDMDL
