MODEL 1
REMARK VINA RESULT:    -7.942      0.000      0.000
REMARK INTER + INTRA:         -12.529
REMARK INTER:                 -11.656
REMARK INTRA:                  -0.873
REMARK UNBOUND:                -0.873
REMARK  Name = 
REMARK  8 active torsions:
REMARK  status: ('A' for Active; 'I' for Inactive)
REMARK    1  A    between atoms: C_2  and  C_12
REMARK    2  A    between atoms: N_3  and  C_4
REMARK    3  A    between atoms: C_4  and  C_5
REMARK    4  A    between atoms: C_5  and  C_6
REMARK    5  A    between atoms: C_15  and  C_16
REMARK    6  A    between atoms: C_16  and  N_17
REMARK    7  A    between atoms: N_17  and  C_18
REMARK    8  A    between atoms: C_18  and  C_19
REMARK                            x       y       z     vdW  Elec       q    Type
REMARK                         _______ _______ _______ _____ _____    ______ ____
ROOT
ATOM      1  C   UNL     1      47.338   5.944  13.487  0.00  0.00    +0.000 A 
ATOM      2  C   UNL     1      46.732   4.765  13.932  0.00  0.00    +0.000 A 
ATOM      3  C   UNL     1      45.768   4.129  13.145  0.00  0.00    +0.000 A 
ATOM      4  C   UNL     1      45.403   4.654  11.897  0.00  0.00    +0.000 A 
ATOM      5  C   UNL     1      46.017   5.837  11.457  0.00  0.00    +0.000 A 
ATOM      6  C   UNL     1      46.978   6.481  12.246  0.00  0.00    +0.000 A 
ENDROOT
BRANCH   1   8
ATOM      7  O   UNL     1      49.424   6.988  13.821  0.00  0.00    +0.000 OA
ATOM      8  C   UNL     1      48.396   6.563  14.334  0.00  0.00    +0.000 C 
ATOM      9  N   UNL     1      48.153   6.596  15.693  0.00  0.00    +0.000 N 
ATOM     10  H   UNL     1      47.420   6.005  16.061  0.00  0.00    +0.000 HD
BRANCH   9  11
ATOM     11  C   UNL     1      49.169   7.102  16.607  0.00  0.00    +0.000 C 
BRANCH  11  12
ATOM     12  C   UNL     1      49.270   6.251  17.873  0.00  0.00    +0.000 C 
BRANCH  12  13
ATOM     13  C   UNL     1      49.465   4.782  17.589  0.00  0.00    +0.000 A 
ATOM     14  C   UNL     1      48.379   3.980  17.213  0.00  0.00    +0.000 A 
ATOM     15  C   UNL     1      48.566   2.629  16.914  0.00  0.00    +0.000 A 
ATOM     16  C   UNL     1      49.837   2.065  16.994  0.00  0.00    +0.000 A 
ATOM     17  C   UNL     1      50.921   2.848  17.388  0.00  0.00    +0.000 A 
ATOM     18  C   UNL     1      50.736   4.201  17.688  0.00  0.00    +0.000 A 
ENDBRANCH  12  13
ENDBRANCH  11  12
ENDBRANCH   9  11
ENDBRANCH   1   8
BRANCH   4  19
ATOM     19  C   UNL     1      44.422   3.917  11.012  0.00  0.00    +0.000 C 
BRANCH  19  20
ATOM     20  N   UNL     1      44.915   2.594  10.627  0.00  0.00    +0.000 NA
ATOM     21  H   UNL     1      44.484   1.893  11.231  0.00  0.00    +0.000 HD
BRANCH  20  22
ATOM     22  C   UNL     1      44.538   2.295   9.239  0.00  0.00    +0.000 C 
BRANCH  22  23
ATOM     23  C   UNL     1      45.744   2.014   8.367  0.00  0.00    +0.000 A 
ATOM     24  N   UNL     1      46.051   0.696   8.193  0.00  0.00    +0.000 NA
ATOM     25  C   UNL     1      47.117   0.420   7.424  0.00  0.00    +0.000 A 
ATOM     26  N   UNL     1      47.902   1.320   6.817  0.00  0.00    +0.000 NA
ATOM     27  C   UNL     1      47.571   2.613   7.027  0.00  0.00    +0.000 A 
ATOM     28  C   UNL     1      46.502   3.025   7.798  0.00  0.00    +0.000 A 
ATOM     29 CL   UNL     1      46.182   4.702   7.983  0.00  0.00    +0.000 Cl
ENDBRANCH  22  23
ENDBRANCH  20  22
ENDBRANCH  19  20
ENDBRANCH   4  19
TORSDOF 8
ENDMDL
MODEL 2
REMARK VINA RESULT:    -7.834      3.055      8.613
REMARK INTER + INTRA:         -12.371
REMARK INTER:                 -11.474
REMARK INTRA:                  -0.897
REMARK UNBOUND:                -0.873
REMARK  Name = 
REMARK  8 active torsions:
REMARK  status: ('A' for Active; 'I' for Inactive)
REMARK    1  A    between atoms: C_2  and  C_12
REMARK    2  A    between atoms: N_3  and  C_4
REMARK    3  A    between atoms: C_4  and  C_5
REMARK    4  A    between atoms: C_5  and  C_6
REMARK    5  A    between atoms: C_15  and  C_16
REMARK    6  A    between atoms: C_16  and  N_17
REMARK    7  A    between atoms: N_17  and  C_18
REMARK    8  A    between atoms: C_18  and  C_19
REMARK                            x       y       z     vdW  Elec       q    Type
REMARK                         _______ _______ _______ _____ _____    ______ ____
ROOT
ATOM      1  C   UNL     1      46.499   5.691  12.185  0.00  0.00    +0.000 A 
ATOM      2  C   UNL     1      46.444   4.928  13.355  0.00  0.00    +0.000 A 
ATOM      3  C   UNL     1      47.234   5.269  14.456  0.00  0.00    +0.000 A 
ATOM      4  C   UNL     1      48.083   6.386  14.409  0.00  0.00    +0.000 A 
ATOM      5  C   UNL     1      48.130   7.148  13.232  0.00  0.00    +0.000 A 
ATOM      6  C   UNL     1      47.345   6.804  12.124  0.00  0.00    +0.000 A 
ENDROOT
BRANCH   1   8
ATOM      7  O   UNL     1      45.352   6.139  10.175  0.00  0.00    +0.000 OA
ATOM      8  C   UNL     1      45.603   5.322  11.053  0.00  0.00    +0.000 C 
ATOM      9  N   UNL     1      45.074   4.046  11.080  0.00  0.00    +0.000 N 
ATOM     10  H   UNL     1      45.115   3.532  11.949  0.00  0.00    +0.000 HD
BRANCH   9  11
ATOM     11  C   UNL     1      44.119   3.628  10.062  0.00  0.00    +0.000 C 
BRANCH  11  12
ATOM     12  C   UNL     1      44.484   2.269   9.465  0.00  0.00    +0.000 C 
BRANCH  12  13
ATOM     13  C   UNL     1      45.539   2.354   8.391  0.00  0.00    +0.000 A 
ATOM     14  C   UNL     1      46.381   1.263   8.133  0.00  0.00    +0.000 A 
ATOM     15  C   UNL     1      47.333   1.329   7.112  0.00  0.00    +0.000 A 
ATOM     16  C   UNL     1      47.458   2.485   6.346  0.00  0.00    +0.000 A 
ATOM     17  C   UNL     1      46.640   3.583   6.608  0.00  0.00    +0.000 A 
ATOM     18  C   UNL     1      45.687   3.521   7.628  0.00  0.00    +0.000 A 
ENDBRANCH  12  13
ENDBRANCH  11  12
ENDBRANCH   9  11
ENDBRANCH   1   8
BRANCH   4  19
ATOM     19  C   UNL     1      48.872   6.801  15.631  0.00  0.00    +0.000 C 
BRANCH  19  20
ATOM     20  N   UNL     1      48.443   6.085  16.833  0.00  0.00    +0.000 NA
ATOM     21  H   UNL     1      47.938   5.243  16.553  0.00  0.00    +0.000 HD
BRANCH  20  22
ATOM     22  C   UNL     1      49.611   5.676  17.626  0.00  0.00    +0.000 C 
BRANCH  22  23
ATOM     23  C   UNL     1      49.974   4.223  17.401  0.00  0.00    +0.000 A 
ATOM     24  N   UNL     1      48.976   3.437  16.905  0.00  0.00    +0.000 NA
ATOM     25  C   UNL     1      49.273   2.143  16.697  0.00  0.00    +0.000 A 
ATOM     26  N   UNL     1      50.455   1.561  16.934  0.00  0.00    +0.000 NA
ATOM     27  C   UNL     1      51.411   2.373  17.437  0.00  0.00    +0.000 A 
ATOM     28  C   UNL     1      51.230   3.716  17.697  0.00  0.00    +0.000 A 
ATOM     29 CL   UNL     1      52.527   4.644  18.333  0.00  0.00    +0.000 Cl
ENDBRANCH  22  23
ENDBRANCH  20  22
ENDBRANCH  19  20
ENDBRANCH   4  19
TORSDOF 8
ENDMDL
MODEL 3
REMARK VINA RESULT:    -7.802      3.005      8.814
REMARK INTER + INTRA:         -12.324
REMARK INTER:                 -11.515
REMARK INTRA:                  -0.809
REMARK UNBOUND:                -0.873
REMARK  Name = 
REMARK  8 active torsions:
REMARK  status: ('A' for Active; 'I' for Inactive)
REMARK    1  A    between atoms: C_2  and  C_12
REMARK    2  A    between atoms: N_3  and  C_4
REMARK    3  A    between atoms: C_4  and  C_5
REMARK    4  A    between atoms: C_5  and  C_6
REMARK    5  A    between atoms: C_15  and  C_16
REMARK    6  A    between atoms: C_16  and  N_17
REMARK    7  A    between atoms: N_17  and  C_18
REMARK    8  A    between atoms: C_18  and  C_19
REMARK                            x       y       z     vdW  Elec       q    Type
REMARK                         _______ _______ _______ _____ _____    ______ ____
ROOT
ATOM      1  C   UNL     1      46.131   5.010  12.667  0.00  0.00    +0.000 A 
ATOM      2  C   UNL     1      46.605   4.596  13.915  0.00  0.00    +0.000 A 
ATOM      3  C   UNL     1      47.551   5.364  14.599  0.00  0.00    +0.000 A 
ATOM      4  C   UNL     1      48.030   6.564  14.052  0.00  0.00    +0.000 A 
ATOM      5  C   UNL     1      47.547   6.974  12.799  0.00  0.00    +0.000 A 
ATOM      6  C   UNL     1      46.604   6.203  12.108  0.00  0.00    +0.000 A 
ENDROOT
BRANCH   1   8
ATOM      7  O   UNL     1      44.399   3.412  12.648  0.00  0.00    +0.000 OA
ATOM      8  C   UNL     1      45.086   4.188  11.995  0.00  0.00    +0.000 C 
ATOM      9  N   UNL     1      44.970   4.341  10.628  0.00  0.00    +0.000 N 
ATOM     10  H   UNL     1      45.728   4.792  10.133  0.00  0.00    +0.000 HD
BRANCH   9  11
ATOM     11  C   UNL     1      44.036   3.514   9.874  0.00  0.00    +0.000 C 
BRANCH  11  12
ATOM     12  C   UNL     1      44.654   2.172   9.482  0.00  0.00    +0.000 C 
BRANCH  12  13
ATOM     13  C   UNL     1      45.633   2.278   8.339  0.00  0.00    +0.000 A 
ATOM     14  C   UNL     1      45.724   3.458   7.588  0.00  0.00    +0.000 A 
ATOM     15  C   UNL     1      46.656   3.569   6.554  0.00  0.00    +0.000 A 
ATOM     16  C   UNL     1      47.501   2.502   6.257  0.00  0.00    +0.000 A 
ATOM     17  C   UNL     1      47.405   1.317   6.984  0.00  0.00    +0.000 A 
ATOM     18  C   UNL     1      46.473   1.203   8.019  0.00  0.00    +0.000 A 
ENDBRANCH  12  13
ENDBRANCH  11  12
ENDBRANCH   9  11
ENDBRANCH   1   8
BRANCH   4  19
ATOM     19  C   UNL     1      48.989   7.434  14.833  0.00  0.00    +0.000 C 
BRANCH  19  20
ATOM     20  N   UNL     1      50.226   6.729  15.168  0.00  0.00    +0.000 NA
ATOM     21  H   UNL     1      51.009   7.202  14.715  0.00  0.00    +0.000 HD
BRANCH  20  22
ATOM     22  C   UNL     1      50.452   6.757  16.619  0.00  0.00    +0.000 C 
BRANCH  22  23
ATOM     23  C   UNL     1      49.771   5.604  17.327  0.00  0.00    +0.000 A 
ATOM     24  N   UNL     1      50.270   4.365  17.048  0.00  0.00    +0.000 NA
ATOM     25  C   UNL     1      49.684   3.324  17.662  0.00  0.00    +0.000 A 
ATOM     26  N   UNL     1      48.657   3.395  18.519  0.00  0.00    +0.000 NA
ATOM     27  C   UNL     1      48.185   4.639  18.756  0.00  0.00    +0.000 A 
ATOM     28  C   UNL     1      48.699   5.786  18.186  0.00  0.00    +0.000 A 
ATOM     29 CL   UNL     1      48.013   7.312  18.574  0.00  0.00    +0.000 Cl
ENDBRANCH  22  23
ENDBRANCH  20  22
ENDBRANCH  19  20
ENDBRANCH   4  19
TORSDOF 8
ENDMDL
MODEL 4
REMARK VINA RESULT:    -7.705      2.893      8.802
REMARK INTER + INTRA:         -12.181
REMARK INTER:                 -11.280
REMARK INTRA:                  -0.900
REMARK UNBOUND:                -0.873
REMARK  Name = 
REMARK  8 active torsions:
REMARK  status: ('A' for Active; 'I' for Inactive)
REMARK    1  A    between atoms: C_2  and  C_12
REMARK    2  A    between atoms: N_3  and  C_4
REMARK    3  A    between atoms: C_4  and  C_5
REMARK    4  A    between atoms: C_5  and  C_6
REMARK    5  A    between atoms: C_15  and  C_16
REMARK    6  A    between atoms: C_16  and  N_17
REMARK    7  A    between atoms: N_17  and  C_18
REMARK    8  A    between atoms: C_18  and  C_19
REMARK                            x       y       z     vdW  Elec       q    Type
REMARK                         _______ _______ _______ _____ _____    ______ ____
ROOT
ATOM      1  C   UNL     1      46.580   5.597  12.779  0.00  0.00    +0.000 A 
ATOM      2  C   UNL     1      47.344   6.761  12.907  0.00  0.00    +0.000 A 
ATOM      3  C   UNL     1      48.066   7.005  14.078  0.00  0.00    +0.000 A 
ATOM      4  C   UNL     1      48.045   6.084  15.136  0.00  0.00    +0.000 A 
ATOM      5  C   UNL     1      47.277   4.917  14.999  0.00  0.00    +0.000 A 
ATOM      6  C   UNL     1      46.547   4.673  13.830  0.00  0.00    +0.000 A 
ENDROOT
BRANCH   1   8
ATOM      7  O   UNL     1      46.043   6.099  10.540  0.00  0.00    +0.000 OA
ATOM      8  C   UNL     1      45.866   5.352  11.494  0.00  0.00    +0.000 C 
ATOM      9  N   UNL     1      45.002   4.275  11.468  0.00  0.00    +0.000 N 
ATOM     10  H   UNL     1      44.716   3.872  12.350  0.00  0.00    +0.000 HD
BRANCH   9  11
ATOM     11  C   UNL     1      44.196   4.011  10.284  0.00  0.00    +0.000 C 
BRANCH  11  12
ATOM     12  C   UNL     1      44.438   2.606   9.732  0.00  0.00    +0.000 C 
BRANCH  12  13
ATOM     13  C   UNL     1      45.437   2.574   8.603  0.00  0.00    +0.000 A 
ATOM     14  C   UNL     1      45.709   3.731   7.860  0.00  0.00    +0.000 A 
ATOM     15  C   UNL     1      46.662   3.709   6.840  0.00  0.00    +0.000 A 
ATOM     16  C   UNL     1      47.348   2.533   6.547  0.00  0.00    +0.000 A 
ATOM     17  C   UNL     1      47.070   1.371   7.266  0.00  0.00    +0.000 A 
ATOM     18  C   UNL     1      46.117   1.389   8.287  0.00  0.00    +0.000 A 
ENDBRANCH  12  13
ENDBRANCH  11  12
ENDBRANCH   9  11
ENDBRANCH   1   8
BRANCH   4  19
ATOM     19  C   UNL     1      48.895   6.311  16.367  0.00  0.00    +0.000 C 
BRANCH  19  20
ATOM     20  N   UNL     1      50.021   5.381  16.437  0.00  0.00    +0.000 NA
ATOM     21  H   UNL     1      50.886   5.895  16.262  0.00  0.00    +0.000 HD
BRANCH  20  22
ATOM     22  C   UNL     1      50.108   4.785  17.778  0.00  0.00    +0.000 C 
BRANCH  22  23
ATOM     23  C   UNL     1      50.978   3.546  17.798  0.00  0.00    +0.000 A 
ATOM     24  N   UNL     1      52.216   3.705  18.348  0.00  0.00    +0.000 NA
ATOM     25  C   UNL     1      53.008   2.621  18.378  0.00  0.00    +0.000 A 
ATOM     26  N   UNL     1      52.691   1.404  17.916  0.00  0.00    +0.000 NA
ATOM     27  C   UNL     1      51.461   1.294  17.368  0.00  0.00    +0.000 A 
ATOM     28  C   UNL     1      50.557   2.333  17.275  0.00  0.00    +0.000 A 
ATOM     29 CL   UNL     1      49.020   2.064  16.560  0.00  0.00    +0.000 Cl
ENDBRANCH  22  23
ENDBRANCH  20  22
ENDBRANCH  19  20
ENDBRANCH   4  19
TORSDOF 8
ENDMDL
MODEL 5
REMARK VINA RESULT:    -7.568      1.600      2.278
REMARK INTER + INTRA:         -11.980
REMARK INTER:                 -11.953
REMARK INTRA:                  -0.027
REMARK UNBOUND:                -0.873
REMARK  Name = 
REMARK  8 active torsions:
REMARK  status: ('A' for Active; 'I' for Inactive)
REMARK    1  A    between atoms: C_2  and  C_12
REMARK    2  A    between atoms: N_3  and  C_4
REMARK    3  A    between atoms: C_4  and  C_5
REMARK    4  A    between atoms: C_5  and  C_6
REMARK    5  A    between atoms: C_15  and  C_16
REMARK    6  A    between atoms: C_16  and  N_17
REMARK    7  A    between atoms: N_17  and  C_18
REMARK    8  A    between atoms: C_18  and  C_19
REMARK                            x       y       z     vdW  Elec       q    Type
REMARK                         _______ _______ _______ _____ _____    ______ ____
ROOT
ATOM      1  C   UNL     1      46.326   5.142  13.323  0.00  0.00    +0.000 A 
ATOM      2  C   UNL     1      45.740   3.928  12.952  0.00  0.00    +0.000 A 
ATOM      3  C   UNL     1      44.870   3.870  11.861  0.00  0.00    +0.000 A 
ATOM      4  C   UNL     1      44.580   5.023  11.115  0.00  0.00    +0.000 A 
ATOM      5  C   UNL     1      45.174   6.237  11.492  0.00  0.00    +0.000 A 
ATOM      6  C   UNL     1      46.041   6.300  12.590  0.00  0.00    +0.000 A 
ENDROOT
BRANCH   1   8
ATOM      7  O   UNL     1      48.325   5.795  14.386  0.00  0.00    +0.000 OA
ATOM      8  C   UNL     1      47.287   5.150  14.461  0.00  0.00    +0.000 C 
ATOM      9  N   UNL     1      46.945   4.382  15.557  0.00  0.00    +0.000 N 
ATOM     10  H   UNL     1      46.220   3.687  15.445  0.00  0.00    +0.000 HD
BRANCH   9  11
ATOM     11  C   UNL     1      47.865   4.259  16.681  0.00  0.00    +0.000 C 
BRANCH  11  12
ATOM     12  C   UNL     1      48.432   2.844  16.798  0.00  0.00    +0.000 C 
BRANCH  12  13
ATOM     13  C   UNL     1      49.875   2.815  17.239  0.00  0.00    +0.000 A 
ATOM     14  C   UNL     1      50.467   3.951  17.808  0.00  0.00    +0.000 A 
ATOM     15  C   UNL     1      51.791   3.913  18.251  0.00  0.00    +0.000 A 
ATOM     16  C   UNL     1      52.538   2.744  18.124  0.00  0.00    +0.000 A 
ATOM     17  C   UNL     1      51.965   1.614  17.541  0.00  0.00    +0.000 A 
ATOM     18  C   UNL     1      50.640   1.650  17.097  0.00  0.00    +0.000 A 
ENDBRANCH  12  13
ENDBRANCH  11  12
ENDBRANCH   9  11
ENDBRANCH   1   8
BRANCH   4  19
ATOM     19  C   UNL     1      43.705   4.940   9.883  0.00  0.00    +0.000 C 
BRANCH  19  20
ATOM     20  N   UNL     1      44.188   3.938   8.932  0.00  0.00    +0.000 NA
ATOM     21  H   UNL     1      43.515   3.858   8.168  0.00  0.00    +0.000 HD
BRANCH  20  22
ATOM     22  C   UNL     1      45.477   4.355   8.364  0.00  0.00    +0.000 C 
BRANCH  22  23
ATOM     23  C   UNL     1      46.282   3.181   7.850  0.00  0.00    +0.000 A 
ATOM     24  N   UNL     1      47.332   3.496   7.037  0.00  0.00    +0.000 NA
ATOM     25  C   UNL     1      48.062   2.472   6.567  0.00  0.00    +0.000 A 
ATOM     26  N   UNL     1      47.851   1.174   6.823  0.00  0.00    +0.000 NA
ATOM     27  C   UNL     1      46.793   0.905   7.620  0.00  0.00    +0.000 A 
ATOM     28  C   UNL     1      45.966   1.868   8.163  0.00  0.00    +0.000 A 
ATOM     29 CL   UNL     1      44.655   1.397   9.168  0.00  0.00    +0.000 Cl
ENDBRANCH  22  23
ENDBRANCH  20  22
ENDBRANCH  19  20
ENDBRANCH   4  19
TORSDOF 8
ENDMDL
MODEL 6
REMARK VINA RESULT:    -7.454      2.990      8.670
REMARK INTER + INTRA:         -11.813
REMARK INTER:                 -11.122
REMARK INTRA:                  -0.691
REMARK UNBOUND:                -0.873
REMARK  Name = 
REMARK  8 active torsions:
REMARK  status: ('A' for Active; 'I' for Inactive)
REMARK    1  A    between atoms: C_2  and  C_12
REMARK    2  A    between atoms: N_3  and  C_4
REMARK    3  A    between atoms: C_4  and  C_5
REMARK    4  A    between atoms: C_5  and  C_6
REMARK    5  A    between atoms: C_15  and  C_16
REMARK    6  A    between atoms: C_16  and  N_17
REMARK    7  A    between atoms: N_17  and  C_18
REMARK    8  A    between atoms: C_18  and  C_19
REMARK                            x       y       z     vdW  Elec       q    Type
REMARK                         _______ _______ _______ _____ _____    ______ ____
ROOT
ATOM      1  C   UNL     1      45.955   6.130  12.262  0.00  0.00    +0.000 A 
ATOM      2  C   UNL     1      46.214   7.502  12.321  0.00  0.00    +0.000 A 
ATOM      3  C   UNL     1      47.221   7.994  13.157  0.00  0.00    +0.000 A 
ATOM      4  C   UNL     1      47.992   7.120  13.938  0.00  0.00    +0.000 A 
ATOM      5  C   UNL     1      47.727   5.743  13.871  0.00  0.00    +0.000 A 
ATOM      6  C   UNL     1      46.714   5.249  13.040  0.00  0.00    +0.000 A 
ENDROOT
BRANCH   1   8
ATOM      7  O   UNL     1      43.927   6.338  11.080  0.00  0.00    +0.000 OA
ATOM      8  C   UNL     1      44.908   5.644  11.321  0.00  0.00    +0.000 C 
ATOM      9  N   UNL     1      45.103   4.389  10.780  0.00  0.00    +0.000 N 
ATOM     10  H   UNL     1      45.784   3.783  11.217  0.00  0.00    +0.000 HD
BRANCH   9  11
ATOM     11  C   UNL     1      44.089   3.796   9.919  0.00  0.00    +0.000 C 
BRANCH  11  12
ATOM     12  C   UNL     1      44.479   2.389   9.466  0.00  0.00    +0.000 C 
BRANCH  12  13
ATOM     13  C   UNL     1      45.512   2.383   8.367  0.00  0.00    +0.000 A 
ATOM     14  C   UNL     1      45.687   3.507   7.548  0.00  0.00    +0.000 A 
ATOM     15  C   UNL     1      46.669   3.515   6.555  0.00  0.00    +0.000 A 
ATOM     16  C   UNL     1      47.481   2.399   6.366  0.00  0.00    +0.000 A 
ATOM     17  C   UNL     1      47.303   1.268   7.161  0.00  0.00    +0.000 A 
ATOM     18  C   UNL     1      46.320   1.257   8.155  0.00  0.00    +0.000 A 
ENDBRANCH  12  13
ENDBRANCH  11  12
ENDBRANCH   9  11
ENDBRANCH   1   8
BRANCH   4  19
ATOM     19  C   UNL     1      49.136   7.647  14.776  0.00  0.00    +0.000 C 
BRANCH  19  20
ATOM     20  N   UNL     1      49.993   6.573  15.276  0.00  0.00    +0.000 NA
ATOM     21  H   UNL     1      50.965   6.798  15.061  0.00  0.00    +0.000 HD
BRANCH  20  22
ATOM     22  C   UNL     1      49.864   6.457  16.735  0.00  0.00    +0.000 C 
BRANCH  22  23
ATOM     23  C   UNL     1      49.185   5.168  17.149  0.00  0.00    +0.000 A 
ATOM     24  N   UNL     1      47.822   5.210  17.197  0.00  0.00    +0.000 NA
ATOM     25  C   UNL     1      47.195   4.080  17.562  0.00  0.00    +0.000 A 
ATOM     26  N   UNL     1      47.787   2.922  17.882  0.00  0.00    +0.000 NA
ATOM     27  C   UNL     1      49.137   2.928  17.835  0.00  0.00    +0.000 A 
ATOM     28  C   UNL     1      49.896   4.025  17.478  0.00  0.00    +0.000 A 
ATOM     29 CL   UNL     1      51.609   3.904  17.451  0.00  0.00    +0.000 Cl
ENDBRANCH  22  23
ENDBRANCH  20  22
ENDBRANCH  19  20
ENDBRANCH   4  19
TORSDOF 8
ENDMDL
MODEL 7
REMARK VINA RESULT:    -7.181      3.121      9.228
REMARK INTER + INTRA:         -11.412
REMARK INTER:                 -10.430
REMARK INTRA:                  -0.982
REMARK UNBOUND:                -0.873
REMARK  Name = 
REMARK  8 active torsions:
REMARK  status: ('A' for Active; 'I' for Inactive)
REMARK    1  A    between atoms: C_2  and  C_12
REMARK    2  A    between atoms: N_3  and  C_4
REMARK    3  A    between atoms: C_4  and  C_5
REMARK    4  A    between atoms: C_5  and  C_6
REMARK    5  A    between atoms: C_15  and  C_16
REMARK    6  A    between atoms: C_16  and  N_17
REMARK    7  A    between atoms: N_17  and  C_18
REMARK    8  A    between atoms: C_18  and  C_19
REMARK                            x       y       z     vdW  Elec       q    Type
REMARK                         _______ _______ _______ _____ _____    ______ ____
ROOT
ATOM      1  C   UNL     1      45.864   5.243  12.777  0.00  0.00    +0.000 A 
ATOM      2  C   UNL     1      45.445   6.536  12.454  0.00  0.00    +0.000 A 
ATOM      3  C   UNL     1      46.150   7.645  12.929  0.00  0.00    +0.000 A 
ATOM      4  C   UNL     1      47.294   7.478  13.725  0.00  0.00    +0.000 A 
ATOM      5  C   UNL     1      47.710   6.176  14.043  0.00  0.00    +0.000 A 
ATOM      6  C   UNL     1      47.000   5.063  13.575  0.00  0.00    +0.000 A 
ENDROOT
BRANCH   1   8
ATOM      7  O   UNL     1      44.540   3.301  12.952  0.00  0.00    +0.000 OA
ATOM      8  C   UNL     1      45.113   4.088  12.209  0.00  0.00    +0.000 C 
ATOM      9  N   UNL     1      45.131   3.962  10.833  0.00  0.00    +0.000 N 
ATOM     10  H   UNL     1      45.825   4.484  10.316  0.00  0.00    +0.000 HD
BRANCH   9  11
ATOM     11  C   UNL     1      44.499   2.815  10.195  0.00  0.00    +0.000 C 
BRANCH  11  12
ATOM     12  C   UNL     1      44.352   3.014   8.686  0.00  0.00    +0.000 C 
BRANCH  12  13
ATOM     13  C   UNL     1      45.602   2.666   7.916  0.00  0.00    +0.000 A 
ATOM     14  C   UNL     1      46.200   1.407   8.061  0.00  0.00    +0.000 A 
ATOM     15  C   UNL     1      47.334   1.072   7.319  0.00  0.00    +0.000 A 
ATOM     16  C   UNL     1      47.887   1.992   6.432  0.00  0.00    +0.000 A 
ATOM     17  C   UNL     1      47.313   3.255   6.295  0.00  0.00    +0.000 A 
ATOM     18  C   UNL     1      46.177   3.593   7.036  0.00  0.00    +0.000 A 
ENDBRANCH  12  13
ENDBRANCH  11  12
ENDBRANCH   9  11
ENDBRANCH   1   8
BRANCH   4  19
ATOM     19  C   UNL     1      48.103   8.678  14.165  0.00  0.00    +0.000 C 
BRANCH  19  20
ATOM     20  N   UNL     1      47.665   9.191  15.463  0.00  0.00    +0.000 NA
ATOM     21  H   UNL     1      46.930   8.583  15.827  0.00  0.00    +0.000 HD
BRANCH  20  22
ATOM     22  C   UNL     1      48.782   9.179  16.418  0.00  0.00    +0.000 C 
BRANCH  22  23
ATOM     23  C   UNL     1      48.633   8.089  17.459  0.00  0.00    +0.000 A 
ATOM     24  N   UNL     1      47.726   8.339  18.447  0.00  0.00    +0.000 NA
ATOM     25  C   UNL     1      47.575   7.388  19.384  0.00  0.00    +0.000 A 
ATOM     26  N   UNL     1      48.235   6.223  19.433  0.00  0.00    +0.000 NA
ATOM     27  C   UNL     1      49.133   6.023  18.444  0.00  0.00    +0.000 A 
ATOM     28  C   UNL     1      49.381   6.923  17.427  0.00  0.00    +0.000 A 
ATOM     29 CL   UNL     1      50.546   6.549  16.223  0.00  0.00    +0.000 Cl
ENDBRANCH  22  23
ENDBRANCH  20  22
ENDBRANCH  19  20
ENDBRANCH   4  19
TORSDOF 8
ENDMDL
MODEL 8
REMARK VINA RESULT:    -7.080      2.369      3.156
REMARK INTER + INTRA:         -11.263
REMARK INTER:                 -10.520
REMARK INTRA:                  -0.743
REMARK UNBOUND:                -0.873
REMARK  Name = 
REMARK  8 active torsions:
REMARK  status: ('A' for Active; 'I' for Inactive)
REMARK    1  A    between atoms: C_2  and  C_12
REMARK    2  A    between atoms: N_3  and  C_4
REMARK    3  A    between atoms: C_4  and  C_5
REMARK    4  A    between atoms: C_5  and  C_6
REMARK    5  A    between atoms: C_15  and  C_16
REMARK    6  A    between atoms: C_16  and  N_17
REMARK    7  A    between atoms: N_17  and  C_18
REMARK    8  A    between atoms: C_18  and  C_19
REMARK                            x       y       z     vdW  Elec       q    Type
REMARK                         _______ _______ _______ _____ _____    ______ ____
ROOT
ATOM      1  C   UNL     1      46.638   4.624  14.025  0.00  0.00    +0.000 A 
ATOM      2  C   UNL     1      46.177   3.593  13.202  0.00  0.00    +0.000 A 
ATOM      3  C   UNL     1      45.556   3.887  11.985  0.00  0.00    +0.000 A 
ATOM      4  C   UNL     1      45.396   5.216  11.566  0.00  0.00    +0.000 A 
ATOM      5  C   UNL     1      45.864   6.246  12.397  0.00  0.00    +0.000 A 
ATOM      6  C   UNL     1      46.479   5.955  13.621  0.00  0.00    +0.000 A 
ENDROOT
BRANCH   1   8
ATOM      7  O   UNL     1      47.686   3.108  15.494  0.00  0.00    +0.000 OA
ATOM      8  C   UNL     1      47.338   4.265  15.290  0.00  0.00    +0.000 C 
ATOM      9  N   UNL     1      47.537   5.291  16.193  0.00  0.00    +0.000 N 
ATOM     10  H   UNL     1      47.003   6.141  16.074  0.00  0.00    +0.000 HD
BRANCH   9  11
ATOM     11  C   UNL     1      48.134   5.016  17.493  0.00  0.00    +0.000 C 
BRANCH  11  12
ATOM     12  C   UNL     1      47.189   5.373  18.640  0.00  0.00    +0.000 C 
BRANCH  12  13
ATOM     13  C   UNL     1      47.910   5.777  19.902  0.00  0.00    +0.000 A 
ATOM     14  C   UNL     1      47.343   6.717  20.775  0.00  0.00    +0.000 A 
ATOM     15  C   UNL     1      47.993   7.063  21.962  0.00  0.00    +0.000 A 
ATOM     16  C   UNL     1      49.216   6.480  22.285  0.00  0.00    +0.000 A 
ATOM     17  C   UNL     1      49.798   5.560  21.414  0.00  0.00    +0.000 A 
ATOM     18  C   UNL     1      49.151   5.212  20.226  0.00  0.00    +0.000 A 
ENDBRANCH  12  13
ENDBRANCH  11  12
ENDBRANCH   9  11
ENDBRANCH   1   8
BRANCH   4  19
ATOM     19  C   UNL     1      44.801   5.527  10.210  0.00  0.00    +0.000 C 
BRANCH  19  20
ATOM     20  N   UNL     1      45.719   5.201   9.119  0.00  0.00    +0.000 NA
ATOM     21  H   UNL     1      46.557   4.769   9.510  0.00  0.00    +0.000 HD
BRANCH  20  22
ATOM     22  C   UNL     1      45.095   4.240   8.199  0.00  0.00    +0.000 C 
BRANCH  22  23
ATOM     23  C   UNL     1      46.056   3.150   7.773  0.00  0.00    +0.000 A 
ATOM     24  N   UNL     1      47.079   3.551   6.964  0.00  0.00    +0.000 NA
ATOM     25  C   UNL     1      47.946   2.603   6.571  0.00  0.00    +0.000 A 
ATOM     26  N   UNL     1      47.893   1.305   6.900  0.00  0.00    +0.000 NA
ATOM     27  C   UNL     1      46.856   0.949   7.690  0.00  0.00    +0.000 A 
ATOM     28  C   UNL     1      45.899   1.828   8.157  0.00  0.00    +0.000 A 
ATOM     29 CL   UNL     1      44.631   1.251   9.162  0.00  0.00    +0.000 Cl
ENDBRANCH  22  23
ENDBRANCH  20  22
ENDBRANCH  19  20
ENDBRANCH   4  19
TORSDOF 8
ENDMDL
MODEL 9
REMARK VINA RESULT:    -6.789      3.450      9.800
REMARK INTER + INTRA:         -10.837
REMARK INTER:                 -10.057
REMARK INTRA:                  -0.780
REMARK UNBOUND:                -0.873
REMARK  Name = 
REMARK  8 active torsions:
REMARK  status: ('A' for Active; 'I' for Inactive)
REMARK    1  A    between atoms: C_2  and  C_12
REMARK    2  A    between atoms: N_3  and  C_4
REMARK    3  A    between atoms: C_4  and  C_5
REMARK    4  A    between atoms: C_5  and  C_6
REMARK    5  A    between atoms: C_15  and  C_16
REMARK    6  A    between atoms: C_16  and  N_17
REMARK    7  A    between atoms: N_17  and  C_18
REMARK    8  A    between atoms: C_18  and  C_19
REMARK                            x       y       z     vdW  Elec       q    Type
REMARK                         _______ _______ _______ _____ _____    ______ ____
ROOT
ATOM      1  C   UNL     1      46.422   5.653  12.362  0.00  0.00    +0.000 A 
ATOM      2  C   UNL     1      47.065   6.892  12.424  0.00  0.00    +0.000 A 
ATOM      3  C   UNL     1      47.842   7.227  13.536  0.00  0.00    +0.000 A 
ATOM      4  C   UNL     1      47.998   6.324  14.599  0.00  0.00    +0.000 A 
ATOM      5  C   UNL     1      47.350   5.081  14.528  0.00  0.00    +0.000 A 
ATOM      6  C   UNL     1      46.565   4.745  13.418  0.00  0.00    +0.000 A 
ENDROOT
BRANCH   1   8
ATOM      7  O   UNL     1      45.666   6.066  10.168  0.00  0.00    +0.000 OA
ATOM      8  C   UNL     1      45.644   5.315  11.136  0.00  0.00    +0.000 C 
ATOM      9  N   UNL     1      44.905   4.150  11.180  0.00  0.00    +0.000 N 
ATOM     10  H   UNL     1      44.732   3.729  12.083  0.00  0.00    +0.000 HD
BRANCH   9  11
ATOM     11  C   UNL     1      44.045   3.786  10.062  0.00  0.00    +0.000 C 
BRANCH  11  12
ATOM     12  C   UNL     1      44.367   2.389   9.529  0.00  0.00    +0.000 C 
BRANCH  12  13
ATOM     13  C   UNL     1      45.416   2.393   8.445  0.00  0.00    +0.000 A 
ATOM     14  C   UNL     1      45.653   3.548   7.688  0.00  0.00    +0.000 A 
ATOM     15  C   UNL     1      46.651   3.563   6.711  0.00  0.00    +0.000 A 
ATOM     16  C   UNL     1      47.416   2.423   6.476  0.00  0.00    +0.000 A 
ATOM     17  C   UNL     1      47.175   1.262   7.209  0.00  0.00    +0.000 A 
ATOM     18  C   UNL     1      46.177   1.244   8.187  0.00  0.00    +0.000 A 
ENDBRANCH  12  13
ENDBRANCH  11  12
ENDBRANCH   9  11
ENDBRANCH   1   8
BRANCH   4  19
ATOM     19  C   UNL     1      48.908   6.657  15.761  0.00  0.00    +0.000 C 
BRANCH  19  20
ATOM     20  N   UNL     1      48.177   6.744  17.025  0.00  0.00    +0.000 NA
ATOM     21  H   UNL     1      47.195   6.523  16.855  0.00  0.00    +0.000 HD
BRANCH  20  22
ATOM     22  C   UNL     1      48.705   5.767  17.986  0.00  0.00    +0.000 C 
BRANCH  22  23
ATOM     23  C   UNL     1      49.449   6.430  19.126  0.00  0.00    +0.000 A 
ATOM     24  N   UNL     1      50.744   6.769  18.866  0.00  0.00    +0.000 NA
ATOM     25  C   UNL     1      51.427   7.358  19.862  0.00  0.00    +0.000 A 
ATOM     26  N   UNL     1      50.950   7.640  21.081  0.00  0.00    +0.000 NA
ATOM     27  C   UNL     1      49.668   7.276  21.301  0.00  0.00    +0.000 A 
ATOM     28  C   UNL     1      48.864   6.661  20.362  0.00  0.00    +0.000 A 
ATOM     29 CL   UNL     1      47.245   6.252  20.762  0.00  0.00    +0.000 Cl
ENDBRANCH  22  23
ENDBRANCH  20  22
ENDBRANCH  19  20
ENDBRANCH   4  19
TORSDOF 8
ENDMDL
