MODEL 1
REMARK VINA RESULT:    -8.739      0.000      0.000
REMARK INTER + INTRA:         -11.624
REMARK INTER:                 -11.294
REMARK INTRA:                  -0.330
REMARK UNBOUND:                -0.330
REMARK  Name = 
REMARK  5 active torsions:
REMARK  status: ('A' for Active; 'I' for Inactive)
REMARK    1  A    between atoms: C_2  and  C_4
REMARK    2  A    between atoms: C_8  and  C_9
REMARK    3  A    between atoms: C_9  and  O_10
REMARK    4  A    between atoms: O_10  and  C_11
REMARK    5  A    between atoms: C_16  and  C_17
REMARK                            x       y       z     vdW  Elec       q    Type
REMARK                         _______ _______ _______ _____ _____    ______ ____
ROOT
ATOM      1  O   UNL     1      44.275   6.168  11.429  0.00  0.00    +0.000 OA
ENDROOT
BRANCH   1   2
ATOM      2  C   UNL     1      44.266   4.955  10.806  0.00  0.00    +0.000 A 
ATOM      3  C   UNL     1      43.474   3.973  11.383  0.00  0.00    +0.000 A 
ATOM      4  N   UNL     1      43.377   2.705  10.940  0.00  0.00    +0.000 NA
ATOM      5  C   UNL     1      44.139   2.388   9.873  0.00  0.00    +0.000 A 
ATOM      6  F   UNL     1      44.043   1.116   9.455  0.00  0.00    +0.000 F 
ATOM      7  C   UNL     1      44.998   3.275   9.211  0.00  0.00    +0.000 A 
ATOM      8  C   UNL     1      45.040   4.597   9.707  0.00  0.00    +0.000 A 
BRANCH   7   9
ATOM      9  C   UNL     1      45.856   2.849   8.090  0.00  0.00    +0.000 A 
ATOM     10  C   UNL     1      46.132   3.707   7.008  0.00  0.00    +0.000 A 
ATOM     11  C   UNL     1      46.983   3.318   5.978  0.00  0.00    +0.000 A 
ATOM     12  C   UNL     1      47.575   2.062   6.000  0.00  0.00    +0.000 A 
ATOM     13  C   UNL     1      47.306   1.183   7.049  0.00  0.00    +0.000 A 
ATOM     14  C   UNL     1      46.457   1.579   8.078  0.00  0.00    +0.000 A 
ENDBRANCH   7   9
ENDBRANCH   1   2
BRANCH   1  15
ATOM     15  C   UNL     1      45.440   6.975  11.238  0.00  0.00    +0.000 C 
BRANCH  15  20
ATOM     16  C   UNL     1      47.258   5.432  14.194  0.00  0.00    +0.000 A 
ATOM     17  C   UNL     1      48.158   6.450  14.495  0.00  0.00    +0.000 A 
ATOM     18  C   UNL     1      48.120   7.585  13.711  0.00  0.00    +0.000 A 
ATOM     19  N   UNL     1      47.255   7.765  12.688  0.00  0.00    +0.000 NA
ATOM     20  C   UNL     1      46.394   6.756  12.394  0.00  0.00    +0.000 A 
ATOM     21  C   UNL     1      46.373   5.573  13.123  0.00  0.00    +0.000 A 
BRANCH  16  23
ATOM     22  N   UNL     1      46.869   4.269  16.290  0.00  0.00    +0.000 N 
ATOM     23  C   UNL     1      47.216   4.172  14.973  0.00  0.00    +0.000 C 
ATOM     24  O   UNL     1      47.429   3.087  14.449  0.00  0.00    +0.000 OA
ATOM     25  H   UNL     1      46.708   3.391  16.769  0.00  0.00    +0.000 HD
ATOM     26  H   UNL     1      46.425   5.092  16.670  0.00  0.00    +0.000 HD
ENDBRANCH  16  23
ENDBRANCH  15  20
ENDBRANCH   1  15
TORSDOF 5
ENDMDL
MODEL 2
REMARK VINA RESULT:    -8.212      2.035      2.711
REMARK INTER + INTRA:         -10.943
REMARK INTER:                 -10.428
REMARK INTRA:                  -0.515
REMARK UNBOUND:                -0.330
REMARK  Name = 
REMARK  5 active torsions:
REMARK  status: ('A' for Active; 'I' for Inactive)
REMARK    1  A    between atoms: C_2  and  C_4
REMARK    2  A    between atoms: C_8  and  C_9
REMARK    3  A    between atoms: C_9  and  O_10
REMARK    4  A    between atoms: O_10  and  C_11
REMARK    5  A    between atoms: C_16  and  C_17
REMARK                            x       y       z     vdW  Elec       q    Type
REMARK                         _______ _______ _______ _____ _____    ______ ____
ROOT
ATOM      1  O   UNL     1      44.428   6.225  11.442  0.00  0.00    +0.000 OA
ENDROOT
BRANCH   1   2
ATOM      2  C   UNL     1      44.386   5.015  10.815  0.00  0.00    +0.000 A 
ATOM      3  C   UNL     1      43.561   4.055  11.385  0.00  0.00    +0.000 A 
ATOM      4  N   UNL     1      43.430   2.792  10.937  0.00  0.00    +0.000 NA
ATOM      5  C   UNL     1      44.188   2.456   9.872  0.00  0.00    +0.000 A 
ATOM      6  F   UNL     1      44.055   1.189   9.449  0.00  0.00    +0.000 F 
ATOM      7  C   UNL     1      45.076   3.319   9.218  0.00  0.00    +0.000 A 
ATOM      8  C   UNL     1      45.155   4.637   9.719  0.00  0.00    +0.000 A 
BRANCH   7   9
ATOM      9  C   UNL     1      45.926   2.871   8.100  0.00  0.00    +0.000 A 
ATOM     10  C   UNL     1      46.489   1.580   8.075  0.00  0.00    +0.000 A 
ATOM     11  C   UNL     1      47.249   1.145   6.993  0.00  0.00    +0.000 A 
ATOM     12  C   UNL     1      47.469   1.989   5.913  0.00  0.00    +0.000 A 
ATOM     13  C   UNL     1      46.940   3.280   5.917  0.00  0.00    +0.000 A 
ATOM     14  C   UNL     1      46.177   3.708   6.999  0.00  0.00    +0.000 A 
ENDBRANCH   7   9
ENDBRANCH   1   2
BRANCH   1  15
ATOM     15  C   UNL     1      45.253   6.313  12.607  0.00  0.00    +0.000 C 
BRANCH  15  20
ATOM     16  C   UNL     1      48.562   8.115  12.136  0.00  0.00    +0.000 A 
ATOM     17  C   UNL     1      48.121   9.432  12.044  0.00  0.00    +0.000 A 
ATOM     18  C   UNL     1      46.762   9.655  12.140  0.00  0.00    +0.000 A 
ATOM     19  N   UNL     1      45.850   8.676  12.331  0.00  0.00    +0.000 NA
ATOM     20  C   UNL     1      46.293   7.394  12.401  0.00  0.00    +0.000 A 
ATOM     21  C   UNL     1      47.642   7.077  12.301  0.00  0.00    +0.000 A 
BRANCH  16  23
ATOM     22  N   UNL     1      50.679   7.627  13.221  0.00  0.00    +0.000 N 
ATOM     23  C   UNL     1      49.999   7.766  12.044  0.00  0.00    +0.000 C 
ATOM     24  O   UNL     1      50.541   7.556  10.968  0.00  0.00    +0.000 OA
ATOM     25  H   UNL     1      51.618   7.253  13.146  0.00  0.00    +0.000 HD
ATOM     26  H   UNL     1      50.206   7.518  14.105  0.00  0.00    +0.000 HD
ENDBRANCH  16  23
ENDBRANCH  15  20
ENDBRANCH   1  15
TORSDOF 5
ENDMDL
MODEL 3
REMARK VINA RESULT:    -8.167      3.153      6.967
REMARK INTER + INTRA:         -10.884
REMARK INTER:                 -10.002
REMARK INTRA:                  -0.882
REMARK UNBOUND:                -0.330
REMARK  Name = 
REMARK  5 active torsions:
REMARK  status: ('A' for Active; 'I' for Inactive)
REMARK    1  A    between atoms: C_2  and  C_4
REMARK    2  A    between atoms: C_8  and  C_9
REMARK    3  A    between atoms: C_9  and  O_10
REMARK    4  A    between atoms: O_10  and  C_11
REMARK    5  A    between atoms: C_16  and  C_17
REMARK                            x       y       z     vdW  Elec       q    Type
REMARK                         _______ _______ _______ _____ _____    ______ ____
ROOT
ATOM      1  O   UNL     1      43.982   4.544  10.736  0.00  0.00    +0.000 OA
ENDROOT
BRANCH   1   2
ATOM      2  C   UNL     1      45.022   4.975  11.505  0.00  0.00    +0.000 A 
ATOM      3  C   UNL     1      45.267   4.257  12.667  0.00  0.00    +0.000 A 
ATOM      4  N   UNL     1      46.216   4.562  13.573  0.00  0.00    +0.000 NA
ATOM      5  C   UNL     1      46.947   5.667  13.320  0.00  0.00    +0.000 A 
ATOM      6  F   UNL     1      47.877   5.965  14.241  0.00  0.00    +0.000 F 
ATOM      7  C   UNL     1      46.788   6.493  12.199  0.00  0.00    +0.000 A 
ATOM      8  C   UNL     1      45.792   6.110  11.273  0.00  0.00    +0.000 A 
BRANCH   7   9
ATOM      9  C   UNL     1      47.574   7.726  12.013  0.00  0.00    +0.000 A 
ATOM     10  C   UNL     1      47.017   8.997  12.254  0.00  0.00    +0.000 A 
ATOM     11  C   UNL     1      47.779  10.155  12.126  0.00  0.00    +0.000 A 
ATOM     12  C   UNL     1      49.113  10.072  11.751  0.00  0.00    +0.000 A 
ATOM     13  C   UNL     1      49.689   8.828  11.488  0.00  0.00    +0.000 A 
ATOM     14  C   UNL     1      48.923   7.674  11.622  0.00  0.00    +0.000 A 
ENDBRANCH   7   9
ENDBRANCH   1   2
BRANCH   1  15
ATOM     15  C   UNL     1      44.128   4.696   9.322  0.00  0.00    +0.000 C 
BRANCH  15  20
ATOM     16  C   UNL     1      46.477   2.553   7.245  0.00  0.00    +0.000 A 
ATOM     17  C   UNL     1      46.248   1.304   7.816  0.00  0.00    +0.000 A 
ATOM     18  C   UNL     1      45.339   1.235   8.852  0.00  0.00    +0.000 A 
ATOM     19  N   UNL     1      44.654   2.300   9.325  0.00  0.00    +0.000 NA
ATOM     20  C   UNL     1      44.899   3.516   8.770  0.00  0.00    +0.000 A 
ATOM     21  C   UNL     1      45.809   3.679   7.733  0.00  0.00    +0.000 A 
BRANCH  16  23
ATOM     22  N   UNL     1      48.754   2.517   6.403  0.00  0.00    +0.000 N 
ATOM     23  C   UNL     1      47.434   2.737   6.129  0.00  0.00    +0.000 C 
ATOM     24  O   UNL     1      47.056   3.021   5.001  0.00  0.00    +0.000 OA
ATOM     25  H   UNL     1      49.374   2.510   5.602  0.00  0.00    +0.000 HD
ATOM     26  H   UNL     1      49.056   2.021   7.228  0.00  0.00    +0.000 HD
ENDBRANCH  16  23
ENDBRANCH  15  20
ENDBRANCH   1  15
TORSDOF 5
ENDMDL
MODEL 4
REMARK VINA RESULT:    -7.823      2.151      3.702
REMARK INTER + INTRA:         -10.439
REMARK INTER:                  -9.869
REMARK INTRA:                  -0.571
REMARK UNBOUND:                -0.330
REMARK  Name = 
REMARK  5 active torsions:
REMARK  status: ('A' for Active; 'I' for Inactive)
REMARK    1  A    between atoms: C_2  and  C_4
REMARK    2  A    between atoms: C_8  and  C_9
REMARK    3  A    between atoms: C_9  and  O_10
REMARK    4  A    between atoms: O_10  and  C_11
REMARK    5  A    between atoms: C_16  and  C_17
REMARK                            x       y       z     vdW  Elec       q    Type
REMARK                         _______ _______ _______ _____ _____    ______ ____
ROOT
ATOM      1  O   UNL     1      44.826   5.859  12.076  0.00  0.00    +0.000 OA
ENDROOT
BRANCH   1   2
ATOM      2  C   UNL     1      44.619   4.768  11.285  0.00  0.00    +0.000 A 
ATOM      3  C   UNL     1      43.685   3.848  11.738  0.00  0.00    +0.000 A 
ATOM      4  N   UNL     1      43.384   2.689  11.120  0.00  0.00    +0.000 NA
ATOM      5  C   UNL     1      44.078   2.418   9.995  0.00  0.00    +0.000 A 
ATOM      6  F   UNL     1      43.777   1.253   9.401  0.00  0.00    +0.000 F 
ATOM      7  C   UNL     1      45.062   3.248   9.441  0.00  0.00    +0.000 A 
ATOM      8  C   UNL     1      45.318   4.459  10.122  0.00  0.00    +0.000 A 
BRANCH   7   9
ATOM      9  C   UNL     1      45.832   2.863   8.245  0.00  0.00    +0.000 A 
ATOM     10  C   UNL     1      46.041   3.766   7.183  0.00  0.00    +0.000 A 
ATOM     11  C   UNL     1      46.811   3.414   6.079  0.00  0.00    +0.000 A 
ATOM     12  C   UNL     1      47.388   2.153   6.005  0.00  0.00    +0.000 A 
ATOM     13  C   UNL     1      47.184   1.231   7.033  0.00  0.00    +0.000 A 
ATOM     14  C   UNL     1      46.416   1.590   8.136  0.00  0.00    +0.000 A 
ENDBRANCH   7   9
ENDBRANCH   1   2
BRANCH   1  15
ATOM     15  C   UNL     1      46.164   6.361  12.135  0.00  0.00    +0.000 C 
BRANCH  15  20
ATOM     16  C   UNL     1      45.001   9.937  11.600  0.00  0.00    +0.000 A 
ATOM     17  C   UNL     1      46.180  10.627  11.870  0.00  0.00    +0.000 A 
ATOM     18  C   UNL     1      47.289   9.881  12.214  0.00  0.00    +0.000 A 
ATOM     19  N   UNL     1      47.296   8.531  12.287  0.00  0.00    +0.000 NA
ATOM     20  C   UNL     1      46.135   7.871  12.039  0.00  0.00    +0.000 A 
ATOM     21  C   UNL     1      44.967   8.544  11.698  0.00  0.00    +0.000 A 
BRANCH  16  23
ATOM     22  N   UNL     1      42.812  10.799  12.199  0.00  0.00    +0.000 N 
ATOM     23  C   UNL     1      43.754  10.640  11.222  0.00  0.00    +0.000 C 
ATOM     24  O   UNL     1      43.594  11.108  10.104  0.00  0.00    +0.000 OA
ATOM     25  H   UNL     1      42.032  11.401  11.965  0.00  0.00    +0.000 HD
ATOM     26  H   UNL     1      43.027  10.678  13.178  0.00  0.00    +0.000 HD
ENDBRANCH  16  23
ENDBRANCH  15  20
ENDBRANCH   1  15
TORSDOF 5
ENDMDL
MODEL 5
REMARK VINA RESULT:    -7.356      2.995      4.587
REMARK INTER + INTRA:          -9.836
REMARK INTER:                  -9.004
REMARK INTRA:                  -0.832
REMARK UNBOUND:                -0.330
REMARK  Name = 
REMARK  5 active torsions:
REMARK  status: ('A' for Active; 'I' for Inactive)
REMARK    1  A    between atoms: C_2  and  C_4
REMARK    2  A    between atoms: C_8  and  C_9
REMARK    3  A    between atoms: C_9  and  O_10
REMARK    4  A    between atoms: O_10  and  C_11
REMARK    5  A    between atoms: C_16  and  C_17
REMARK                            x       y       z     vdW  Elec       q    Type
REMARK                         _______ _______ _______ _____ _____    ______ ____
ROOT
ATOM      1  O   UNL     1      48.807   7.177  13.843  0.00  0.00    +0.000 OA
ENDROOT
BRANCH   1   2
ATOM      2  C   UNL     1      47.649   7.179  13.123  0.00  0.00    +0.000 A 
ATOM      3  C   UNL     1      46.817   8.275  13.299  0.00  0.00    +0.000 A 
ATOM      4  N   UNL     1      45.614   8.428  12.713  0.00  0.00    +0.000 NA
ATOM      5  C   UNL     1      45.202   7.413  11.926  0.00  0.00    +0.000 A 
ATOM      6  F   UNL     1      43.994   7.575  11.362  0.00  0.00    +0.000 F 
ATOM      7  C   UNL     1      45.932   6.242  11.681  0.00  0.00    +0.000 A 
ATOM      8  C   UNL     1      47.196   6.148  12.305  0.00  0.00    +0.000 A 
BRANCH   7   9
ATOM      9  C   UNL     1      45.397   5.139  10.863  0.00  0.00    +0.000 A 
ATOM     10  C   UNL     1      45.566   5.112   9.465  0.00  0.00    +0.000 A 
ATOM     11  C   UNL     1      45.104   4.043   8.703  0.00  0.00    +0.000 A 
ATOM     12  C   UNL     1      44.458   2.978   9.317  0.00  0.00    +0.000 A 
ATOM     13  C   UNL     1      44.260   2.985  10.698  0.00  0.00    +0.000 A 
ATOM     14  C   UNL     1      44.728   4.055  11.455  0.00  0.00    +0.000 A 
ENDBRANCH   7   9
ENDBRANCH   1   2
BRANCH   1  15
ATOM     15  C   UNL     1      48.699   7.520  15.227  0.00  0.00    +0.000 C 
BRANCH  15  20
ATOM     16  C   UNL     1      48.725   4.373  17.353  0.00  0.00    +0.000 A 
ATOM     17  C   UNL     1      50.089   4.254  17.609  0.00  0.00    +0.000 A 
ATOM     18  C   UNL     1      50.923   5.211  17.068  0.00  0.00    +0.000 A 
ATOM     19  N   UNL     1      50.490   6.254  16.326  0.00  0.00    +0.000 NA
ATOM     20  C   UNL     1      49.160   6.349  16.069  0.00  0.00    +0.000 A 
ATOM     21  C   UNL     1      48.250   5.421  16.562  0.00  0.00    +0.000 A 
BRANCH  16  23
ATOM     22  N   UNL     1      48.050   2.795  19.071  0.00  0.00    +0.000 N 
ATOM     23  C   UNL     1      47.744   3.399  17.884  0.00  0.00    +0.000 C 
ATOM     24  O   UNL     1      46.682   3.184  17.317  0.00  0.00    +0.000 OA
ATOM     25  H   UNL     1      47.310   2.243  19.488  0.00  0.00    +0.000 HD
ATOM     26  H   UNL     1      48.765   3.152  19.686  0.00  0.00    +0.000 HD
ENDBRANCH  16  23
ENDBRANCH  15  20
ENDBRANCH   1  15
TORSDOF 5
ENDMDL
MODEL 6
REMARK VINA RESULT:    -7.221      4.356      8.330
REMARK INTER + INTRA:          -9.661
REMARK INTER:                  -9.146
REMARK INTRA:                  -0.516
REMARK UNBOUND:                -0.330
REMARK  Name = 
REMARK  5 active torsions:
REMARK  status: ('A' for Active; 'I' for Inactive)
REMARK    1  A    between atoms: C_2  and  C_4
REMARK    2  A    between atoms: C_8  and  C_9
REMARK    3  A    between atoms: C_9  and  O_10
REMARK    4  A    between atoms: O_10  and  C_11
REMARK    5  A    between atoms: C_16  and  C_17
REMARK                            x       y       z     vdW  Elec       q    Type
REMARK                         _______ _______ _______ _____ _____    ______ ____
ROOT
ATOM      1  O   UNL     1      46.631   4.062  15.243  0.00  0.00    +0.000 OA
ENDROOT
BRANCH   1   2
ATOM      2  C   UNL     1      47.449   3.993  16.332  0.00  0.00    +0.000 A 
ATOM      3  C   UNL     1      47.030   4.680  17.462  0.00  0.00    +0.000 A 
ATOM      4  N   UNL     1      47.726   4.768  18.611  0.00  0.00    +0.000 NA
ATOM      5  C   UNL     1      48.929   4.156  18.626  0.00  0.00    +0.000 A 
ATOM      6  F   UNL     1      49.616   4.267  19.773  0.00  0.00    +0.000 F 
ATOM      7  C   UNL     1      49.481   3.449  17.550  0.00  0.00    +0.000 A 
ATOM      8  C   UNL     1      48.694   3.373  16.379  0.00  0.00    +0.000 A 
BRANCH   7   9
ATOM      9  C   UNL     1      50.830   2.858  17.607  0.00  0.00    +0.000 A 
ATOM     10  C   UNL     1      51.961   3.637  17.919  0.00  0.00    +0.000 A 
ATOM     11  C   UNL     1      53.225   3.064  18.021  0.00  0.00    +0.000 A 
ATOM     12  C   UNL     1      53.392   1.702  17.810  0.00  0.00    +0.000 A 
ATOM     13  C   UNL     1      52.293   0.908  17.481  0.00  0.00    +0.000 A 
ATOM     14  C   UNL     1      51.031   1.486  17.384  0.00  0.00    +0.000 A 
ENDBRANCH   7   9
ENDBRANCH   1   2
BRANCH   1  15
ATOM     15  C   UNL     1      46.989   5.010  14.234  0.00  0.00    +0.000 C 
BRANCH  15  20
ATOM     16  C   UNL     1      44.374   4.024  11.663  0.00  0.00    +0.000 A 
ATOM     17  C   UNL     1      43.900   5.279  11.293  0.00  0.00    +0.000 A 
ATOM     18  C   UNL     1      44.462   6.379  11.909  0.00  0.00    +0.000 A 
ATOM     19  N   UNL     1      45.449   6.303  12.830  0.00  0.00    +0.000 NA
ATOM     20  C   UNL     1      45.890   5.071  13.195  0.00  0.00    +0.000 A 
ATOM     21  C   UNL     1      45.371   3.910  12.635  0.00  0.00    +0.000 A 
BRANCH  16  23
ATOM     22  N   UNL     1      44.446   2.327   9.927  0.00  0.00    +0.000 N 
ATOM     23  C   UNL     1      43.838   2.779  11.064  0.00  0.00    +0.000 C 
ATOM     24  O   UNL     1      42.929   2.154  11.591  0.00  0.00    +0.000 OA
ATOM     25  H   UNL     1      44.162   1.407   9.613  0.00  0.00    +0.000 HD
ATOM     26  H   UNL     1      45.354   2.656   9.636  0.00  0.00    +0.000 HD
ENDBRANCH  16  23
ENDBRANCH  15  20
ENDBRANCH   1  15
TORSDOF 5
ENDMDL
MODEL 7
REMARK VINA RESULT:    -7.138      3.410      8.188
REMARK INTER + INTRA:          -9.554
REMARK INTER:                  -8.900
REMARK INTRA:                  -0.654
REMARK UNBOUND:                -0.330
REMARK  Name = 
REMARK  5 active torsions:
REMARK  status: ('A' for Active; 'I' for Inactive)
REMARK    1  A    between atoms: C_2  and  C_4
REMARK    2  A    between atoms: C_8  and  C_9
REMARK    3  A    between atoms: C_9  and  O_10
REMARK    4  A    between atoms: O_10  and  C_11
REMARK    5  A    between atoms: C_16  and  C_17
REMARK                            x       y       z     vdW  Elec       q    Type
REMARK                         _______ _______ _______ _____ _____    ______ ____
ROOT
ATOM      1  O   UNL     1      47.380   6.264  13.035  0.00  0.00    +0.000 OA
ENDROOT
BRANCH   1   2
ATOM      2  C   UNL     1      47.560   5.445  14.110  0.00  0.00    +0.000 A 
ATOM      3  C   UNL     1      47.305   4.097  13.906  0.00  0.00    +0.000 A 
ATOM      4  N   UNL     1      47.380   3.147  14.859  0.00  0.00    +0.000 NA
ATOM      5  C   UNL     1      47.703   3.573  16.098  0.00  0.00    +0.000 A 
ATOM      6  F   UNL     1      47.758   2.616  17.038  0.00  0.00    +0.000 F 
ATOM      7  C   UNL     1      47.963   4.905  16.445  0.00  0.00    +0.000 A 
ATOM      8  C   UNL     1      47.890   5.852  15.399  0.00  0.00    +0.000 A 
BRANCH   7   9
ATOM      9  C   UNL     1      48.245   5.315  17.832  0.00  0.00    +0.000 A 
ATOM     10  C   UNL     1      49.565   5.423  18.313  0.00  0.00    +0.000 A 
ATOM     11  C   UNL     1      49.826   5.860  19.608  0.00  0.00    +0.000 A 
ATOM     12  C   UNL     1      48.779   6.194  20.456  0.00  0.00    +0.000 A 
ATOM     13  C   UNL     1      47.460   6.080  20.014  0.00  0.00    +0.000 A 
ATOM     14  C   UNL     1      47.205   5.646  18.716  0.00  0.00    +0.000 A 
ENDBRANCH   7   9
ENDBRANCH   1   2
BRANCH   1  15
ATOM     15  C   UNL     1      46.085   6.853  12.891  0.00  0.00    +0.000 C 
BRANCH  15  20
ATOM     16  C   UNL     1      44.688   4.703  10.090  0.00  0.00    +0.000 A 
ATOM     17  C   UNL     1      43.518   4.241  10.687  0.00  0.00    +0.000 A 
ATOM     18  C   UNL     1      43.254   4.659  11.976  0.00  0.00    +0.000 A 
ATOM     19  N   UNL     1      44.053   5.496  12.674  0.00  0.00    +0.000 NA
ATOM     20  C   UNL     1      45.200   5.925  12.087  0.00  0.00    +0.000 A 
ATOM     21  C   UNL     1      45.551   5.543  10.797  0.00  0.00    +0.000 A 
BRANCH  16  23
ATOM     22  N   UNL     1      44.249   3.426   8.072  0.00  0.00    +0.000 N 
ATOM     23  C   UNL     1      45.066   4.314   8.711  0.00  0.00    +0.000 C 
ATOM     24  O   UNL     1      46.035   4.806   8.150  0.00  0.00    +0.000 OA
ATOM     25  H   UNL     1      44.442   3.280   7.088  0.00  0.00    +0.000 HD
ATOM     26  H   UNL     1      43.315   3.226   8.395  0.00  0.00    +0.000 HD
ENDBRANCH  16  23
ENDBRANCH  15  20
ENDBRANCH   1  15
TORSDOF 5
ENDMDL
MODEL 8
REMARK VINA RESULT:    -7.096      3.492      5.585
REMARK INTER + INTRA:          -9.500
REMARK INTER:                  -8.647
REMARK INTRA:                  -0.854
REMARK UNBOUND:                -0.330
REMARK  Name = 
REMARK  5 active torsions:
REMARK  status: ('A' for Active; 'I' for Inactive)
REMARK    1  A    between atoms: C_2  and  C_4
REMARK    2  A    between atoms: C_8  and  C_9
REMARK    3  A    between atoms: C_9  and  O_10
REMARK    4  A    between atoms: O_10  and  C_11
REMARK    5  A    between atoms: C_16  and  C_17
REMARK                            x       y       z     vdW  Elec       q    Type
REMARK                         _______ _______ _______ _____ _____    ______ ____
ROOT
ATOM      1  O   UNL     1      49.175   6.671  14.858  0.00  0.00    +0.000 OA
ENDROOT
BRANCH   1   2
ATOM      2  C   UNL     1      48.100   6.866  14.043  0.00  0.00    +0.000 A 
ATOM      3  C   UNL     1      47.691   8.180  13.866  0.00  0.00    +0.000 A 
ATOM      4  N   UNL     1      46.623   8.561  13.140  0.00  0.00    +0.000 NA
ATOM      5  C   UNL     1      45.902   7.570  12.577  0.00  0.00    +0.000 A 
ATOM      6  F   UNL     1      44.832   7.967  11.869  0.00  0.00    +0.000 F 
ATOM      7  C   UNL     1      46.191   6.204  12.693  0.00  0.00    +0.000 A 
ATOM      8  C   UNL     1      47.335   5.866  13.449  0.00  0.00    +0.000 A 
BRANCH   7   9
ATOM      9  C   UNL     1      45.324   5.164  12.108  0.00  0.00    +0.000 A 
ATOM     10  C   UNL     1      44.506   4.349  12.915  0.00  0.00    +0.000 A 
ATOM     11  C   UNL     1      43.653   3.404  12.353  0.00  0.00    +0.000 A 
ATOM     12  C   UNL     1      43.598   3.247  10.975  0.00  0.00    +0.000 A 
ATOM     13  C   UNL     1      44.409   4.027  10.151  0.00  0.00    +0.000 A 
ATOM     14  C   UNL     1      45.258   4.973  10.718  0.00  0.00    +0.000 A 
ENDBRANCH   7   9
ENDBRANCH   1   2
BRANCH   1  15
ATOM     15  C   UNL     1      49.028   7.086  16.219  0.00  0.00    +0.000 C 
BRANCH  15  20
ATOM     16  C   UNL     1      49.401   3.543  17.537  0.00  0.00    +0.000 A 
ATOM     17  C   UNL     1      48.822   3.681  18.795  0.00  0.00    +0.000 A 
ATOM     18  C   UNL     1      48.345   4.929  19.142  0.00  0.00    +0.000 A 
ATOM     19  N   UNL     1      48.393   6.007  18.328  0.00  0.00    +0.000 NA
ATOM     20  C   UNL     1      48.976   5.863  17.110  0.00  0.00    +0.000 A 
ATOM     21  C   UNL     1      49.496   4.646  16.685  0.00  0.00    +0.000 A 
BRANCH  16  23
ATOM     22  N   UNL     1      50.902   1.660  17.844  0.00  0.00    +0.000 N 
ATOM     23  C   UNL     1      49.946   2.249  17.066  0.00  0.00    +0.000 C 
ATOM     24  O   UNL     1      49.523   1.704  16.057  0.00  0.00    +0.000 OA
ATOM     25  H   UNL     1      51.160   0.715  17.584  0.00  0.00    +0.000 HD
ATOM     26  H   UNL     1      51.063   1.938  18.800  0.00  0.00    +0.000 HD
ENDBRANCH  16  23
ENDBRANCH  15  20
ENDBRANCH   1  15
TORSDOF 5
ENDMDL
MODEL 9
REMARK VINA RESULT:    -7.086      3.843      6.052
REMARK INTER + INTRA:          -9.487
REMARK INTER:                  -8.687
REMARK INTRA:                  -0.800
REMARK UNBOUND:                -0.330
REMARK  Name = 
REMARK  5 active torsions:
REMARK  status: ('A' for Active; 'I' for Inactive)
REMARK    1  A    between atoms: C_2  and  C_4
REMARK    2  A    between atoms: C_8  and  C_9
REMARK    3  A    between atoms: C_9  and  O_10
REMARK    4  A    between atoms: O_10  and  C_11
REMARK    5  A    between atoms: C_16  and  C_17
REMARK                            x       y       z     vdW  Elec       q    Type
REMARK                         _______ _______ _______ _____ _____    ______ ____
ROOT
ATOM      1  O   UNL     1      47.311   3.458  14.846  0.00  0.00    +0.000 OA
ENDROOT
BRANCH   1   2
ATOM      2  C   UNL     1      46.868   4.296  13.867  0.00  0.00    +0.000 A 
ATOM      3  C   UNL     1      45.909   3.783  13.005  0.00  0.00    +0.000 A 
ATOM      4  N   UNL     1      45.391   4.443  11.951  0.00  0.00    +0.000 NA
ATOM      5  C   UNL     1      45.878   5.680  11.726  0.00  0.00    +0.000 A 
ATOM      6  F   UNL     1      45.361   6.317  10.663  0.00  0.00    +0.000 F 
ATOM      7  C   UNL     1      46.860   6.308  12.503  0.00  0.00    +0.000 A 
ATOM      8  C   UNL     1      47.350   5.575  13.607  0.00  0.00    +0.000 A 
BRANCH   7   9
ATOM      9  C   UNL     1      47.399   7.638  12.165  0.00  0.00    +0.000 A 
ATOM     10  C   UNL     1      46.630   8.807  12.331  0.00  0.00    +0.000 A 
ATOM     11  C   UNL     1      47.162  10.064  12.059  0.00  0.00    +0.000 A 
ATOM     12  C   UNL     1      48.470  10.185  11.610  0.00  0.00    +0.000 A 
ATOM     13  C   UNL     1      49.250   9.044  11.419  0.00  0.00    +0.000 A 
ATOM     14  C   UNL     1      48.715   7.790  11.697  0.00  0.00    +0.000 A 
ENDBRANCH   7   9
ENDBRANCH   1   2
BRANCH   1  15
ATOM     15  C   UNL     1      47.162   3.915  16.193  0.00  0.00    +0.000 C 
BRANCH  15  20
ATOM     16  C   UNL     1      50.620   3.145  17.560  0.00  0.00    +0.000 A 
ATOM     17  C   UNL     1      51.000   4.407  18.010  0.00  0.00    +0.000 A 
ATOM     18  C   UNL     1      50.101   5.440  17.837  0.00  0.00    +0.000 A 
ATOM     19  N   UNL     1      48.880   5.290  17.276  0.00  0.00    +0.000 NA
ATOM     20  C   UNL     1      48.530   4.057  16.826  0.00  0.00    +0.000 A 
ATOM     21  C   UNL     1      49.379   2.963  16.947  0.00  0.00    +0.000 A 
BRANCH  16  23
ATOM     22  N   UNL     1      52.573   2.089  18.546  0.00  0.00    +0.000 N 
ATOM     23  C   UNL     1      51.510   1.968  17.696  0.00  0.00    +0.000 C 
ATOM     24  O   UNL     1      51.276   0.917  17.116  0.00  0.00    +0.000 OA
ATOM     25  H   UNL     1      53.086   1.236  18.734  0.00  0.00    +0.000 HD
ATOM     26  H   UNL     1      52.629   2.825  19.234  0.00  0.00    +0.000 HD
ENDBRANCH  16  23
ENDBRANCH  15  20
ENDBRANCH   1  15
TORSDOF 5
ENDMDL
