MODEL 1
REMARK VINA RESULT:    -8.742      0.000      0.000
REMARK INTER + INTRA:         -11.982
REMARK INTER:                 -11.297
REMARK INTRA:                  -0.685
REMARK UNBOUND:                -0.685
REMARK  Name = 
REMARK  5 active torsions:
REMARK  status: ('A' for Active; 'I' for Inactive)
REMARK    1  A    between atoms: C_2  and  C_4
REMARK    2  A    between atoms: C_8  and  C_9
REMARK    3  A    between atoms: C_9  and  C_10
REMARK    4  A    between atoms: C_10  and  C_11
REMARK    5  A    between atoms: C_15  and  C_16
REMARK                            x       y       z     vdW  Elec       q    Type
REMARK                         _______ _______ _______ _____ _____    ______ ____
ROOT
ATOM      1  C   UNL     1      43.967   6.490  11.410  0.00  0.00    +0.000 C 
ENDROOT
BRANCH   1   2
ATOM      2  C   UNL     1      44.016   5.050  10.963  0.00  0.00    +0.000 A 
ATOM      3  C   UNL     1      43.244   4.089  11.599  0.00  0.00    +0.000 A 
ATOM      4  N   UNL     1      43.220   2.779  11.256  0.00  0.00    +0.000 NA
ATOM      5  C   UNL     1      44.010   2.416  10.227  0.00  0.00    +0.000 A 
ATOM      6  C   UNL     1      44.849   3.276   9.521  0.00  0.00    +0.000 A 
ATOM      7  C   UNL     1      44.846   4.612   9.934  0.00  0.00    +0.000 A 
BRANCH   6   8
ATOM      8  C   UNL     1      45.672   2.826   8.397  0.00  0.00    +0.000 A 
ATOM      9  C   UNL     1      46.033   3.706   7.363  0.00  0.00    +0.000 A 
ATOM     10  C   UNL     1      46.859   3.284   6.322  0.00  0.00    +0.000 A 
ATOM     11  C   UNL     1      47.342   1.978   6.298  0.00  0.00    +0.000 A 
ATOM     12  C   UNL     1      46.976   1.085   7.302  0.00  0.00    +0.000 A 
ATOM     13  C   UNL     1      46.141   1.503   8.336  0.00  0.00    +0.000 A 
ENDBRANCH   6   8
ENDBRANCH   1   2
BRANCH   1  14
ATOM     14  C   UNL     1      45.323   7.209  11.328  0.00  0.00    +0.000 C 
BRANCH  14  19
ATOM     15  C   UNL     1      47.177   5.448  14.157  0.00  0.00    +0.000 A 
ATOM     16  C   UNL     1      48.099   6.439  14.450  0.00  0.00    +0.000 A 
ATOM     17  N   UNL     1      48.171   7.616  13.776  0.00  0.00    +0.000 NA
ATOM     18  C   UNL     1      47.263   7.807  12.795  0.00  0.00    +0.000 A 
ATOM     19  C   UNL     1      46.278   6.893  12.443  0.00  0.00    +0.000 A 
ATOM     20  C   UNL     1      46.242   5.681  13.146  0.00  0.00    +0.000 A 
BRANCH  15  22
ATOM     21  N   UNL     1      46.926   4.290  16.268  0.00  0.00    +0.000 N 
ATOM     22  C   UNL     1      47.195   4.193  14.927  0.00  0.00    +0.000 C 
ATOM     23  O   UNL     1      47.409   3.119  14.396  0.00  0.00    +0.000 OA
ATOM     24  H   UNL     1      46.830   3.411  16.770  0.00  0.00    +0.000 HD
ATOM     25  H   UNL     1      46.492   5.106  16.674  0.00  0.00    +0.000 HD
ENDBRANCH  15  22
ENDBRANCH  14  19
ENDBRANCH   1  14
TORSDOF 5
ENDMDL
MODEL 2
REMARK VINA RESULT:    -8.246      1.810      2.723
REMARK INTER + INTRA:         -11.342
REMARK INTER:                 -10.403
REMARK INTRA:                  -0.939
REMARK UNBOUND:                -0.685
REMARK  Name = 
REMARK  5 active torsions:
REMARK  status: ('A' for Active; 'I' for Inactive)
REMARK    1  A    between atoms: C_2  and  C_4
REMARK    2  A    between atoms: C_8  and  C_9
REMARK    3  A    between atoms: C_9  and  C_10
REMARK    4  A    between atoms: C_10  and  C_11
REMARK    5  A    between atoms: C_15  and  C_16
REMARK                            x       y       z     vdW  Elec       q    Type
REMARK                         _______ _______ _______ _____ _____    ______ ____
ROOT
ATOM      1  C   UNL     1      43.990   6.373  11.394  0.00  0.00    +0.000 C 
ENDROOT
BRANCH   1   2
ATOM      2  C   UNL     1      44.043   4.936  10.936  0.00  0.00    +0.000 A 
ATOM      3  C   UNL     1      43.287   3.965  11.574  0.00  0.00    +0.000 A 
ATOM      4  N   UNL     1      43.266   2.658  11.222  0.00  0.00    +0.000 NA
ATOM      5  C   UNL     1      44.046   2.308  10.181  0.00  0.00    +0.000 A 
ATOM      6  C   UNL     1      44.869   3.179   9.469  0.00  0.00    +0.000 A 
ATOM      7  C   UNL     1      44.862   4.512   9.892  0.00  0.00    +0.000 A 
BRANCH   6   8
ATOM      8  C   UNL     1      45.679   2.743   8.331  0.00  0.00    +0.000 A 
ATOM      9  C   UNL     1      45.956   3.611   7.261  0.00  0.00    +0.000 A 
ATOM     10  C   UNL     1      46.770   3.206   6.205  0.00  0.00    +0.000 A 
ATOM     11  C   UNL     1      47.327   1.929   6.201  0.00  0.00    +0.000 A 
ATOM     12  C   UNL     1      47.045   1.047   7.241  0.00  0.00    +0.000 A 
ATOM     13  C   UNL     1      46.222   1.447   8.290  0.00  0.00    +0.000 A 
ENDBRANCH   6   8
ENDBRANCH   1   2
BRANCH   1  14
ATOM     14  C   UNL     1      44.614   6.602  12.780  0.00  0.00    +0.000 C 
BRANCH  14  19
ATOM     15  C   UNL     1      48.222   7.717  12.252  0.00  0.00    +0.000 A 
ATOM     16  C   UNL     1      48.858   6.688  12.926  0.00  0.00    +0.000 A 
ATOM     17  N   UNL     1      48.195   5.684  13.555  0.00  0.00    +0.000 NA
ATOM     18  C   UNL     1      46.848   5.707  13.475  0.00  0.00    +0.000 A 
ATOM     19  C   UNL     1      46.113   6.672  12.798  0.00  0.00    +0.000 A 
ATOM     20  C   UNL     1      46.827   7.705  12.174  0.00  0.00    +0.000 A 
BRANCH  15  22
ATOM     21  N   UNL     1      48.455  10.019  11.542  0.00  0.00    +0.000 N 
ATOM     22  C   UNL     1      49.028   8.777  11.623  0.00  0.00    +0.000 C 
ATOM     23  O   UNL     1      50.158   8.568  11.221  0.00  0.00    +0.000 OA
ATOM     24  H   UNL     1      49.056  10.769  11.209  0.00  0.00    +0.000 HD
ATOM     25  H   UNL     1      47.651  10.280  12.094  0.00  0.00    +0.000 HD
ENDBRANCH  15  22
ENDBRANCH  14  19
ENDBRANCH   1  14
TORSDOF 5
ENDMDL
MODEL 3
REMARK VINA RESULT:    -8.188      2.704      6.719
REMARK INTER + INTRA:         -11.266
REMARK INTER:                 -10.448
REMARK INTRA:                  -0.818
REMARK UNBOUND:                -0.685
REMARK  Name = 
REMARK  5 active torsions:
REMARK  status: ('A' for Active; 'I' for Inactive)
REMARK    1  A    between atoms: C_2  and  C_4
REMARK    2  A    between atoms: C_8  and  C_9
REMARK    3  A    between atoms: C_9  and  C_10
REMARK    4  A    between atoms: C_10  and  C_11
REMARK    5  A    between atoms: C_15  and  C_16
REMARK                            x       y       z     vdW  Elec       q    Type
REMARK                         _______ _______ _______ _____ _____    ______ ____
ROOT
ATOM      1  C   UNL     1      44.569   2.857  11.992  0.00  0.00    +0.000 C 
ENDROOT
BRANCH   1   2
ATOM      2  C   UNL     1      45.513   3.903  12.532  0.00  0.00    +0.000 A 
ATOM      3  C   UNL     1      46.579   3.540  13.341  0.00  0.00    +0.000 A 
ATOM      4  N   UNL     1      47.478   4.410  13.858  0.00  0.00    +0.000 NA
ATOM      5  C   UNL     1      47.297   5.709  13.550  0.00  0.00    +0.000 A 
ATOM      6  C   UNL     1      46.257   6.209  12.767  0.00  0.00    +0.000 A 
ATOM      7  C   UNL     1      45.349   5.264  12.279  0.00  0.00    +0.000 A 
BRANCH   6   8
ATOM      8  C   UNL     1      46.125   7.631  12.450  0.00  0.00    +0.000 A 
ATOM      9  C   UNL     1      47.214   8.509  12.580  0.00  0.00    +0.000 A 
ATOM     10  C   UNL     1      47.095   9.852  12.227  0.00  0.00    +0.000 A 
ATOM     11  C   UNL     1      45.887  10.341  11.733  0.00  0.00    +0.000 A 
ATOM     12  C   UNL     1      44.790   9.491  11.619  0.00  0.00    +0.000 A 
ATOM     13  C   UNL     1      44.906   8.152  11.982  0.00  0.00    +0.000 A 
ENDBRANCH   6   8
ENDBRANCH   1   2
BRANCH   1  14
ATOM     14  C   UNL     1      43.948   3.228  10.636  0.00  0.00    +0.000 C 
BRANCH  14  19
ATOM     15  C   UNL     1      46.395   2.209   7.896  0.00  0.00    +0.000 A 
ATOM     16  C   UNL     1      46.635   3.461   7.355  0.00  0.00    +0.000 A 
ATOM     17  N   UNL     1      46.038   4.595   7.803  0.00  0.00    +0.000 NA
ATOM     18  C   UNL     1      45.195   4.462   8.848  0.00  0.00    +0.000 A 
ATOM     19  C   UNL     1      44.909   3.260   9.484  0.00  0.00    +0.000 A 
ATOM     20  C   UNL     1      45.529   2.105   8.987  0.00  0.00    +0.000 A 
BRANCH  15  22
ATOM     21  N   UNL     1      46.600  -0.196   7.709  0.00  0.00    +0.000 N 
ATOM     22  C   UNL     1      47.072   1.032   7.324  0.00  0.00    +0.000 C 
ATOM     23  O   UNL     1      47.985   1.143   6.526  0.00  0.00    +0.000 OA
ATOM     24  H   UNL     1      46.997  -0.999   7.228  0.00  0.00    +0.000 HD
ATOM     25  H   UNL     1      45.698  -0.316   8.145  0.00  0.00    +0.000 HD
ENDBRANCH  15  22
ENDBRANCH  14  19
ENDBRANCH   1  14
TORSDOF 5
ENDMDL
MODEL 4
REMARK VINA RESULT:    -8.173      2.907      6.947
REMARK INTER + INTRA:         -11.247
REMARK INTER:                 -10.434
REMARK INTRA:                  -0.813
REMARK UNBOUND:                -0.685
REMARK  Name = 
REMARK  5 active torsions:
REMARK  status: ('A' for Active; 'I' for Inactive)
REMARK    1  A    between atoms: C_2  and  C_4
REMARK    2  A    between atoms: C_8  and  C_9
REMARK    3  A    between atoms: C_9  and  C_10
REMARK    4  A    between atoms: C_10  and  C_11
REMARK    5  A    between atoms: C_15  and  C_16
REMARK                            x       y       z     vdW  Elec       q    Type
REMARK                         _______ _______ _______ _____ _____    ______ ____
ROOT
ATOM      1  C   UNL     1      43.767   4.288  10.594  0.00  0.00    +0.000 C 
ENDROOT
BRANCH   1   2
ATOM      2  C   UNL     1      44.828   4.738  11.567  0.00  0.00    +0.000 A 
ATOM      3  C   UNL     1      45.120   3.980  12.691  0.00  0.00    +0.000 A 
ATOM      4  N   UNL     1      46.062   4.303  13.608  0.00  0.00    +0.000 NA
ATOM      5  C   UNL     1      46.742   5.446  13.388  0.00  0.00    +0.000 A 
ATOM      6  C   UNL     1      46.531   6.309  12.314  0.00  0.00    +0.000 A 
ATOM      7  C   UNL     1      45.531   5.931  11.411  0.00  0.00    +0.000 A 
BRANCH   6   8
ATOM      8  C   UNL     1      47.316   7.528  12.118  0.00  0.00    +0.000 A 
ATOM      9  C   UNL     1      46.783   8.792  12.423  0.00  0.00    +0.000 A 
ATOM     10  C   UNL     1      47.555   9.945  12.282  0.00  0.00    +0.000 A 
ATOM     11  C   UNL     1      48.872   9.855  11.839  0.00  0.00    +0.000 A 
ATOM     12  C   UNL     1      49.410   8.613  11.510  0.00  0.00    +0.000 A 
ATOM     13  C   UNL     1      48.636   7.462  11.639  0.00  0.00    +0.000 A 
ENDBRANCH   6   8
ENDBRANCH   1   2
BRANCH   1  14
ATOM     14  C   UNL     1      44.189   4.412   9.121  0.00  0.00    +0.000 C 
BRANCH  14  19
ATOM     15  C   UNL     1      46.616   2.283   7.093  0.00  0.00    +0.000 A 
ATOM     16  C   UNL     1      46.418   1.072   7.736  0.00  0.00    +0.000 A 
ATOM     17  N   UNL     1      45.576   0.914   8.789  0.00  0.00    +0.000 NA
ATOM     18  C   UNL     1      44.893   2.009   9.186  0.00  0.00    +0.000 A 
ATOM     19  C   UNL     1      44.993   3.261   8.591  0.00  0.00    +0.000 A 
ATOM     20  C   UNL     1      45.884   3.394   7.517  0.00  0.00    +0.000 A 
BRANCH  15  22
ATOM     21  N   UNL     1      47.388   3.381   5.078  0.00  0.00    +0.000 N 
ATOM     22  C   UNL     1      47.571   2.360   5.975  0.00  0.00    +0.000 C 
ATOM     23  O   UNL     1      48.496   1.576   5.867  0.00  0.00    +0.000 OA
ATOM     24  H   UNL     1      48.113   3.495   4.375  0.00  0.00    +0.000 HD
ATOM     25  H   UNL     1      46.812   4.184   5.285  0.00  0.00    +0.000 HD
ENDBRANCH  15  22
ENDBRANCH  14  19
ENDBRANCH   1  14
TORSDOF 5
ENDMDL
MODEL 5
REMARK VINA RESULT:    -7.942      1.278      1.900
REMARK INTER + INTRA:         -10.949
REMARK INTER:                 -10.162
REMARK INTRA:                  -0.787
REMARK UNBOUND:                -0.685
REMARK  Name = 
REMARK  5 active torsions:
REMARK  status: ('A' for Active; 'I' for Inactive)
REMARK    1  A    between atoms: C_2  and  C_4
REMARK    2  A    between atoms: C_8  and  C_9
REMARK    3  A    between atoms: C_9  and  C_10
REMARK    4  A    between atoms: C_10  and  C_11
REMARK    5  A    between atoms: C_15  and  C_16
REMARK                            x       y       z     vdW  Elec       q    Type
REMARK                         _______ _______ _______ _____ _____    ______ ____
ROOT
ATOM      1  C   UNL     1      45.165   5.744  12.724  0.00  0.00    +0.000 C 
ENDROOT
BRANCH   1   2
ATOM      2  C   UNL     1      44.738   4.602  11.834  0.00  0.00    +0.000 A 
ATOM      3  C   UNL     1      43.615   3.850  12.143  0.00  0.00    +0.000 A 
ATOM      4  N   UNL     1      43.157   2.818  11.396  0.00  0.00    +0.000 NA
ATOM      5  C   UNL     1      43.862   2.526  10.286  0.00  0.00    +0.000 A 
ATOM      6  C   UNL     1      45.018   3.187   9.874  0.00  0.00    +0.000 A 
ATOM      7  C   UNL     1      45.453   4.230  10.698  0.00  0.00    +0.000 A 
BRANCH   6   8
ATOM      8  C   UNL     1      45.730   2.836   8.645  0.00  0.00    +0.000 A 
ATOM      9  C   UNL     1      46.143   1.516   8.397  0.00  0.00    +0.000 A 
ATOM     10  C   UNL     1      46.776   1.179   7.201  0.00  0.00    +0.000 A 
ATOM     11  C   UNL     1      47.003   2.152   6.231  0.00  0.00    +0.000 A 
ATOM     12  C   UNL     1      46.621   3.470   6.469  0.00  0.00    +0.000 A 
ATOM     13  C   UNL     1      46.000   3.810   7.668  0.00  0.00    +0.000 A 
ENDBRANCH   6   8
ENDBRANCH   1   2
BRANCH   1  14
ATOM     14  C   UNL     1      46.673   6.035  12.674  0.00  0.00    +0.000 C 
BRANCH  14  19
ATOM     15  C   UNL     1      47.783   4.785  16.101  0.00  0.00    +0.000 A 
ATOM     16  C   UNL     1      48.815   5.680  16.325  0.00  0.00    +0.000 A 
ATOM     17  N   UNL     1      49.184   6.634  15.432  0.00  0.00    +0.000 NA
ATOM     18  C   UNL     1      48.468   6.701  14.289  0.00  0.00    +0.000 A 
ATOM     19  C   UNL     1      47.395   5.875  13.980  0.00  0.00    +0.000 A 
ATOM     20  C   UNL     1      47.050   4.890  14.916  0.00  0.00    +0.000 A 
BRANCH  15  22
ATOM     21  N   UNL     1      48.414   3.570  18.098  0.00  0.00    +0.000 N 
ATOM     22  C   UNL     1      47.473   3.768  17.120  0.00  0.00    +0.000 C 
ATOM     23  O   UNL     1      46.423   3.153  17.113  0.00  0.00    +0.000 OA
ATOM     24  H   UNL     1      48.147   2.950  18.857  0.00  0.00    +0.000 HD
ATOM     25  H   UNL     1      49.151   4.235  18.280  0.00  0.00    +0.000 HD
ENDBRANCH  15  22
ENDBRANCH  14  19
ENDBRANCH   1  14
TORSDOF 5
ENDMDL
MODEL 6
REMARK VINA RESULT:    -7.899      1.845      2.559
REMARK INTER + INTRA:         -10.893
REMARK INTER:                 -10.157
REMARK INTRA:                  -0.736
REMARK UNBOUND:                -0.685
REMARK  Name = 
REMARK  5 active torsions:
REMARK  status: ('A' for Active; 'I' for Inactive)
REMARK    1  A    between atoms: C_2  and  C_4
REMARK    2  A    between atoms: C_8  and  C_9
REMARK    3  A    between atoms: C_9  and  C_10
REMARK    4  A    between atoms: C_10  and  C_11
REMARK    5  A    between atoms: C_15  and  C_16
REMARK                            x       y       z     vdW  Elec       q    Type
REMARK                         _______ _______ _______ _____ _____    ______ ____
ROOT
ATOM      1  C   UNL     1      44.216   6.296  11.799  0.00  0.00    +0.000 C 
ENDROOT
BRANCH   1   2
ATOM      2  C   UNL     1      44.158   4.903  11.220  0.00  0.00    +0.000 A 
ATOM      3  C   UNL     1      43.290   3.958  11.746  0.00  0.00    +0.000 A 
ATOM      4  N   UNL     1      43.166   2.692  11.282  0.00  0.00    +0.000 NA
ATOM      5  C   UNL     1      43.953   2.358  10.241  0.00  0.00    +0.000 A 
ATOM      6  C   UNL     1      44.881   3.204   9.636  0.00  0.00    +0.000 A 
ATOM      7  C   UNL     1      44.978   4.492  10.172  0.00  0.00    +0.000 A 
BRANCH   6   8
ATOM      8  C   UNL     1      45.696   2.789   8.493  0.00  0.00    +0.000 A 
ATOM      9  C   UNL     1      46.184   1.475   8.387  0.00  0.00    +0.000 A 
ATOM     10  C   UNL     1      46.916   1.073   7.271  0.00  0.00    +0.000 A 
ATOM     11  C   UNL     1      47.168   1.974   6.239  0.00  0.00    +0.000 A 
ATOM     12  C   UNL     1      46.713   3.286   6.337  0.00  0.00    +0.000 A 
ATOM     13  C   UNL     1      45.991   3.692   7.457  0.00  0.00    +0.000 A 
ENDBRANCH   6   8
ENDBRANCH   1   2
BRANCH   1  14
ATOM     14  C   UNL     1      45.507   7.053  11.454  0.00  0.00    +0.000 C 
BRANCH  14  19
ATOM     15  C   UNL     1      47.868   8.102  14.259  0.00  0.00    +0.000 A 
ATOM     16  C   UNL     1      48.481   6.880  14.482  0.00  0.00    +0.000 A 
ATOM     17  N   UNL     1      48.161   5.748  13.805  0.00  0.00    +0.000 NA
ATOM     18  C   UNL     1      47.210   5.862  12.854  0.00  0.00    +0.000 A 
ATOM     19  C   UNL     1      46.556   7.044  12.528  0.00  0.00    +0.000 A 
ATOM     20  C   UNL     1      46.898   8.191  13.258  0.00  0.00    +0.000 A 
BRANCH  15  22
ATOM     21  N   UNL     1      47.733   9.359  16.324  0.00  0.00    +0.000 N 
ATOM     22  C   UNL     1      48.266   9.269  15.064  0.00  0.00    +0.000 C 
ATOM     23  O   UNL     1      49.052  10.098  14.644  0.00  0.00    +0.000 OA
ATOM     24  H   UNL     1      48.097  10.104  16.912  0.00  0.00    +0.000 HD
ATOM     25  H   UNL     1      47.305   8.570  16.787  0.00  0.00    +0.000 HD
ENDBRANCH  15  22
ENDBRANCH  14  19
ENDBRANCH   1  14
TORSDOF 5
ENDMDL
MODEL 7
REMARK VINA RESULT:    -7.497      2.860      7.202
REMARK INTER + INTRA:         -10.373
REMARK INTER:                  -9.871
REMARK INTRA:                  -0.502
REMARK UNBOUND:                -0.685
REMARK  Name = 
REMARK  5 active torsions:
REMARK  status: ('A' for Active; 'I' for Inactive)
REMARK    1  A    between atoms: C_2  and  C_4
REMARK    2  A    between atoms: C_8  and  C_9
REMARK    3  A    between atoms: C_9  and  C_10
REMARK    4  A    between atoms: C_10  and  C_11
REMARK    5  A    between atoms: C_15  and  C_16
REMARK                            x       y       z     vdW  Elec       q    Type
REMARK                         _______ _______ _______ _____ _____    ______ ____
ROOT
ATOM      1  C   UNL     1      44.505   3.032  11.796  0.00  0.00    +0.000 C 
ENDROOT
BRANCH   1   2
ATOM      2  C   UNL     1      45.313   4.099  12.494  0.00  0.00    +0.000 A 
ATOM      3  C   UNL     1      45.307   5.405  12.028  0.00  0.00    +0.000 A 
ATOM      4  N   UNL     1      45.993   6.423  12.598  0.00  0.00    +0.000 NA
ATOM      5  C   UNL     1      46.723   6.115  13.688  0.00  0.00    +0.000 A 
ATOM      6  C   UNL     1      46.833   4.841  14.243  0.00  0.00    +0.000 A 
ATOM      7  C   UNL     1      46.118   3.827  13.598  0.00  0.00    +0.000 A 
BRANCH   6   8
ATOM      8  C   UNL     1      47.628   4.571  15.442  0.00  0.00    +0.000 A 
ATOM      9  C   UNL     1      48.287   5.608  16.125  0.00  0.00    +0.000 A 
ATOM     10  C   UNL     1      49.000   5.352  17.295  0.00  0.00    +0.000 A 
ATOM     11  C   UNL     1      49.064   4.057  17.806  0.00  0.00    +0.000 A 
ATOM     12  C   UNL     1      48.437   3.014  17.130  0.00  0.00    +0.000 A 
ATOM     13  C   UNL     1      47.734   3.267  15.955  0.00  0.00    +0.000 A 
ENDBRANCH   6   8
ENDBRANCH   1   2
BRANCH   1  14
ATOM     14  C   UNL     1      43.979   3.460  10.417  0.00  0.00    +0.000 C 
BRANCH  14  19
ATOM     15  C   UNL     1      46.490   2.287   7.799  0.00  0.00    +0.000 A 
ATOM     16  C   UNL     1      46.829   3.520   7.268  0.00  0.00    +0.000 A 
ATOM     17  N   UNL     1      46.279   4.689   7.684  0.00  0.00    +0.000 NA
ATOM     18  C   UNL     1      45.380   4.611   8.688  0.00  0.00    +0.000 A 
ATOM     19  C   UNL     1      44.995   3.431   9.312  0.00  0.00    +0.000 A 
ATOM     20  C   UNL     1      45.568   2.239   8.847  0.00  0.00    +0.000 A 
BRANCH  15  22
ATOM     21  N   UNL     1      46.642  -0.129   7.725  0.00  0.00    +0.000 N 
ATOM     22  C   UNL     1      47.123   1.070   7.262  0.00  0.00    +0.000 C 
ATOM     23  O   UNL     1      48.008   1.122   6.428  0.00  0.00    +0.000 OA
ATOM     24  H   UNL     1      47.005  -0.962   7.269  0.00  0.00    +0.000 HD
ATOM     25  H   UNL     1      45.754  -0.208   8.198  0.00  0.00    +0.000 HD
ENDBRANCH  15  22
ENDBRANCH  14  19
ENDBRANCH   1  14
TORSDOF 5
ENDMDL
MODEL 8
REMARK VINA RESULT:    -7.357      2.724      7.074
REMARK INTER + INTRA:         -10.192
REMARK INTER:                  -9.569
REMARK INTRA:                  -0.623
REMARK UNBOUND:                -0.685
REMARK  Name = 
REMARK  5 active torsions:
REMARK  status: ('A' for Active; 'I' for Inactive)
REMARK    1  A    between atoms: C_2  and  C_4
REMARK    2  A    between atoms: C_8  and  C_9
REMARK    3  A    between atoms: C_9  and  C_10
REMARK    4  A    between atoms: C_10  and  C_11
REMARK    5  A    between atoms: C_15  and  C_16
REMARK                            x       y       z     vdW  Elec       q    Type
REMARK                         _______ _______ _______ _____ _____    ______ ____
ROOT
ATOM      1  C   UNL     1      44.739   3.178  12.182  0.00  0.00    +0.000 C 
ENDROOT
BRANCH   1   2
ATOM      2  C   UNL     1      45.202   4.586  12.466  0.00  0.00    +0.000 A 
ATOM      3  C   UNL     1      44.476   5.673  12.002  0.00  0.00    +0.000 A 
ATOM      4  N   UNL     1      44.812   6.966  12.220  0.00  0.00    +0.000 NA
ATOM      5  C   UNL     1      45.933   7.179  12.936  0.00  0.00    +0.000 A 
ATOM      6  C   UNL     1      46.763   6.179  13.440  0.00  0.00    +0.000 A 
ATOM      7  C   UNL     1      46.374   4.864  13.165  0.00  0.00    +0.000 A 
BRANCH   6   8
ATOM      8  C   UNL     1      47.959   6.473  14.230  0.00  0.00    +0.000 A 
ATOM      9  C   UNL     1      48.150   5.900  15.499  0.00  0.00    +0.000 A 
ATOM     10  C   UNL     1      49.316   6.144  16.224  0.00  0.00    +0.000 A 
ATOM     11  C   UNL     1      50.313   6.959  15.693  0.00  0.00    +0.000 A 
ATOM     12  C   UNL     1      50.131   7.554  14.447  0.00  0.00    +0.000 A 
ATOM     13  C   UNL     1      48.962   7.320  13.727  0.00  0.00    +0.000 A 
ENDBRANCH   6   8
ENDBRANCH   1   2
BRANCH   1  14
ATOM     14  C   UNL     1      43.937   3.044  10.878  0.00  0.00    +0.000 C 
BRANCH  14  19
ATOM     15  C   UNL     1      46.259   2.148   7.989  0.00  0.00    +0.000 A 
ATOM     16  C   UNL     1      46.186   3.339   7.287  0.00  0.00    +0.000 A 
ATOM     17  N   UNL     1      45.419   4.390   7.675  0.00  0.00    +0.000 NA
ATOM     18  C   UNL     1      44.727   4.241   8.824  0.00  0.00    +0.000 A 
ATOM     19  C   UNL     1      44.754   3.103   9.620  0.00  0.00    +0.000 A 
ATOM     20  C   UNL     1      45.542   2.029   9.183  0.00  0.00    +0.000 A 
BRANCH  15  22
ATOM     21  N   UNL     1      48.198   1.416   6.738  0.00  0.00    +0.000 N 
ATOM     22  C   UNL     1      47.099   1.054   7.473  0.00  0.00    +0.000 C 
ATOM     23  O   UNL     1      46.849  -0.113   7.713  0.00  0.00    +0.000 OA
ATOM     24  H   UNL     1      48.832   0.664   6.480  0.00  0.00    +0.000 HD
ATOM     25  H   UNL     1      48.571   2.354   6.751  0.00  0.00    +0.000 HD
ENDBRANCH  15  22
ENDBRANCH  14  19
ENDBRANCH   1  14
TORSDOF 5
ENDMDL
MODEL 9
REMARK VINA RESULT:    -7.349      1.926      2.688
REMARK INTER + INTRA:         -10.182
REMARK INTER:                  -9.469
REMARK INTRA:                  -0.713
REMARK UNBOUND:                -0.685
REMARK  Name = 
REMARK  5 active torsions:
REMARK  status: ('A' for Active; 'I' for Inactive)
REMARK    1  A    between atoms: C_2  and  C_4
REMARK    2  A    between atoms: C_8  and  C_9
REMARK    3  A    between atoms: C_9  and  C_10
REMARK    4  A    between atoms: C_10  and  C_11
REMARK    5  A    between atoms: C_15  and  C_16
REMARK                            x       y       z     vdW  Elec       q    Type
REMARK                         _______ _______ _______ _____ _____    ______ ____
ROOT
ATOM      1  C   UNL     1      45.963   7.053  12.609  0.00  0.00    +0.000 C 
ENDROOT
BRANCH   1   2
ATOM      2  C   UNL     1      45.147   6.176  11.691  0.00  0.00    +0.000 A 
ATOM      3  C   UNL     1      43.762   6.189  11.752  0.00  0.00    +0.000 A 
ATOM      4  N   UNL     1      42.955   5.444  10.961  0.00  0.00    +0.000 NA
ATOM      5  C   UNL     1      43.568   4.644  10.067  0.00  0.00    +0.000 A 
ATOM      6  C   UNL     1      44.948   4.520   9.919  0.00  0.00    +0.000 A 
ATOM      7  C   UNL     1      45.730   5.299  10.778  0.00  0.00    +0.000 A 
BRANCH   6   8
ATOM      8  C   UNL     1      45.557   3.647   8.914  0.00  0.00    +0.000 A 
ATOM      9  C   UNL     1      46.239   4.180   7.807  0.00  0.00    +0.000 A 
ATOM     10  C   UNL     1      46.860   3.343   6.881  0.00  0.00    +0.000 A 
ATOM     11  C   UNL     1      46.815   1.961   7.047  0.00  0.00    +0.000 A 
ATOM     12  C   UNL     1      46.124   1.414   8.125  0.00  0.00    +0.000 A 
ATOM     13  C   UNL     1      45.493   2.249   9.044  0.00  0.00    +0.000 A 
ENDBRANCH   6   8
ENDBRANCH   1   2
BRANCH   1  14
ATOM     14  C   UNL     1      47.374   6.512  12.885  0.00  0.00    +0.000 C 
BRANCH  14  19
ATOM     15  C   UNL     1      48.425   5.513  16.412  0.00  0.00    +0.000 A 
ATOM     16  C   UNL     1      47.705   4.335  16.518  0.00  0.00    +0.000 A 
ATOM     17  N   UNL     1      46.890   3.867  15.538  0.00  0.00    +0.000 NA
ATOM     18  C   UNL     1      46.824   4.599  14.406  0.00  0.00    +0.000 A 
ATOM     19  C   UNL     1      47.529   5.775  14.184  0.00  0.00    +0.000 A 
ATOM     20  C   UNL     1      48.348   6.241  15.222  0.00  0.00    +0.000 A 
BRANCH  15  22
ATOM     21  N   UNL     1      50.620   5.850  17.376  0.00  0.00    +0.000 N 
ATOM     22  C   UNL     1      49.263   5.953  17.541  0.00  0.00    +0.000 C 
ATOM     23  O   UNL     1      48.778   6.412  18.558  0.00  0.00    +0.000 OA
ATOM     24  H   UNL     1      51.193   6.257  18.111  0.00  0.00    +0.000 HD
ATOM     25  H   UNL     1      51.047   5.731  16.469  0.00  0.00    +0.000 HD
ENDBRANCH  15  22
ENDBRANCH  14  19
ENDBRANCH   1  14
TORSDOF 5
ENDMDL
