MODEL 1
REMARK VINA RESULT:    -7.247      0.000      0.000
REMARK INTER + INTRA:         -10.384
REMARK INTER:                  -9.578
REMARK INTRA:                  -0.806
REMARK UNBOUND:                -0.806
REMARK  Name = 
REMARK  6 active torsions:
REMARK  status: ('A' for Active; 'I' for Inactive)
REMARK    1  A    between atoms: N_1  and  C_2
REMARK    2  A    between atoms: C_2  and  C_3
REMARK    3  A    between atoms: C_7  and  O_8
REMARK    4  A    between atoms: O_8  and  C_9
REMARK    5  A    between atoms: C_9  and  C_10
REMARK    6  A    between atoms: C_10  and  C_11
REMARK                            x       y       z     vdW  Elec       q    Type
REMARK                         _______ _______ _______ _____ _____    ______ ____
ROOT
ATOM      1  C   UNL     1      46.717   5.210  13.788  0.00  0.00    +0.000 A 
ATOM      2  C   UNL     1      47.619   6.001  13.063  0.00  0.00    +0.000 A 
ATOM      3  C   UNL     1      47.218   6.648  11.901  0.00  0.00    +0.000 A 
ATOM      4  C   UNL     1      45.909   6.505  11.440  0.00  0.00    +0.000 A 
ATOM      5  C   UNL     1      44.991   5.707  12.131  0.00  0.00    +0.000 A 
ATOM      6  C   UNL     1      45.401   5.067  13.307  0.00  0.00    +0.000 A 
ENDROOT
BRANCH   1   7
ATOM      7  C   UNL     1      47.180   4.507  15.040  0.00  0.00    +0.000 C 
BRANCH   7   8
ATOM      8  N   UNL     1      47.590   3.132  14.764  0.00  0.00    +0.000 NA
ATOM      9  H   UNL     1      48.169   3.117  13.928  0.00  0.00    +0.000 HD
ATOM     10  H   UNL     1      46.760   2.580  14.555  0.00  0.00    +0.000 HD
ENDBRANCH   7   8
ENDBRANCH   1   7
BRANCH   5  11
ATOM     11  O   UNL     1      43.690   5.487  11.736  0.00  0.00    +0.000 OA
BRANCH  11  12
ATOM     12  C   UNL     1      43.541   4.902  10.436  0.00  0.00    +0.000 C 
BRANCH  12  13
ATOM     13  C   UNL     1      43.966   3.434  10.434  0.00  0.00    +0.000 C 
BRANCH  13  14
ATOM     14  C   UNL     1      44.973   3.171   9.335  0.00  0.00    +0.000 A 
ATOM     15  C   UNL     1      45.478   4.223   8.557  0.00  0.00    +0.000 A 
ATOM     16  C   UNL     1      46.373   3.974   7.514  0.00  0.00    +0.000 A 
ATOM     17  C   UNL     1      46.773   2.668   7.232  0.00  0.00    +0.000 A 
ATOM     18  C   UNL     1      46.270   1.616   7.994  0.00  0.00    +0.000 A 
ATOM     19 CL   UNL     1      46.752   0.002   7.642  0.00  0.00    +0.000 Cl
ATOM     20  C   UNL     1      45.374   1.859   9.037  0.00  0.00    +0.000 A 
ENDBRANCH  13  14
ENDBRANCH  12  13
ENDBRANCH  11  12
ENDBRANCH   5  11
TORSDOF 6
ENDMDL
MODEL 2
REMARK VINA RESULT:    -7.194      3.324      5.902
REMARK INTER + INTRA:         -10.314
REMARK INTER:                  -9.540
REMARK INTRA:                  -0.773
REMARK UNBOUND:                -0.806
REMARK  Name = 
REMARK  6 active torsions:
REMARK  status: ('A' for Active; 'I' for Inactive)
REMARK    1  A    between atoms: N_1  and  C_2
REMARK    2  A    between atoms: C_2  and  C_3
REMARK    3  A    between atoms: C_7  and  O_8
REMARK    4  A    between atoms: O_8  and  C_9
REMARK    5  A    between atoms: C_9  and  C_10
REMARK    6  A    between atoms: C_10  and  C_11
REMARK                            x       y       z     vdW  Elec       q    Type
REMARK                         _______ _______ _______ _____ _____    ______ ____
ROOT
ATOM      1  C   UNL     1      46.280   2.181   7.961  0.00  0.00    +0.000 A 
ATOM      2  C   UNL     1      46.505   3.506   7.563  0.00  0.00    +0.000 A 
ATOM      3  C   UNL     1      45.828   4.554   8.176  0.00  0.00    +0.000 A 
ATOM      4  C   UNL     1      44.907   4.291   9.189  0.00  0.00    +0.000 A 
ATOM      5  C   UNL     1      44.647   2.977   9.595  0.00  0.00    +0.000 A 
ATOM      6  C   UNL     1      45.341   1.928   8.980  0.00  0.00    +0.000 A 
ENDROOT
BRANCH   1   7
ATOM      7  C   UNL     1      47.018   1.060   7.272  0.00  0.00    +0.000 C 
BRANCH   7   8
ATOM      8  N   UNL     1      48.197   1.548   6.561  0.00  0.00    +0.000 NA
ATOM      9  H   UNL     1      49.033   1.278   7.074  0.00  0.00    +0.000 HD
ATOM     10  H   UNL     1      48.174   2.566   6.554  0.00  0.00    +0.000 HD
ENDBRANCH   7   8
ENDBRANCH   1   7
BRANCH   5  11
ATOM     11  O   UNL     1      43.737   2.622  10.566  0.00  0.00    +0.000 OA
BRANCH  11  12
ATOM     12  C   UNL     1      43.166   3.718  11.292  0.00  0.00    +0.000 C 
BRANCH  12  13
ATOM     13  C   UNL     1      43.672   3.754  12.734  0.00  0.00    +0.000 C 
BRANCH  13  14
ATOM     14  C   UNL     1      44.831   4.719  12.869  0.00  0.00    +0.000 A 
ATOM     15  C   UNL     1      46.118   4.256  13.181  0.00  0.00    +0.000 A 
ATOM     16  C   UNL     1      47.177   5.152  13.348  0.00  0.00    +0.000 A 
ATOM     17  C   UNL     1      46.963   6.523  13.211  0.00  0.00    +0.000 A 
ATOM     18  C   UNL     1      45.686   6.991  12.910  0.00  0.00    +0.000 A 
ATOM     19 CL   UNL     1      45.415   8.683  12.751  0.00  0.00    +0.000 Cl
ATOM     20  C   UNL     1      44.624   6.101  12.742  0.00  0.00    +0.000 A 
ENDBRANCH  13  14
ENDBRANCH  12  13
ENDBRANCH  11  12
ENDBRANCH   5  11
TORSDOF 6
ENDMDL
MODEL 3
REMARK VINA RESULT:    -6.759      3.176      6.154
REMARK INTER + INTRA:          -9.738
REMARK INTER:                  -9.215
REMARK INTRA:                  -0.524
REMARK UNBOUND:                -0.806
REMARK  Name = 
REMARK  6 active torsions:
REMARK  status: ('A' for Active; 'I' for Inactive)
REMARK    1  A    between atoms: N_1  and  C_2
REMARK    2  A    between atoms: C_2  and  C_3
REMARK    3  A    between atoms: C_7  and  O_8
REMARK    4  A    between atoms: O_8  and  C_9
REMARK    5  A    between atoms: C_9  and  C_10
REMARK    6  A    between atoms: C_10  and  C_11
REMARK                            x       y       z     vdW  Elec       q    Type
REMARK                         _______ _______ _______ _____ _____    ______ ____
ROOT
ATOM      1  C   UNL     1      46.543   2.589   6.745  0.00  0.00    +0.000 A 
ATOM      2  C   UNL     1      46.591   1.330   7.359  0.00  0.00    +0.000 A 
ATOM      3  C   UNL     1      45.877   1.083   8.526  0.00  0.00    +0.000 A 
ATOM      4  C   UNL     1      45.112   2.096   9.102  0.00  0.00    +0.000 A 
ATOM      5  C   UNL     1      45.059   3.370   8.523  0.00  0.00    +0.000 A 
ATOM      6  C   UNL     1      45.773   3.607   7.342  0.00  0.00    +0.000 A 
ENDROOT
BRANCH   1   7
ATOM      7  C   UNL     1      47.337   2.837   5.486  0.00  0.00    +0.000 C 
BRANCH   7   8
ATOM      8  N   UNL     1      48.469   1.920   5.376  0.00  0.00    +0.000 NA
ATOM      9  H   UNL     1      48.123   0.966   5.307  0.00  0.00    +0.000 HD
ATOM     10  H   UNL     1      49.015   1.972   6.234  0.00  0.00    +0.000 HD
ENDBRANCH   7   8
ENDBRANCH   1   7
BRANCH   5  11
ATOM     11  O   UNL     1      44.354   4.435   9.037  0.00  0.00    +0.000 OA
BRANCH  11  12
ATOM     12  C   UNL     1      43.757   4.207  10.319  0.00  0.00    +0.000 C 
BRANCH  12  13
ATOM     13  C   UNL     1      43.719   5.488  11.152  0.00  0.00    +0.000 C 
BRANCH  13  14
ATOM     14  C   UNL     1      45.047   5.715  11.842  0.00  0.00    +0.000 A 
ATOM     15  C   UNL     1      46.010   6.570  11.284  0.00  0.00    +0.000 A 
ATOM     16  C   UNL     1      47.252   6.743  11.900  0.00  0.00    +0.000 A 
ATOM     17  C   UNL     1      47.551   6.061  13.078  0.00  0.00    +0.000 A 
ATOM     18  C   UNL     1      46.604   5.203  13.634  0.00  0.00    +0.000 A 
ATOM     19 CL   UNL     1      46.974   4.350  15.083  0.00  0.00    +0.000 Cl
ATOM     20  C   UNL     1      45.361   5.026  13.024  0.00  0.00    +0.000 A 
ENDBRANCH  13  14
ENDBRANCH  12  13
ENDBRANCH  11  12
ENDBRANCH   5  11
TORSDOF 6
ENDMDL
MODEL 4
REMARK VINA RESULT:    -6.633      1.965      2.447
REMARK INTER + INTRA:          -9.572
REMARK INTER:                  -8.747
REMARK INTRA:                  -0.825
REMARK UNBOUND:                -0.806
REMARK  Name = 
REMARK  6 active torsions:
REMARK  status: ('A' for Active; 'I' for Inactive)
REMARK    1  A    between atoms: N_1  and  C_2
REMARK    2  A    between atoms: C_2  and  C_3
REMARK    3  A    between atoms: C_7  and  O_8
REMARK    4  A    between atoms: O_8  and  C_9
REMARK    5  A    between atoms: C_9  and  C_10
REMARK    6  A    between atoms: C_10  and  C_11
REMARK                            x       y       z     vdW  Elec       q    Type
REMARK                         _______ _______ _______ _____ _____    ______ ____
ROOT
ATOM      1  C   UNL     1      45.994   7.242  12.758  0.00  0.00    +0.000 A 
ATOM      2  C   UNL     1      47.144   6.567  13.191  0.00  0.00    +0.000 A 
ATOM      3  C   UNL     1      47.104   5.207  13.472  0.00  0.00    +0.000 A 
ATOM      4  C   UNL     1      45.908   4.502  13.336  0.00  0.00    +0.000 A 
ATOM      5  C   UNL     1      44.738   5.152  12.924  0.00  0.00    +0.000 A 
ATOM      6  C   UNL     1      44.791   6.520  12.632  0.00  0.00    +0.000 A 
ENDROOT
BRANCH   1   7
ATOM      7  C   UNL     1      46.060   8.721  12.471  0.00  0.00    +0.000 C 
BRANCH   7   8
ATOM      8  N   UNL     1      44.777   9.374  12.718  0.00  0.00    +0.000 NA
ATOM      9  H   UNL     1      44.541   9.288  13.704  0.00  0.00    +0.000 HD
ATOM     10  H   UNL     1      44.053   8.878  12.200  0.00  0.00    +0.000 HD
ENDBRANCH   7   8
ENDBRANCH   1   7
BRANCH   5  11
ATOM     11  O   UNL     1      43.511   4.543  12.788  0.00  0.00    +0.000 OA
BRANCH  11  12
ATOM     12  C   UNL     1      43.126   4.248  11.439  0.00  0.00    +0.000 C 
BRANCH  12  13
ATOM     13  C   UNL     1      43.686   2.901  10.983  0.00  0.00    +0.000 C 
BRANCH  13  14
ATOM     14  C   UNL     1      44.648   3.087   9.829  0.00  0.00    +0.000 A 
ATOM     15  C   UNL     1      44.911   4.364   9.312  0.00  0.00    +0.000 A 
ATOM     16  C   UNL     1      45.764   4.529   8.218  0.00  0.00    +0.000 A 
ATOM     17  C   UNL     1      46.363   3.419   7.623  0.00  0.00    +0.000 A 
ATOM     18  C   UNL     1      46.100   2.146   8.125  0.00  0.00    +0.000 A 
ATOM     19 CL   UNL     1      46.828   0.773   7.386  0.00  0.00    +0.000 Cl
ATOM     20  C   UNL     1      45.248   1.975   9.217  0.00  0.00    +0.000 A 
ENDBRANCH  13  14
ENDBRANCH  12  13
ENDBRANCH  11  12
ENDBRANCH   5  11
TORSDOF 6
ENDMDL
MODEL 5
REMARK VINA RESULT:    -5.693      3.112      6.006
REMARK INTER + INTRA:          -8.330
REMARK INTER:                  -7.755
REMARK INTRA:                  -0.575
REMARK UNBOUND:                -0.806
REMARK  Name = 
REMARK  6 active torsions:
REMARK  status: ('A' for Active; 'I' for Inactive)
REMARK    1  A    between atoms: N_1  and  C_2
REMARK    2  A    between atoms: C_2  and  C_3
REMARK    3  A    between atoms: C_7  and  O_8
REMARK    4  A    between atoms: O_8  and  C_9
REMARK    5  A    between atoms: C_9  and  C_10
REMARK    6  A    between atoms: C_10  and  C_11
REMARK                            x       y       z     vdW  Elec       q    Type
REMARK                         _______ _______ _______ _____ _____    ______ ____
ROOT
ATOM      1  C   UNL     1      45.906   3.566   7.967  0.00  0.00    +0.000 A 
ATOM      2  C   UNL     1      45.485   2.279   8.327  0.00  0.00    +0.000 A 
ATOM      3  C   UNL     1      44.721   2.078   9.470  0.00  0.00    +0.000 A 
ATOM      4  C   UNL     1      44.375   3.161  10.277  0.00  0.00    +0.000 A 
ATOM      5  C   UNL     1      44.796   4.456   9.954  0.00  0.00    +0.000 A 
ATOM      6  C   UNL     1      45.557   4.652   8.795  0.00  0.00    +0.000 A 
ENDROOT
BRANCH   1   7
ATOM      7  C   UNL     1      46.746   3.758   6.728  0.00  0.00    +0.000 C 
BRANCH   7   8
ATOM      8  N   UNL     1      47.835   2.787   6.661  0.00  0.00    +0.000 NA
ATOM      9  H   UNL     1      48.559   3.137   6.037  0.00  0.00    +0.000 HD
ATOM     10  H   UNL     1      47.481   1.928   6.245  0.00  0.00    +0.000 HD
ENDBRANCH   7   8
ENDBRANCH   1   7
BRANCH   5  11
ATOM     11  O   UNL     1      44.525   5.579  10.704  0.00  0.00    +0.000 OA
BRANCH  11  12
ATOM     12  C   UNL     1      44.022   5.321  12.021  0.00  0.00    +0.000 C 
BRANCH  12  13
ATOM     13  C   UNL     1      45.124   5.450  13.073  0.00  0.00    +0.000 C 
BRANCH  13  14
ATOM     14  C   UNL     1      46.001   6.650  12.782  0.00  0.00    +0.000 A 
ATOM     15  C   UNL     1      45.467   7.948  12.790  0.00  0.00    +0.000 A 
ATOM     16  C   UNL     1      46.267   9.050  12.478  0.00  0.00    +0.000 A 
ATOM     17  C   UNL     1      47.610   8.870  12.148  0.00  0.00    +0.000 A 
ATOM     18  C   UNL     1      48.145   7.584  12.129  0.00  0.00    +0.000 A 
ATOM     19 CL   UNL     1      49.799   7.356  11.712  0.00  0.00    +0.000 Cl
ATOM     20  C   UNL     1      47.351   6.479  12.440  0.00  0.00    +0.000 A 
ENDBRANCH  13  14
ENDBRANCH  12  13
ENDBRANCH  11  12
ENDBRANCH   5  11
TORSDOF 6
ENDMDL
MODEL 6
REMARK VINA RESULT:    -5.680      4.513      7.630
REMARK INTER + INTRA:          -8.313
REMARK INTER:                  -7.973
REMARK INTRA:                  -0.340
REMARK UNBOUND:                -0.806
REMARK  Name = 
REMARK  6 active torsions:
REMARK  status: ('A' for Active; 'I' for Inactive)
REMARK    1  A    between atoms: N_1  and  C_2
REMARK    2  A    between atoms: C_2  and  C_3
REMARK    3  A    between atoms: C_7  and  O_8
REMARK    4  A    between atoms: O_8  and  C_9
REMARK    5  A    between atoms: C_9  and  C_10
REMARK    6  A    between atoms: C_10  and  C_11
REMARK                            x       y       z     vdW  Elec       q    Type
REMARK                         _______ _______ _______ _____ _____    ______ ____
ROOT
ATOM      1  C   UNL     1      44.918   3.988  11.495  0.00  0.00    +0.000 A 
ATOM      2  C   UNL     1      45.238   5.306  11.140  0.00  0.00    +0.000 A 
ATOM      3  C   UNL     1      46.139   6.044  11.898  0.00  0.00    +0.000 A 
ATOM      4  C   UNL     1      46.725   5.480  13.030  0.00  0.00    +0.000 A 
ATOM      5  C   UNL     1      46.410   4.173  13.421  0.00  0.00    +0.000 A 
ATOM      6  C   UNL     1      45.510   3.432  12.646  0.00  0.00    +0.000 A 
ENDROOT
BRANCH   1   7
ATOM      7  C   UNL     1      43.927   3.211  10.664  0.00  0.00    +0.000 C 
BRANCH   7   8
ATOM      8  N   UNL     1      42.919   2.561  11.498  0.00  0.00    +0.000 NA
ATOM      9  H   UNL     1      42.130   2.285  10.918  0.00  0.00    +0.000 HD
ATOM     10  H   UNL     1      42.564   3.240  12.170  0.00  0.00    +0.000 HD
ENDBRANCH   7   8
ENDBRANCH   1   7
BRANCH   5  11
ATOM     11  O   UNL     1      46.919   3.545  14.537  0.00  0.00    +0.000 OA
BRANCH  11  12
ATOM     12  C   UNL     1      47.241   4.415  15.629  0.00  0.00    +0.000 C 
BRANCH  12  13
ATOM     13  C   UNL     1      47.421   3.633  16.930  0.00  0.00    +0.000 C 
BRANCH  13  14
ATOM     14  C   UNL     1      48.887   3.362  17.191  0.00  0.00    +0.000 A 
ATOM     15  C   UNL     1      49.465   2.133  16.838  0.00  0.00    +0.000 A 
ATOM     16  C   UNL     1      50.807   1.868  17.121  0.00  0.00    +0.000 A 
ATOM     17  C   UNL     1      51.590   2.827  17.764  0.00  0.00    +0.000 A 
ATOM     18  C   UNL     1      51.022   4.046  18.125  0.00  0.00    +0.000 A 
ATOM     19 CL   UNL     1      51.981   5.227  18.930  0.00  0.00    +0.000 Cl
ATOM     20  C   UNL     1      49.681   4.316  17.846  0.00  0.00    +0.000 A 
ENDBRANCH  13  14
ENDBRANCH  12  13
ENDBRANCH  11  12
ENDBRANCH   5  11
TORSDOF 6
ENDMDL
MODEL 7
REMARK VINA RESULT:    -5.535      3.570      6.732
REMARK INTER + INTRA:          -8.121
REMARK INTER:                  -7.624
REMARK INTRA:                  -0.497
REMARK UNBOUND:                -0.806
REMARK  Name = 
REMARK  6 active torsions:
REMARK  status: ('A' for Active; 'I' for Inactive)
REMARK    1  A    between atoms: N_1  and  C_2
REMARK    2  A    between atoms: C_2  and  C_3
REMARK    3  A    between atoms: C_7  and  O_8
REMARK    4  A    between atoms: O_8  and  C_9
REMARK    5  A    between atoms: C_9  and  C_10
REMARK    6  A    between atoms: C_10  and  C_11
REMARK                            x       y       z     vdW  Elec       q    Type
REMARK                         _______ _______ _______ _____ _____    ______ ____
ROOT
ATOM      1  C   UNL     1      45.539   3.430   8.245  0.00  0.00    +0.000 A 
ATOM      2  C   UNL     1      44.870   2.398   8.917  0.00  0.00    +0.000 A 
ATOM      3  C   UNL     1      44.319   2.611  10.175  0.00  0.00    +0.000 A 
ATOM      4  C   UNL     1      44.438   3.860  10.785  0.00  0.00    +0.000 A 
ATOM      5  C   UNL     1      45.117   4.905  10.148  0.00  0.00    +0.000 A 
ATOM      6  C   UNL     1      45.660   4.684   8.876  0.00  0.00    +0.000 A 
ENDROOT
BRANCH   1   7
ATOM      7  C   UNL     1      46.141   3.170   6.886  0.00  0.00    +0.000 C 
BRANCH   7   8
ATOM      8  N   UNL     1      47.561   3.508   6.853  0.00  0.00    +0.000 NA
ATOM      9  H   UNL     1      47.672   4.461   6.513  0.00  0.00    +0.000 HD
ATOM     10  H   UNL     1      48.025   2.902   6.179  0.00  0.00    +0.000 HD
ENDBRANCH   7   8
ENDBRANCH   1   7
BRANCH   5  11
ATOM     11  O   UNL     1      45.307   6.159  10.685  0.00  0.00    +0.000 OA
BRANCH  11  12
ATOM     12  C   UNL     1      45.597   6.180  12.089  0.00  0.00    +0.000 C 
BRANCH  12  13
ATOM     13  C   UNL     1      47.097   6.327  12.345  0.00  0.00    +0.000 C 
BRANCH  13  14
ATOM     14  C   UNL     1      47.450   5.838  13.734  0.00  0.00    +0.000 A 
ATOM     15  C   UNL     1      46.865   4.676  14.257  0.00  0.00    +0.000 A 
ATOM     16  C   UNL     1      47.159   4.252  15.555  0.00  0.00    +0.000 A 
ATOM     17  C   UNL     1      48.038   4.987  16.350  0.00  0.00    +0.000 A 
ATOM     18  C   UNL     1      48.616   6.147  15.841  0.00  0.00    +0.000 A 
ATOM     19 CL   UNL     1      49.692   7.064  16.823  0.00  0.00    +0.000 Cl
ATOM     20  C   UNL     1      48.326   6.576  14.545  0.00  0.00    +0.000 A 
ENDBRANCH  13  14
ENDBRANCH  12  13
ENDBRANCH  11  12
ENDBRANCH   5  11
TORSDOF 6
ENDMDL
MODEL 8
REMARK VINA RESULT:    -5.482      4.407      7.425
REMARK INTER + INTRA:          -8.051
REMARK INTER:                  -7.690
REMARK INTRA:                  -0.361
REMARK UNBOUND:                -0.806
REMARK  Name = 
REMARK  6 active torsions:
REMARK  status: ('A' for Active; 'I' for Inactive)
REMARK    1  A    between atoms: N_1  and  C_2
REMARK    2  A    between atoms: C_2  and  C_3
REMARK    3  A    between atoms: C_7  and  O_8
REMARK    4  A    between atoms: O_8  and  C_9
REMARK    5  A    between atoms: C_9  and  C_10
REMARK    6  A    between atoms: C_10  and  C_11
REMARK                            x       y       z     vdW  Elec       q    Type
REMARK                         _______ _______ _______ _____ _____    ______ ____
ROOT
ATOM      1  C   UNL     1      44.920   5.352  12.505  0.00  0.00    +0.000 A 
ATOM      2  C   UNL     1      45.591   6.426  11.904  0.00  0.00    +0.000 A 
ATOM      3  C   UNL     1      46.932   6.667  12.179  0.00  0.00    +0.000 A 
ATOM      4  C   UNL     1      47.620   5.842  13.068  0.00  0.00    +0.000 A 
ATOM      5  C   UNL     1      46.973   4.773  13.698  0.00  0.00    +0.000 A 
ATOM      6  C   UNL     1      45.625   4.531  13.407  0.00  0.00    +0.000 A 
ENDROOT
BRANCH   1   7
ATOM      7  C   UNL     1      43.461   5.119  12.201  0.00  0.00    +0.000 C 
BRANCH   7   8
ATOM      8  N   UNL     1      42.628   5.305  13.386  0.00  0.00    +0.000 NA
ATOM      9  H   UNL     1      42.425   4.398  13.800  0.00  0.00    +0.000 HD
ATOM     10  H   UNL     1      41.735   5.702  13.098  0.00  0.00    +0.000 HD
ENDBRANCH   7   8
ENDBRANCH   1   7
BRANCH   5  11
ATOM     11  O   UNL     1      47.564   3.925  14.608  0.00  0.00    +0.000 OA
BRANCH  11  12
ATOM     12  C   UNL     1      47.310   4.238  15.983  0.00  0.00    +0.000 C 
BRANCH  12  13
ATOM     13  C   UNL     1      47.713   3.083  16.900  0.00  0.00    +0.000 C 
BRANCH  13  14
ATOM     14  C   UNL     1      49.174   3.194  17.286  0.00  0.00    +0.000 A 
ATOM     15  C   UNL     1      49.714   4.419  17.704  0.00  0.00    +0.000 A 
ATOM     16  C   UNL     1      51.072   4.529  18.016  0.00  0.00    +0.000 A 
ATOM     17  C   UNL     1      51.908   3.418  17.910  0.00  0.00    +0.000 A 
ATOM     18  C   UNL     1      51.380   2.201  17.487  0.00  0.00    +0.000 A 
ATOM     19 CL   UNL     1      52.411   0.830  17.342  0.00  0.00    +0.000 Cl
ATOM     20  C   UNL     1      50.025   2.084  17.173  0.00  0.00    +0.000 A 
ENDBRANCH  13  14
ENDBRANCH  12  13
ENDBRANCH  11  12
ENDBRANCH   5  11
TORSDOF 6
ENDMDL
MODEL 9
REMARK VINA RESULT:    -5.194      1.918      2.697
REMARK INTER + INTRA:          -7.671
REMARK INTER:                  -7.256
REMARK INTRA:                  -0.415
REMARK UNBOUND:                -0.806
REMARK  Name = 
REMARK  6 active torsions:
REMARK  status: ('A' for Active; 'I' for Inactive)
REMARK    1  A    between atoms: N_1  and  C_2
REMARK    2  A    between atoms: C_2  and  C_3
REMARK    3  A    between atoms: C_7  and  O_8
REMARK    4  A    between atoms: O_8  and  C_9
REMARK    5  A    between atoms: C_9  and  C_10
REMARK    6  A    between atoms: C_10  and  C_11
REMARK                            x       y       z     vdW  Elec       q    Type
REMARK                         _______ _______ _______ _____ _____    ______ ____
ROOT
ATOM      1  C   UNL     1      48.607   6.610  14.586  0.00  0.00    +0.000 A 
ATOM      2  C   UNL     1      49.732   7.380  14.262  0.00  0.00    +0.000 A 
ATOM      3  C   UNL     1      49.876   7.923  12.991  0.00  0.00    +0.000 A 
ATOM      4  C   UNL     1      48.900   7.695  12.021  0.00  0.00    +0.000 A 
ATOM      5  C   UNL     1      47.774   6.915  12.308  0.00  0.00    +0.000 A 
ATOM      6  C   UNL     1      47.632   6.380  13.595  0.00  0.00    +0.000 A 
ENDROOT
BRANCH   1   7
ATOM      7  C   UNL     1      48.479   6.019  15.969  0.00  0.00    +0.000 C 
BRANCH   7   8
ATOM      8  N   UNL     1      48.101   4.609  15.918  0.00  0.00    +0.000 NA
ATOM      9  H   UNL     1      48.068   4.305  14.948  0.00  0.00    +0.000 HD
ATOM     10  H   UNL     1      47.156   4.512  16.287  0.00  0.00    +0.000 HD
ENDBRANCH   7   8
ENDBRANCH   1   7
BRANCH   5  11
ATOM     11  O   UNL     1      46.777   6.615  11.408  0.00  0.00    +0.000 OA
BRANCH  11  12
ATOM     12  C   UNL     1      45.768   5.721  11.894  0.00  0.00    +0.000 C 
BRANCH  12  13
ATOM     13  C   UNL     1      44.607   5.602  10.907  0.00  0.00    +0.000 C 
BRANCH  13  14
ATOM     14  C   UNL     1      44.810   4.417   9.986  0.00  0.00    +0.000 A 
ATOM     15  C   UNL     1      44.319   3.149  10.329  0.00  0.00    +0.000 A 
ATOM     16  C   UNL     1      44.546   2.047   9.500  0.00  0.00    +0.000 A 
ATOM     17  C   UNL     1      45.271   2.198   8.318  0.00  0.00    +0.000 A 
ATOM     18  C   UNL     1      45.770   3.453   7.974  0.00  0.00    +0.000 A 
ATOM     19 CL   UNL     1      46.675   3.641   6.523  0.00  0.00    +0.000 Cl
ATOM     20  C   UNL     1      45.546   4.557   8.800  0.00  0.00    +0.000 A 
ENDBRANCH  13  14
ENDBRANCH  12  13
ENDBRANCH  11  12
ENDBRANCH   5  11
TORSDOF 6
ENDMDL
