MODEL 1
REMARK VINA RESULT:    -8.387      0.000      0.000
REMARK INTER + INTRA:         -11.729
REMARK INTER:                 -10.839
REMARK INTRA:                  -0.890
REMARK UNBOUND:                -0.890
REMARK  Name = 
REMARK  5 active torsions:
REMARK  status: ('A' for Active; 'I' for Inactive)
REMARK    1  A    between atoms: C_6  and  C_7
REMARK    2  A    between atoms: C_9  and  C_10
REMARK    3  A    between atoms: C_10  and  O_11
REMARK    4  A    between atoms: O_11  and  C_12
REMARK    5  A    between atoms: C_16  and  C_17
REMARK                            x       y       z     vdW  Elec       q    Type
REMARK                         _______ _______ _______ _____ _____    ______ ____
ROOT
ATOM      1  C   UNL     1      44.783   3.588   9.731  0.00  0.00    +0.000 A 
ATOM      2  C   UNL     1      44.910   4.935  10.074  0.00  0.00    +0.000 A 
ATOM      3  C   UNL     1      44.177   5.454  11.148  0.00  0.00    +0.000 A 
ATOM      4  C   UNL     1      43.299   4.608  11.823  0.00  0.00    +0.000 A 
ATOM      5  C   UNL     1      43.212   3.290  11.412  0.00  0.00    +0.000 A 
ATOM      6  N   UNL     1      43.931   2.768  10.395  0.00  0.00    +0.000 NA
ENDROOT
BRANCH   1  12
ATOM      7  F   UNL     1      46.816  -0.311   7.622  0.00  0.00    +0.000 F 
ATOM      8  C   UNL     1      46.582   1.007   7.606  0.00  0.00    +0.000 A 
ATOM      9  C   UNL     1      47.075   1.776   6.562  0.00  0.00    +0.000 A 
ATOM     10  C   UNL     1      46.820   3.144   6.548  0.00  0.00    +0.000 A 
ATOM     11  C   UNL     1      46.076   3.726   7.581  0.00  0.00    +0.000 A 
ATOM     12  C   UNL     1      45.575   2.960   8.653  0.00  0.00    +0.000 A 
ATOM     13  C   UNL     1      45.843   1.580   8.639  0.00  0.00    +0.000 A 
ENDBRANCH   1  12
BRANCH   3  14
ATOM     14  C   UNL     1      44.336   6.895  11.553  0.00  0.00    +0.000 C 
BRANCH  14  15
ATOM     15  O   UNL     1      45.022   6.950  12.802  0.00  0.00    +0.000 OA
BRANCH  15  16
ATOM     16  C   UNL     1      46.382   7.051  12.747  0.00  0.00    +0.000 A 
ATOM     17  C   UNL     1      47.102   5.971  13.246  0.00  0.00    +0.000 A 
ATOM     18  N   UNL     1      48.455   5.898  13.272  0.00  0.00    +0.000 NA
ATOM     19  C   UNL     1      49.132   6.958  12.780  0.00  0.00    +0.000 A 
ATOM     20  C   UNL     1      48.518   8.087  12.260  0.00  0.00    +0.000 A 
ATOM     21  C   UNL     1      47.114   8.124  12.246  0.00  0.00    +0.000 A 
BRANCH  20  22
ATOM     22  C   UNL     1      49.326   9.232  11.735  0.00  0.00    +0.000 C 
ATOM     23  F   UNL     1      48.623  10.090  10.948  0.00  0.00    +0.000 F 
ATOM     24  F   UNL     1      49.858   9.989  12.734  0.00  0.00    +0.000 F 
ATOM     25  F   UNL     1      50.384   8.816  10.983  0.00  0.00    +0.000 F 
ENDBRANCH  20  22
ENDBRANCH  15  16
ENDBRANCH  14  15
ENDBRANCH   3  14
TORSDOF 5
ENDMDL
MODEL 2
REMARK VINA RESULT:    -8.029      2.973      3.474
REMARK INTER + INTRA:         -11.266
REMARK INTER:                 -10.408
REMARK INTRA:                  -0.858
REMARK UNBOUND:                -0.890
REMARK  Name = 
REMARK  5 active torsions:
REMARK  status: ('A' for Active; 'I' for Inactive)
REMARK    1  A    between atoms: C_6  and  C_7
REMARK    2  A    between atoms: C_9  and  C_10
REMARK    3  A    between atoms: C_10  and  O_11
REMARK    4  A    between atoms: O_11  and  C_12
REMARK    5  A    between atoms: C_16  and  C_17
REMARK                            x       y       z     vdW  Elec       q    Type
REMARK                         _______ _______ _______ _____ _____    ______ ____
ROOT
ATOM      1  C   UNL     1      44.935   3.789   9.807  0.00  0.00    +0.000 A 
ATOM      2  C   UNL     1      45.358   5.008  10.339  0.00  0.00    +0.000 A 
ATOM      3  C   UNL     1      44.686   5.562  11.436  0.00  0.00    +0.000 A 
ATOM      4  C   UNL     1      43.572   4.892  11.939  0.00  0.00    +0.000 A 
ATOM      5  C   UNL     1      43.200   3.698  11.346  0.00  0.00    +0.000 A 
ATOM      6  N   UNL     1      43.854   3.138  10.305  0.00  0.00    +0.000 NA
ENDROOT
BRANCH   1  12
ATOM      7  F   UNL     1      46.670  -0.220   7.637  0.00  0.00    +0.000 F 
ATOM      8  C   UNL     1      46.497   1.108   7.619  0.00  0.00    +0.000 A 
ATOM      9  C   UNL     1      46.968   1.844   6.542  0.00  0.00    +0.000 A 
ATOM     10  C   UNL     1      46.777   3.222   6.526  0.00  0.00    +0.000 A 
ATOM     11  C   UNL     1      46.117   3.847   7.591  0.00  0.00    +0.000 A 
ATOM     12  C   UNL     1      45.639   3.115   8.696  0.00  0.00    +0.000 A 
ATOM     13  C   UNL     1      45.841   1.724   8.683  0.00  0.00    +0.000 A 
ENDBRANCH   1  12
BRANCH   3  14
ATOM     14  C   UNL     1      45.158   6.855  12.044  0.00  0.00    +0.000 C 
BRANCH  14  15
ATOM     15  O   UNL     1      46.583   6.858  12.073  0.00  0.00    +0.000 OA
BRANCH  15  16
ATOM     16  C   UNL     1      47.169   6.580  13.274  0.00  0.00    +0.000 A 
ATOM     17  C   UNL     1      47.932   7.596  13.839  0.00  0.00    +0.000 A 
ATOM     18  N   UNL     1      48.584   7.496  15.022  0.00  0.00    +0.000 NA
ATOM     19  C   UNL     1      48.478   6.322  15.681  0.00  0.00    +0.000 A 
ATOM     20  C   UNL     1      47.746   5.242  15.210  0.00  0.00    +0.000 A 
ATOM     21  C   UNL     1      47.081   5.384  13.982  0.00  0.00    +0.000 A 
BRANCH  20  22
ATOM     22  C   UNL     1      47.673   3.963  15.986  0.00  0.00    +0.000 C 
ATOM     23  F   UNL     1      46.602   3.885  16.820  0.00  0.00    +0.000 F 
ATOM     24  F   UNL     1      47.600   2.872  15.175  0.00  0.00    +0.000 F 
ATOM     25  F   UNL     1      48.772   3.770  16.768  0.00  0.00    +0.000 F 
ENDBRANCH  20  22
ENDBRANCH  15  16
ENDBRANCH  14  15
ENDBRANCH   3  14
TORSDOF 5
ENDMDL
MODEL 3
REMARK VINA RESULT:    -7.939      3.198      7.580
REMARK INTER + INTRA:         -11.149
REMARK INTER:                 -10.383
REMARK INTRA:                  -0.767
REMARK UNBOUND:                -0.890
REMARK  Name = 
REMARK  5 active torsions:
REMARK  status: ('A' for Active; 'I' for Inactive)
REMARK    1  A    between atoms: C_6  and  C_7
REMARK    2  A    between atoms: C_9  and  C_10
REMARK    3  A    between atoms: C_10  and  O_11
REMARK    4  A    between atoms: O_11  and  C_12
REMARK    5  A    between atoms: C_16  and  C_17
REMARK                            x       y       z     vdW  Elec       q    Type
REMARK                         _______ _______ _______ _____ _____    ______ ____
ROOT
ATOM      1  C   UNL     1      47.466   5.625  14.282  0.00  0.00    +0.000 A 
ATOM      2  C   UNL     1      46.260   5.408  13.614  0.00  0.00    +0.000 A 
ATOM      3  C   UNL     1      46.084   5.897  12.314  0.00  0.00    +0.000 A 
ATOM      4  C   UNL     1      47.116   6.634  11.736  0.00  0.00    +0.000 A 
ATOM      5  C   UNL     1      48.275   6.826  12.469  0.00  0.00    +0.000 A 
ATOM      6  N   UNL     1      48.470   6.339  13.713  0.00  0.00    +0.000 NA
ENDROOT
BRANCH   1  12
ATOM      7  F   UNL     1      46.774   2.306  17.788  0.00  0.00    +0.000 F 
ATOM      8  C   UNL     1      47.395   3.417  17.370  0.00  0.00    +0.000 A 
ATOM      9  C   UNL     1      48.311   4.043  18.201  0.00  0.00    +0.000 A 
ATOM     10  C   UNL     1      48.957   5.191  17.755  0.00  0.00    +0.000 A 
ATOM     11  C   UNL     1      48.677   5.701  16.482  0.00  0.00    +0.000 A 
ATOM     12  C   UNL     1      47.743   5.081  15.627  0.00  0.00    +0.000 A 
ATOM     13  C   UNL     1      47.109   3.919  16.101  0.00  0.00    +0.000 A 
ENDBRANCH   1  12
BRANCH   3  14
ATOM     14  C   UNL     1      44.803   5.634  11.568  0.00  0.00    +0.000 C 
BRANCH  14  15
ATOM     15  O   UNL     1      45.076   5.633  10.169  0.00  0.00    +0.000 OA
BRANCH  15  16
ATOM     16  C   UNL     1      45.169   4.412   9.566  0.00  0.00    +0.000 A 
ATOM     17  C   UNL     1      44.382   3.398  10.101  0.00  0.00    +0.000 A 
ATOM     18  N   UNL     1      44.347   2.128   9.631  0.00  0.00    +0.000 NA
ATOM     19  C   UNL     1      45.141   1.845   8.576  0.00  0.00    +0.000 A 
ATOM     20  C   UNL     1      45.967   2.777   7.965  0.00  0.00    +0.000 A 
ATOM     21  C   UNL     1      45.973   4.085   8.477  0.00  0.00    +0.000 A 
BRANCH  20  22
ATOM     22  C   UNL     1      46.828   2.399   6.801  0.00  0.00    +0.000 C 
ATOM     23  F   UNL     1      46.335   2.796   5.598  0.00  0.00    +0.000 F 
ATOM     24  F   UNL     1      48.078   2.932   6.890  0.00  0.00    +0.000 F 
ATOM     25  F   UNL     1      47.007   1.051   6.707  0.00  0.00    +0.000 F 
ENDBRANCH  20  22
ENDBRANCH  15  16
ENDBRANCH  14  15
ENDBRANCH   3  14
TORSDOF 5
ENDMDL
MODEL 4
REMARK VINA RESULT:    -7.861      1.741      6.760
REMARK INTER + INTRA:         -11.050
REMARK INTER:                 -10.118
REMARK INTRA:                  -0.932
REMARK UNBOUND:                -0.890
REMARK  Name = 
REMARK  5 active torsions:
REMARK  status: ('A' for Active; 'I' for Inactive)
REMARK    1  A    between atoms: C_6  and  C_7
REMARK    2  A    between atoms: C_9  and  C_10
REMARK    3  A    between atoms: C_10  and  O_11
REMARK    4  A    between atoms: O_11  and  C_12
REMARK    5  A    between atoms: C_16  and  C_17
REMARK                            x       y       z     vdW  Elec       q    Type
REMARK                         _______ _______ _______ _____ _____    ______ ____
ROOT
ATOM      1  C   UNL     1      47.593   6.828  12.623  0.00  0.00    +0.000 A 
ATOM      2  C   UNL     1      46.246   6.786  12.258  0.00  0.00    +0.000 A 
ATOM      3  C   UNL     1      45.408   5.799  12.791  0.00  0.00    +0.000 A 
ATOM      4  C   UNL     1      45.963   4.848  13.647  0.00  0.00    +0.000 A 
ATOM      5  C   UNL     1      47.311   4.942  13.946  0.00  0.00    +0.000 A 
ATOM      6  N   UNL     1      48.126   5.904  13.461  0.00  0.00    +0.000 NA
ENDROOT
BRANCH   1  12
ATOM      7  F   UNL     1      51.956   8.293  11.011  0.00  0.00    +0.000 F 
ATOM      8  C   UNL     1      50.696   8.601  11.344  0.00  0.00    +0.000 A 
ATOM      9  C   UNL     1      50.260   9.912  11.228  0.00  0.00    +0.000 A 
ATOM     10  C   UNL     1      48.947  10.223  11.566  0.00  0.00    +0.000 A 
ATOM     11  C   UNL     1      48.086   9.216  12.020  0.00  0.00    +0.000 A 
ATOM     12  C   UNL     1      48.516   7.881  12.152  0.00  0.00    +0.000 A 
ATOM     13  C   UNL     1      49.846   7.594  11.797  0.00  0.00    +0.000 A 
ENDBRANCH   1  12
BRANCH   3  14
ATOM     14  C   UNL     1      43.946   5.768  12.436  0.00  0.00    +0.000 C 
BRANCH  14  15
ATOM     15  O   UNL     1      43.816   5.804  11.017  0.00  0.00    +0.000 OA
BRANCH  15  16
ATOM     16  C   UNL     1      44.195   4.680  10.341  0.00  0.00    +0.000 A 
ATOM     17  C   UNL     1      43.644   3.481  10.779  0.00  0.00    +0.000 A 
ATOM     18  N   UNL     1      43.907   2.271  10.228  0.00  0.00    +0.000 NA
ATOM     19  C   UNL     1      44.767   2.248   9.188  0.00  0.00    +0.000 A 
ATOM     20  C   UNL     1      45.376   3.382   8.670  0.00  0.00    +0.000 A 
ATOM     21  C   UNL     1      45.076   4.618   9.265  0.00  0.00    +0.000 A 
BRANCH  20  22
ATOM     22  C   UNL     1      46.326   3.289   7.518  0.00  0.00    +0.000 C 
ATOM     23  F   UNL     1      45.718   3.133   6.312  0.00  0.00    +0.000 F 
ATOM     24  F   UNL     1      47.109   4.398   7.404  0.00  0.00    +0.000 F 
ATOM     25  F   UNL     1      47.187   2.240   7.641  0.00  0.00    +0.000 F 
ENDBRANCH  20  22
ENDBRANCH  15  16
ENDBRANCH  14  15
ENDBRANCH   3  14
TORSDOF 5
ENDMDL
MODEL 5
REMARK VINA RESULT:    -7.768      2.019      7.167
REMARK INTER + INTRA:         -10.929
REMARK INTER:                 -10.165
REMARK INTRA:                  -0.764
REMARK UNBOUND:                -0.890
REMARK  Name = 
REMARK  5 active torsions:
REMARK  status: ('A' for Active; 'I' for Inactive)
REMARK    1  A    between atoms: C_6  and  C_7
REMARK    2  A    between atoms: C_9  and  C_10
REMARK    3  A    between atoms: C_10  and  O_11
REMARK    4  A    between atoms: O_11  and  C_12
REMARK    5  A    between atoms: C_16  and  C_17
REMARK                            x       y       z     vdW  Elec       q    Type
REMARK                         _______ _______ _______ _____ _____    ______ ____
ROOT
ATOM      1  C   UNL     1      46.361   6.542  12.239  0.00  0.00    +0.000 A 
ATOM      2  C   UNL     1      45.360   6.121  11.363  0.00  0.00    +0.000 A 
ATOM      3  C   UNL     1      44.685   4.917  11.600  0.00  0.00    +0.000 A 
ATOM      4  C   UNL     1      45.071   4.144  12.694  0.00  0.00    +0.000 A 
ATOM      5  C   UNL     1      46.087   4.617  13.505  0.00  0.00    +0.000 A 
ATOM      6  N   UNL     1      46.729   5.788  13.305  0.00  0.00    +0.000 NA
ENDROOT
BRANCH   1  12
ATOM      7  F   UNL     1      46.403  11.418  12.145  0.00  0.00    +0.000 F 
ATOM      8  C   UNL     1      47.078  10.265  12.045  0.00  0.00    +0.000 A 
ATOM      9  C   UNL     1      48.444  10.291  11.814  0.00  0.00    +0.000 A 
ATOM     10  C   UNL     1      49.140   9.089  11.721  0.00  0.00    +0.000 A 
ATOM     11  C   UNL     1      48.456   7.875  11.859  0.00  0.00    +0.000 A 
ATOM     12  C   UNL     1      47.066   7.831  12.086  0.00  0.00    +0.000 A 
ATOM     13  C   UNL     1      46.390   9.060  12.181  0.00  0.00    +0.000 A 
ENDBRANCH   1  12
BRANCH   3  14
ATOM     14  C   UNL     1      43.575   4.473  10.685  0.00  0.00    +0.000 C 
BRANCH  14  15
ATOM     15  O   UNL     1      44.011   4.604   9.335  0.00  0.00    +0.000 OA
BRANCH  15  16
ATOM     16  C   UNL     1      44.752   3.574   8.830  0.00  0.00    +0.000 A 
ATOM     17  C   UNL     1      44.527   2.321   9.388  0.00  0.00    +0.000 A 
ATOM     18  N   UNL     1      45.170   1.189   9.012  0.00  0.00    +0.000 NA
ATOM     19  C   UNL     1      46.091   1.307   8.031  0.00  0.00    +0.000 A 
ATOM     20  C   UNL     1      46.397   2.507   7.407  0.00  0.00    +0.000 A 
ATOM     21  C   UNL     1      45.707   3.658   7.820  0.00  0.00    +0.000 A 
BRANCH  20  22
ATOM     22  C   UNL     1      47.434   2.573   6.329  0.00  0.00    +0.000 C 
ATOM     23  F   UNL     1      47.042   3.267   5.228  0.00  0.00    +0.000 F 
ATOM     24  F   UNL     1      48.585   3.163   6.756  0.00  0.00    +0.000 F 
ATOM     25  F   UNL     1      47.796   1.337   5.884  0.00  0.00    +0.000 F 
ENDBRANCH  20  22
ENDBRANCH  15  16
ENDBRANCH  14  15
ENDBRANCH   3  14
TORSDOF 5
ENDMDL
MODEL 6
REMARK VINA RESULT:    -7.483      3.184      3.801
REMARK INTER + INTRA:         -10.561
REMARK INTER:                  -9.722
REMARK INTRA:                  -0.839
REMARK UNBOUND:                -0.890
REMARK  Name = 
REMARK  5 active torsions:
REMARK  status: ('A' for Active; 'I' for Inactive)
REMARK    1  A    between atoms: C_6  and  C_7
REMARK    2  A    between atoms: C_9  and  C_10
REMARK    3  A    between atoms: C_10  and  O_11
REMARK    4  A    between atoms: O_11  and  C_12
REMARK    5  A    between atoms: C_16  and  C_17
REMARK                            x       y       z     vdW  Elec       q    Type
REMARK                         _______ _______ _______ _____ _____    ______ ____
ROOT
ATOM      1  C   UNL     1      45.006   4.022   9.648  0.00  0.00    +0.000 A 
ATOM      2  C   UNL     1      45.612   5.115  10.268  0.00  0.00    +0.000 A 
ATOM      3  C   UNL     1      44.966   5.763  11.328  0.00  0.00    +0.000 A 
ATOM      4  C   UNL     1      43.699   5.319  11.704  0.00  0.00    +0.000 A 
ATOM      5  C   UNL     1      43.154   4.242  11.028  0.00  0.00    +0.000 A 
ATOM      6  N   UNL     1      43.776   3.589  10.022  0.00  0.00    +0.000 NA
ENDROOT
BRANCH   1  12
ATOM      7  F   UNL     1      47.037   3.713   5.224  0.00  0.00    +0.000 F 
ATOM      8  C   UNL     1      46.676   3.107   6.363  0.00  0.00    +0.000 A 
ATOM      9  C   UNL     1      46.936   1.756   6.530  0.00  0.00    +0.000 A 
ATOM     10  C   UNL     1      46.567   1.136   7.720  0.00  0.00    +0.000 A 
ATOM     11  C   UNL     1      45.939   1.878   8.728  0.00  0.00    +0.000 A 
ATOM     12  C   UNL     1      45.661   3.250   8.571  0.00  0.00    +0.000 A 
ATOM     13  C   UNL     1      46.050   3.852   7.361  0.00  0.00    +0.000 A 
ENDBRANCH   1  12
BRANCH   3  14
ATOM     14  C   UNL     1      45.627   6.918  12.032  0.00  0.00    +0.000 C 
BRANCH  14  15
ATOM     15  O   UNL     1      47.030   6.673  12.099  0.00  0.00    +0.000 OA
BRANCH  15  16
ATOM     16  C   UNL     1      47.555   6.471  13.343  0.00  0.00    +0.000 A 
ATOM     17  C   UNL     1      48.410   7.458  13.821  0.00  0.00    +0.000 A 
ATOM     18  N   UNL     1      49.020   7.423  15.030  0.00  0.00    +0.000 NA
ATOM     19  C   UNL     1      48.773   6.346  15.807  0.00  0.00    +0.000 A 
ATOM     20  C   UNL     1      47.940   5.303  15.431  0.00  0.00    +0.000 A 
ATOM     21  C   UNL     1      47.322   5.376  14.172  0.00  0.00    +0.000 A 
BRANCH  20  22
ATOM     22  C   UNL     1      47.712   4.133  16.337  0.00  0.00    +0.000 C 
ATOM     23  F   UNL     1      47.977   2.930  15.761  0.00  0.00    +0.000 F 
ATOM     24  F   UNL     1      48.483   4.192  17.458  0.00  0.00    +0.000 F 
ATOM     25  F   UNL     1      46.425   4.064  16.777  0.00  0.00    +0.000 F 
ENDBRANCH  20  22
ENDBRANCH  15  16
ENDBRANCH  14  15
ENDBRANCH   3  14
TORSDOF 5
ENDMDL
MODEL 7
REMARK VINA RESULT:    -7.455      1.784      2.288
REMARK INTER + INTRA:         -10.524
REMARK INTER:                  -9.867
REMARK INTRA:                  -0.657
REMARK UNBOUND:                -0.890
REMARK  Name = 
REMARK  5 active torsions:
REMARK  status: ('A' for Active; 'I' for Inactive)
REMARK    1  A    between atoms: C_6  and  C_7
REMARK    2  A    between atoms: C_9  and  C_10
REMARK    3  A    between atoms: C_10  and  O_11
REMARK    4  A    between atoms: O_11  and  C_12
REMARK    5  A    between atoms: C_16  and  C_17
REMARK                            x       y       z     vdW  Elec       q    Type
REMARK                         _______ _______ _______ _____ _____    ______ ____
ROOT
ATOM      1  C   UNL     1      44.799   3.549   9.748  0.00  0.00    +0.000 A 
ATOM      2  C   UNL     1      45.031   4.862  10.160  0.00  0.00    +0.000 A 
ATOM      3  C   UNL     1      44.357   5.372  11.277  0.00  0.00    +0.000 A 
ATOM      4  C   UNL     1      43.430   4.556  11.923  0.00  0.00    +0.000 A 
ATOM      5  C   UNL     1      43.239   3.273  11.443  0.00  0.00    +0.000 A 
ATOM      6  N   UNL     1      43.899   2.757  10.384  0.00  0.00    +0.000 NA
ENDROOT
BRANCH   1  12
ATOM      7  F   UNL     1      46.888   3.775   5.347  0.00  0.00    +0.000 F 
ATOM      8  C   UNL     1      46.568   3.050   6.426  0.00  0.00    +0.000 A 
ATOM      9  C   UNL     1      46.935   1.714   6.485  0.00  0.00    +0.000 A 
ATOM     10  C   UNL     1      46.607   0.969   7.614  0.00  0.00    +0.000 A 
ATOM     11  C   UNL     1      45.912   1.571   8.669  0.00  0.00    +0.000 A 
ATOM     12  C   UNL     1      45.524   2.925   8.621  0.00  0.00    +0.000 A 
ATOM     13  C   UNL     1      45.874   3.655   7.472  0.00  0.00    +0.000 A 
ENDBRANCH   1  12
BRANCH   3  14
ATOM     14  C   UNL     1      44.629   6.773  11.756  0.00  0.00    +0.000 C 
BRANCH  14  15
ATOM     15  O   UNL     1      45.997   7.088  11.505  0.00  0.00    +0.000 OA
BRANCH  15  16
ATOM     16  C   UNL     1      46.830   7.092  12.586  0.00  0.00    +0.000 A 
ATOM     17  C   UNL     1      47.341   5.859  12.977  0.00  0.00    +0.000 A 
ATOM     18  N   UNL     1      48.181   5.675  14.024  0.00  0.00    +0.000 NA
ATOM     19  C   UNL     1      48.529   6.774  14.728  0.00  0.00    +0.000 A 
ATOM     20  C   UNL     1      48.078   8.051  14.429  0.00  0.00    +0.000 A 
ATOM     21  C   UNL     1      47.213   8.203  13.333  0.00  0.00    +0.000 A 
BRANCH  20  22
ATOM     22  C   UNL     1      48.497   9.229  15.252  0.00  0.00    +0.000 C 
ATOM     23  F   UNL     1      47.696   9.464  16.326  0.00  0.00    +0.000 F 
ATOM     24  F   UNL     1      49.758   9.089  15.747  0.00  0.00    +0.000 F 
ATOM     25  F   UNL     1      48.508  10.385  14.532  0.00  0.00    +0.000 F 
ENDBRANCH  20  22
ENDBRANCH  15  16
ENDBRANCH  14  15
ENDBRANCH   3  14
TORSDOF 5
ENDMDL
MODEL 8
REMARK VINA RESULT:    -7.453      1.829      7.153
REMARK INTER + INTRA:         -10.522
REMARK INTER:                  -9.889
REMARK INTRA:                  -0.634
REMARK UNBOUND:                -0.890
REMARK  Name = 
REMARK  5 active torsions:
REMARK  status: ('A' for Active; 'I' for Inactive)
REMARK    1  A    between atoms: C_6  and  C_7
REMARK    2  A    between atoms: C_9  and  C_10
REMARK    3  A    between atoms: C_10  and  O_11
REMARK    4  A    between atoms: O_11  and  C_12
REMARK    5  A    between atoms: C_16  and  C_17
REMARK                            x       y       z     vdW  Elec       q    Type
REMARK                         _______ _______ _______ _____ _____    ______ ____
ROOT
ATOM      1  C   UNL     1      46.472   6.311  12.831  0.00  0.00    +0.000 A 
ATOM      2  C   UNL     1      46.258   4.956  12.575  0.00  0.00    +0.000 A 
ATOM      3  C   UNL     1      44.957   4.481  12.370  0.00  0.00    +0.000 A 
ATOM      4  C   UNL     1      43.898   5.381  12.474  0.00  0.00    +0.000 A 
ATOM      5  C   UNL     1      44.187   6.706  12.751  0.00  0.00    +0.000 A 
ATOM      6  N   UNL     1      45.438   7.184  12.926  0.00  0.00    +0.000 NA
ENDROOT
BRANCH   1  12
ATOM      7  F   UNL     1      50.627   8.068  10.977  0.00  0.00    +0.000 F 
ATOM      8  C   UNL     1      49.891   7.770  12.055  0.00  0.00    +0.000 A 
ATOM      9  C   UNL     1      50.397   8.023  13.320  0.00  0.00    +0.000 A 
ATOM     10  C   UNL     1      49.622   7.719  14.435  0.00  0.00    +0.000 A 
ATOM     11  C   UNL     1      48.349   7.162  14.269  0.00  0.00    +0.000 A 
ATOM     12  C   UNL     1      47.822   6.891  12.990  0.00  0.00    +0.000 A 
ATOM     13  C   UNL     1      48.625   7.213  11.881  0.00  0.00    +0.000 A 
ENDBRANCH   1  12
BRANCH   3  14
ATOM     14  C   UNL     1      44.717   3.029  12.052  0.00  0.00    +0.000 C 
BRANCH  14  15
ATOM     15  O   UNL     1      44.042   2.937  10.800  0.00  0.00    +0.000 OA
BRANCH  15  16
ATOM     16  C   UNL     1      44.814   3.053   9.680  0.00  0.00    +0.000 A 
ATOM     17  C   UNL     1      44.885   4.317   9.107  0.00  0.00    +0.000 A 
ATOM     18  N   UNL     1      45.602   4.616   7.997  0.00  0.00    +0.000 NA
ATOM     19  C   UNL     1      46.281   3.602   7.418  0.00  0.00    +0.000 A 
ATOM     20  C   UNL     1      46.280   2.302   7.903  0.00  0.00    +0.000 A 
ATOM     21  C   UNL     1      45.529   2.033   9.059  0.00  0.00    +0.000 A 
BRANCH  20  22
ATOM     22  C   UNL     1      47.050   1.221   7.212  0.00  0.00    +0.000 C 
ATOM     23  F   UNL     1      48.399   1.333   7.345  0.00  0.00    +0.000 F 
ATOM     24  F   UNL     1      46.728  -0.018   7.675  0.00  0.00    +0.000 F 
ATOM     25  F   UNL     1      46.807   1.189   5.871  0.00  0.00    +0.000 F 
ENDBRANCH  20  22
ENDBRANCH  15  16
ENDBRANCH  14  15
ENDBRANCH   3  14
TORSDOF 5
ENDMDL
MODEL 9
REMARK VINA RESULT:    -7.246      3.303      7.478
REMARK INTER + INTRA:         -10.255
REMARK INTER:                  -9.398
REMARK INTRA:                  -0.857
REMARK UNBOUND:                -0.890
REMARK  Name = 
REMARK  5 active torsions:
REMARK  status: ('A' for Active; 'I' for Inactive)
REMARK    1  A    between atoms: C_6  and  C_7
REMARK    2  A    between atoms: C_9  and  C_10
REMARK    3  A    between atoms: C_10  and  O_11
REMARK    4  A    between atoms: O_11  and  C_12
REMARK    5  A    between atoms: C_16  and  C_17
REMARK                            x       y       z     vdW  Elec       q    Type
REMARK                         _______ _______ _______ _____ _____    ______ ____
ROOT
ATOM      1  C   UNL     1      48.097   6.106  14.660  0.00  0.00    +0.000 A 
ATOM      2  C   UNL     1      46.899   6.253  13.961  0.00  0.00    +0.000 A 
ATOM      3  C   UNL     1      46.881   6.945  12.744  0.00  0.00    +0.000 A 
ATOM      4  C   UNL     1      48.069   7.512  12.285  0.00  0.00    +0.000 A 
ATOM      5  C   UNL     1      49.213   7.342  13.044  0.00  0.00    +0.000 A 
ATOM      6  N   UNL     1      49.252   6.656  14.206  0.00  0.00    +0.000 NA
ENDROOT
BRANCH   1  12
ATOM      7  F   UNL     1      46.652   2.488  17.595  0.00  0.00    +0.000 F 
ATOM      8  C   UNL     1      47.475   3.521  17.370  0.00  0.00    +0.000 A 
ATOM      9  C   UNL     1      48.435   3.848  18.316  0.00  0.00    +0.000 A 
ATOM     10  C   UNL     1      49.292   4.916  18.071  0.00  0.00    +0.000 A 
ATOM     11  C   UNL     1      49.176   5.646  16.882  0.00  0.00    +0.000 A 
ATOM     12  C   UNL     1      48.201   5.332  15.915  0.00  0.00    +0.000 A 
ATOM     13  C   UNL     1      47.352   4.244  16.186  0.00  0.00    +0.000 A 
ENDBRANCH   1  12
BRANCH   3  14
ATOM     14  C   UNL     1      45.602   7.074  11.960  0.00  0.00    +0.000 C 
BRANCH  14  15
ATOM     15  O   UNL     1      44.682   6.086  12.414  0.00  0.00    +0.000 OA
BRANCH  15  16
ATOM     16  C   UNL     1      44.509   4.996  11.610  0.00  0.00    +0.000 A 
ATOM     17  C   UNL     1      43.653   4.008  12.083  0.00  0.00    +0.000 A 
ATOM     18  N   UNL     1      43.365   2.863  11.419  0.00  0.00    +0.000 NA
ATOM     19  C   UNL     1      43.964   2.683  10.222  0.00  0.00    +0.000 A 
ATOM     20  C   UNL     1      44.836   3.601   9.656  0.00  0.00    +0.000 A 
ATOM     21  C   UNL     1      45.107   4.778  10.371  0.00  0.00    +0.000 A 
BRANCH  20  22
ATOM     22  C   UNL     1      45.473   3.340   8.327  0.00  0.00    +0.000 C 
ATOM     23  F   UNL     1      44.603   3.372   7.282  0.00  0.00    +0.000 F 
ATOM     24  F   UNL     1      46.446   4.247   8.034  0.00  0.00    +0.000 F 
ATOM     25  F   UNL     1      46.077   2.120   8.273  0.00  0.00    +0.000 F 
ENDBRANCH  20  22
ENDBRANCH  15  16
ENDBRANCH  14  15
ENDBRANCH   3  14
TORSDOF 5
ENDMDL
