MODEL 1
REMARK VINA RESULT:    -7.693      0.000      0.000
REMARK INTER + INTRA:         -10.509
REMARK INTER:                  -9.491
REMARK INTRA:                  -1.017
REMARK UNBOUND:                -1.017
REMARK  Name = 
REMARK  4 active torsions:
REMARK  status: ('A' for Active; 'I' for Inactive)
REMARK    1  A    between atoms: C_4  and  O_5
REMARK    2  A    between atoms: O_5  and  C_6
REMARK    3  A    between atoms: C_10  and  C_11
REMARK    4  A    between atoms: C_11  and  C_12
REMARK                            x       y       z     vdW  Elec       q    Type
REMARK                         _______ _______ _______ _____ _____    ______ ____
ROOT
ATOM      1  C   UNL     1      47.122   4.182  13.787  0.00  0.00    +0.000 A 
ATOM      2  C   UNL     1      48.049   5.209  13.621  0.00  0.00    +0.000 A 
ATOM      3  C   UNL     1      47.727   6.311  12.835  0.00  0.00    +0.000 A 
ATOM      4  C   UNL     1      46.549   6.308  12.090  0.00  0.00    +0.000 A 
ATOM      5  C   UNL     1      45.689   5.200  12.072  0.00  0.00    +0.000 A 
ATOM      6  C   UNL     1      45.939   4.189  13.034  0.00  0.00    +0.000 A 
ENDROOT
BRANCH   5   7
ATOM      7  C   UNL     1      44.621   4.987  10.949  0.00  0.00    +0.000 C 
ATOM      8  C   UNL     1      44.170   6.407  10.444  0.00  0.00    +0.000 C 
ATOM      9  C   UNL     1      43.242   7.171  11.385  0.00  0.00    +0.000 C 
ATOM     10  N   UNL     1      42.054   6.408  11.746  0.00  0.00    +0.000 NA
ATOM     11  C   UNL     1      42.403   5.134  12.356  0.00  0.00    +0.000 C 
ATOM     12  C   UNL     1      43.310   4.284  11.458  0.00  0.00    +0.000 C 
ATOM     13  H   UNL     1      41.491   6.242  10.912  0.00  0.00    +0.000 HD
BRANCH   7  14
ATOM     14  C   UNL     1      45.204   4.170   9.759  0.00  0.00    +0.000 A 
ATOM     15  C   UNL     1      45.142   2.766   9.708  0.00  0.00    +0.000 A 
ATOM     16  C   UNL     1      45.615   2.059   8.603  0.00  0.00    +0.000 A 
ATOM     17  C   UNL     1      46.186   2.771   7.568  0.00  0.00    +0.000 A 
ATOM     18  N   UNL     1      46.333   4.109   7.587  0.00  0.00    +0.000 NA
ATOM     19  C   UNL     1      45.832   4.770   8.664  0.00  0.00    +0.000 A 
ENDBRANCH   7  14
ENDBRANCH   5   7
BRANCH   1  20
ATOM     20  O   UNL     1      47.366   3.089  14.604  0.00  0.00    +0.000 OA
BRANCH  20  24
ATOM     21  C   UNL     1      48.554   3.735  18.495  0.00  0.00    +0.000 A 
ATOM     22  C   UNL     1      47.421   4.395  18.019  0.00  0.00    +0.000 A 
ATOM     23  C   UNL     1      47.008   4.190  16.694  0.00  0.00    +0.000 A 
ATOM     24  C   UNL     1      47.784   3.352  15.896  0.00  0.00    +0.000 A 
ATOM     25  N   UNL     1      48.919   2.762  16.344  0.00  0.00    +0.000 NA
ATOM     26  C   UNL     1      49.254   2.924  17.620  0.00  0.00    +0.000 A 
ENDBRANCH  20  24
ENDBRANCH   1  20
TORSDOF 4
ENDMDL
MODEL 2
REMARK VINA RESULT:    -7.363      2.994      7.076
REMARK INTER + INTRA:         -10.102
REMARK INTER:                  -9.637
REMARK INTRA:                  -0.466
REMARK UNBOUND:                -1.017
REMARK  Name = 
REMARK  4 active torsions:
REMARK  status: ('A' for Active; 'I' for Inactive)
REMARK    1  A    between atoms: C_4  and  O_5
REMARK    2  A    between atoms: O_5  and  C_6
REMARK    3  A    between atoms: C_10  and  C_11
REMARK    4  A    between atoms: C_11  and  C_12
REMARK                            x       y       z     vdW  Elec       q    Type
REMARK                         _______ _______ _______ _____ _____    ______ ____
ROOT
ATOM      1  C   UNL     1      45.057   5.142  11.148  0.00  0.00    +0.000 A 
ATOM      2  C   UNL     1      45.200   4.168  12.134  0.00  0.00    +0.000 A 
ATOM      3  C   UNL     1      45.682   4.520  13.390  0.00  0.00    +0.000 A 
ATOM      4  C   UNL     1      46.170   5.807  13.608  0.00  0.00    +0.000 A 
ATOM      5  C   UNL     1      46.231   6.758  12.578  0.00  0.00    +0.000 A 
ATOM      6  C   UNL     1      45.549   6.435  11.377  0.00  0.00    +0.000 A 
ENDROOT
BRANCH   5   7
ATOM      7  C   UNL     1      47.145   8.025  12.661  0.00  0.00    +0.000 C 
ATOM      8  C   UNL     1      48.355   7.805  11.682  0.00  0.00    +0.000 C 
ATOM      9  C   UNL     1      49.420   6.825  12.169  0.00  0.00    +0.000 C 
ATOM     10  N   UNL     1      49.944   7.171  13.484  0.00  0.00    +0.000 NA
ATOM     11  C   UNL     1      48.883   7.250  14.477  0.00  0.00    +0.000 C 
ATOM     12  C   UNL     1      47.783   8.243  14.081  0.00  0.00    +0.000 C 
ATOM     13  H   UNL     1      50.427   8.067  13.432  0.00  0.00    +0.000 HD
BRANCH   7  14
ATOM     14  C   UNL     1      46.369   9.312  12.252  0.00  0.00    +0.000 A 
ATOM     15  C   UNL     1      47.008  10.426  11.679  0.00  0.00    +0.000 A 
ATOM     16  C   UNL     1      46.283  11.542  11.263  0.00  0.00    +0.000 A 
ATOM     17  C   UNL     1      44.918  11.546  11.462  0.00  0.00    +0.000 A 
ATOM     18  N   UNL     1      44.258  10.539  12.063  0.00  0.00    +0.000 NA
ATOM     19  C   UNL     1      44.989   9.452  12.428  0.00  0.00    +0.000 A 
ENDBRANCH   7  14
ENDBRANCH   5   7
BRANCH   1  20
ATOM     20  O   UNL     1      44.528   4.860   9.898  0.00  0.00    +0.000 OA
BRANCH  20  24
ATOM     21  C   UNL     1      46.664   2.473   7.308  0.00  0.00    +0.000 A 
ATOM     22  C   UNL     1      45.890   1.867   8.298  0.00  0.00    +0.000 A 
ATOM     23  C   UNL     1      45.162   2.667   9.191  0.00  0.00    +0.000 A 
ATOM     24  C   UNL     1      45.280   4.050   9.066  0.00  0.00    +0.000 A 
ATOM     25  N   UNL     1      46.083   4.633   8.144  0.00  0.00    +0.000 NA
ATOM     26  C   UNL     1      46.714   3.854   7.271  0.00  0.00    +0.000 A 
ENDBRANCH  20  24
ENDBRANCH   1  20
TORSDOF 4
ENDMDL
MODEL 3
REMARK VINA RESULT:    -7.120      2.382      6.873
REMARK INTER + INTRA:          -9.802
REMARK INTER:                  -9.694
REMARK INTRA:                  -0.108
REMARK UNBOUND:                -1.017
REMARK  Name = 
REMARK  4 active torsions:
REMARK  status: ('A' for Active; 'I' for Inactive)
REMARK    1  A    between atoms: C_4  and  O_5
REMARK    2  A    between atoms: O_5  and  C_6
REMARK    3  A    between atoms: C_10  and  C_11
REMARK    4  A    between atoms: C_11  and  C_12
REMARK                            x       y       z     vdW  Elec       q    Type
REMARK                         _______ _______ _______ _____ _____    ______ ____
ROOT
ATOM      1  C   UNL     1      45.373   5.252   9.684  0.00  0.00    +0.000 A 
ATOM      2  C   UNL     1      44.207   4.709  10.217  0.00  0.00    +0.000 A 
ATOM      3  C   UNL     1      43.823   5.031  11.515  0.00  0.00    +0.000 A 
ATOM      4  C   UNL     1      44.686   5.762  12.330  0.00  0.00    +0.000 A 
ATOM      5  C   UNL     1      45.961   6.152  11.893  0.00  0.00    +0.000 A 
ATOM      6  C   UNL     1      46.234   5.988  10.510  0.00  0.00    +0.000 A 
ENDROOT
BRANCH   5   7
ATOM      7  C   UNL     1      47.093   6.576  12.886  0.00  0.00    +0.000 C 
ATOM      8  C   UNL     1      46.643   7.914  13.579  0.00  0.00    +0.000 C 
ATOM      9  C   UNL     1      46.737   9.164  12.707  0.00  0.00    +0.000 C 
ATOM     10  N   UNL     1      48.066   9.359  12.143  0.00  0.00    +0.000 NA
ATOM     11  C   UNL     1      48.487   8.205  11.362  0.00  0.00    +0.000 C 
ATOM     12  C   UNL     1      48.456   6.905  12.176  0.00  0.00    +0.000 C 
ATOM     13  H   UNL     1      48.734   9.521  12.895  0.00  0.00    +0.000 HD
BRANCH   7  14
ATOM     14  C   UNL     1      47.337   5.483  13.968  0.00  0.00    +0.000 A 
ATOM     15  C   UNL     1      47.783   5.795  15.265  0.00  0.00    +0.000 A 
ATOM     16  C   UNL     1      47.934   4.805  16.236  0.00  0.00    +0.000 A 
ATOM     17  C   UNL     1      47.671   3.498  15.883  0.00  0.00    +0.000 A 
ATOM     18  N   UNL     1      47.304   3.129  14.642  0.00  0.00    +0.000 NA
ATOM     19  C   UNL     1      47.135   4.121  13.727  0.00  0.00    +0.000 A 
ENDBRANCH   7  14
ENDBRANCH   5   7
BRANCH   1  20
ATOM     20  O   UNL     1      45.773   5.013   8.379  0.00  0.00    +0.000 OA
BRANCH  20  24
ATOM     21  C   UNL     1      46.811   1.120   7.518  0.00  0.00    +0.000 A 
ATOM     22  C   UNL     1      47.390   2.150   6.778  0.00  0.00    +0.000 A 
ATOM     23  C   UNL     1      47.042   3.481   7.055  0.00  0.00    +0.000 A 
ATOM     24  C   UNL     1      46.091   3.707   8.048  0.00  0.00    +0.000 A 
ATOM     25  N   UNL     1      45.484   2.701   8.721  0.00  0.00    +0.000 NA
ATOM     26  C   UNL     1      45.876   1.454   8.482  0.00  0.00    +0.000 A 
ENDBRANCH  20  24
ENDBRANCH   1  20
TORSDOF 4
ENDMDL
MODEL 4
REMARK VINA RESULT:    -6.917      2.605      4.577
REMARK INTER + INTRA:          -9.552
REMARK INTER:                  -8.762
REMARK INTRA:                  -0.790
REMARK UNBOUND:                -1.017
REMARK  Name = 
REMARK  4 active torsions:
REMARK  status: ('A' for Active; 'I' for Inactive)
REMARK    1  A    between atoms: C_4  and  O_5
REMARK    2  A    between atoms: O_5  and  C_6
REMARK    3  A    between atoms: C_10  and  C_11
REMARK    4  A    between atoms: C_11  and  C_12
REMARK                            x       y       z     vdW  Elec       q    Type
REMARK                         _______ _______ _______ _____ _____    ______ ____
ROOT
ATOM      1  C   UNL     1      47.355   6.577  12.911  0.00  0.00    +0.000 A 
ATOM      2  C   UNL     1      47.329   5.862  14.106  0.00  0.00    +0.000 A 
ATOM      3  C   UNL     1      46.710   4.618  14.155  0.00  0.00    +0.000 A 
ATOM      4  C   UNL     1      45.979   4.165  13.057  0.00  0.00    +0.000 A 
ATOM      5  C   UNL     1      45.812   4.951  11.907  0.00  0.00    +0.000 A 
ATOM      6  C   UNL     1      46.619   6.113  11.811  0.00  0.00    +0.000 A 
ENDROOT
BRANCH   5   7
ATOM      7  C   UNL     1      44.677   4.679  10.865  0.00  0.00    +0.000 C 
ATOM      8  C   UNL     1      44.140   6.072  10.370  0.00  0.00    +0.000 C 
ATOM      9  C   UNL     1      43.252   6.820  11.363  0.00  0.00    +0.000 C 
ATOM     10  N   UNL     1      42.121   6.022  11.818  0.00  0.00    +0.000 NA
ATOM     11  C   UNL     1      42.558   4.773  12.422  0.00  0.00    +0.000 C 
ATOM     12  C   UNL     1      43.431   3.939  11.476  0.00  0.00    +0.000 C 
ATOM     13  H   UNL     1      41.508   5.820  11.029  0.00  0.00    +0.000 HD
BRANCH   7  14
ATOM     14  C   UNL     1      45.206   3.861   9.651  0.00  0.00    +0.000 A 
ATOM     15  C   UNL     1      45.735   4.477   8.502  0.00  0.00    +0.000 A 
ATOM     16  C   UNL     1      46.260   3.723   7.453  0.00  0.00    +0.000 A 
ATOM     17  C   UNL     1      46.215   2.348   7.550  0.00  0.00    +0.000 A 
ATOM     18  N   UNL     1      45.664   1.701   8.593  0.00  0.00    +0.000 NA
ATOM     19  C   UNL     1      45.189   2.464   9.614  0.00  0.00    +0.000 A 
ENDBRANCH   7  14
ENDBRANCH   5   7
BRANCH   1  20
ATOM     20  O   UNL     1      48.008   7.794  12.789  0.00  0.00    +0.000 OA
BRANCH  20  24
ATOM     21  C   UNL     1      45.656  10.985  11.667  0.00  0.00    +0.000 A 
ATOM     22  C   UNL     1      47.032  11.054  11.451  0.00  0.00    +0.000 A 
ATOM     23  C   UNL     1      47.847   9.978  11.833  0.00  0.00    +0.000 A 
ATOM     24  C   UNL     1      47.234   8.891  12.454  0.00  0.00    +0.000 A 
ATOM     25  N   UNL     1      45.907   8.855  12.719  0.00  0.00    +0.000 NA
ATOM     26  C   UNL     1      45.149   9.860  12.292  0.00  0.00    +0.000 A 
ENDBRANCH  20  24
ENDBRANCH   1  20
TORSDOF 4
ENDMDL
MODEL 5
REMARK VINA RESULT:    -6.884      2.352      3.828
REMARK INTER + INTRA:          -9.511
REMARK INTER:                  -8.666
REMARK INTRA:                  -0.844
REMARK UNBOUND:                -1.017
REMARK  Name = 
REMARK  4 active torsions:
REMARK  status: ('A' for Active; 'I' for Inactive)
REMARK    1  A    between atoms: C_4  and  O_5
REMARK    2  A    between atoms: O_5  and  C_6
REMARK    3  A    between atoms: C_10  and  C_11
REMARK    4  A    between atoms: C_11  and  C_12
REMARK                            x       y       z     vdW  Elec       q    Type
REMARK                         _______ _______ _______ _____ _____    ______ ____
ROOT
ATOM      1  C   UNL     1      47.166   6.374  13.292  0.00  0.00    +0.000 A 
ATOM      2  C   UNL     1      47.256   5.423  14.306  0.00  0.00    +0.000 A 
ATOM      3  C   UNL     1      46.792   4.130  14.085  0.00  0.00    +0.000 A 
ATOM      4  C   UNL     1      46.095   3.837  12.914  0.00  0.00    +0.000 A 
ATOM      5  C   UNL     1      45.805   4.824  11.960  0.00  0.00    +0.000 A 
ATOM      6  C   UNL     1      46.465   6.069  12.117  0.00  0.00    +0.000 A 
ENDROOT
BRANCH   5   7
ATOM      7  C   UNL     1      44.686   4.643  10.882  0.00  0.00    +0.000 C 
ATOM      8  C   UNL     1      44.251   6.076  10.402  0.00  0.00    +0.000 C 
ATOM      9  C   UNL     1      43.383   6.859  11.385  0.00  0.00    +0.000 C 
ATOM     10  N   UNL     1      42.192   6.125  11.792  0.00  0.00    +0.000 NA
ATOM     11  C   UNL     1      42.534   4.839  12.382  0.00  0.00    +0.000 C 
ATOM     12  C   UNL     1      43.380   3.971  11.443  0.00  0.00    +0.000 C 
ATOM     13  H   UNL     1      41.590   5.977  10.983  0.00  0.00    +0.000 HD
BRANCH   7  14
ATOM     14  C   UNL     1      45.198   3.818   9.665  0.00  0.00    +0.000 A 
ATOM     15  C   UNL     1      45.759   4.425   8.527  0.00  0.00    +0.000 A 
ATOM     16  C   UNL     1      46.268   3.662   7.476  0.00  0.00    +0.000 A 
ATOM     17  C   UNL     1      46.174   2.288   7.560  0.00  0.00    +0.000 A 
ATOM     18  N   UNL     1      45.591   1.652   8.593  0.00  0.00    +0.000 NA
ATOM     19  C   UNL     1      45.133   2.423   9.615  0.00  0.00    +0.000 A 
ENDBRANCH   7  14
ENDBRANCH   5   7
BRANCH   1  20
ATOM     20  O   UNL     1      47.665   7.660  13.436  0.00  0.00    +0.000 OA
BRANCH  20  24
ATOM     21  C   UNL     1      51.568   8.427  12.365  0.00  0.00    +0.000 A 
ATOM     22  C   UNL     1      50.642   8.134  11.365  0.00  0.00    +0.000 A 
ATOM     23  C   UNL     1      49.310   7.864  11.715  0.00  0.00    +0.000 A 
ATOM     24  C   UNL     1      48.983   7.867  13.069  0.00  0.00    +0.000 A 
ATOM     25  N   UNL     1      49.900   8.090  14.041  0.00  0.00    +0.000 NA
ATOM     26  C   UNL     1      51.140   8.403  13.680  0.00  0.00    +0.000 A 
ENDBRANCH  20  24
ENDBRANCH   1  20
TORSDOF 4
ENDMDL
MODEL 6
REMARK VINA RESULT:    -6.371      2.185      2.735
REMARK INTER + INTRA:          -8.878
REMARK INTER:                  -8.058
REMARK INTRA:                  -0.820
REMARK UNBOUND:                -1.017
REMARK  Name = 
REMARK  4 active torsions:
REMARK  status: ('A' for Active; 'I' for Inactive)
REMARK    1  A    between atoms: C_4  and  O_5
REMARK    2  A    between atoms: O_5  and  C_6
REMARK    3  A    between atoms: C_10  and  C_11
REMARK    4  A    between atoms: C_11  and  C_12
REMARK                            x       y       z     vdW  Elec       q    Type
REMARK                         _______ _______ _______ _____ _____    ______ ____
ROOT
ATOM      1  C   UNL     1      47.569   6.043  13.255  0.00  0.00    +0.000 A 
ATOM      2  C   UNL     1      47.262   5.322  14.407  0.00  0.00    +0.000 A 
ATOM      3  C   UNL     1      46.386   4.244  14.335  0.00  0.00    +0.000 A 
ATOM      4  C   UNL     1      45.696   3.991  13.151  0.00  0.00    +0.000 A 
ATOM      5  C   UNL     1      45.825   4.823  12.029  0.00  0.00    +0.000 A 
ATOM      6  C   UNL     1      46.871   5.780  12.068  0.00  0.00    +0.000 A 
ENDROOT
BRANCH   5   7
ATOM      7  C   UNL     1      44.775   4.833  10.869  0.00  0.00    +0.000 C 
ATOM      8  C   UNL     1      44.511   6.334  10.479  0.00  0.00    +0.000 C 
ATOM      9  C   UNL     1      43.650   7.122  11.464  0.00  0.00    +0.000 C 
ATOM     10  N   UNL     1      42.369   6.480  11.731  0.00  0.00    +0.000 NA
ATOM     11  C   UNL     1      42.547   5.127  12.236  0.00  0.00    +0.000 C 
ATOM     12  C   UNL     1      43.376   4.252  11.287  0.00  0.00    +0.000 C 
ATOM     13  H   UNL     1      41.817   6.452  10.875  0.00  0.00    +0.000 HD
BRANCH   7  14
ATOM     14  C   UNL     1      45.296   4.054   9.626  0.00  0.00    +0.000 A 
ATOM     15  C   UNL     1      45.270   2.650   9.553  0.00  0.00    +0.000 A 
ATOM     16  C   UNL     1      45.684   1.977   8.403  0.00  0.00    +0.000 A 
ATOM     17  C   UNL     1      46.159   2.723   7.344  0.00  0.00    +0.000 A 
ATOM     18  N   UNL     1      46.268   4.063   7.378  0.00  0.00    +0.000 NA
ATOM     19  C   UNL     1      45.826   4.692   8.501  0.00  0.00    +0.000 A 
ENDBRANCH   7  14
ENDBRANCH   5   7
BRANCH   1  20
ATOM     20  O   UNL     1      48.479   7.089  13.255  0.00  0.00    +0.000 OA
BRANCH  20  24
ATOM     21  C   UNL     1      49.469   8.524  16.987  0.00  0.00    +0.000 A 
ATOM     22  C   UNL     1      48.454   9.156  16.272  0.00  0.00    +0.000 A 
ATOM     23  C   UNL     1      48.109   8.683  14.997  0.00  0.00    +0.000 A 
ATOM     24  C   UNL     1      48.837   7.610  14.486  0.00  0.00    +0.000 A 
ATOM     25  N   UNL     1      49.864   7.039  15.159  0.00  0.00    +0.000 NA
ATOM     26  C   UNL     1      50.130   7.466  16.389  0.00  0.00    +0.000 A 
ENDBRANCH  20  24
ENDBRANCH   1  20
TORSDOF 4
ENDMDL
MODEL 7
REMARK VINA RESULT:    -6.277      2.238      7.720
REMARK INTER + INTRA:          -8.762
REMARK INTER:                  -8.156
REMARK INTRA:                  -0.606
REMARK UNBOUND:                -1.017
REMARK  Name = 
REMARK  4 active torsions:
REMARK  status: ('A' for Active; 'I' for Inactive)
REMARK    1  A    between atoms: C_4  and  O_5
REMARK    2  A    between atoms: O_5  and  C_6
REMARK    3  A    between atoms: C_10  and  C_11
REMARK    4  A    between atoms: C_11  and  C_12
REMARK                            x       y       z     vdW  Elec       q    Type
REMARK                         _______ _______ _______ _____ _____    ______ ____
ROOT
ATOM      1  C   UNL     1      46.724   4.688  14.230  0.00  0.00    +0.000 A 
ATOM      2  C   UNL     1      46.945   5.942  13.665  0.00  0.00    +0.000 A 
ATOM      3  C   UNL     1      48.014   6.718  14.101  0.00  0.00    +0.000 A 
ATOM      4  C   UNL     1      48.758   6.312  15.207  0.00  0.00    +0.000 A 
ATOM      5  C   UNL     1      48.434   5.154  15.930  0.00  0.00    +0.000 A 
ATOM      6  C   UNL     1      47.479   4.286  15.341  0.00  0.00    +0.000 A 
ENDROOT
BRANCH   5   7
ATOM      7  C   UNL     1      48.949   4.904  17.386  0.00  0.00    +0.000 C 
ATOM      8  C   UNL     1      47.712   4.485  18.263  0.00  0.00    +0.000 C 
ATOM      9  C   UNL     1      46.761   5.621  18.636  0.00  0.00    +0.000 C 
ATOM     10  N   UNL     1      47.440   6.731  19.292  0.00  0.00    +0.000 NA
ATOM     11  C   UNL     1      48.512   7.264  18.464  0.00  0.00    +0.000 C 
ATOM     12  C   UNL     1      49.536   6.192  18.071  0.00  0.00    +0.000 C 
ATOM     13  H   UNL     1      47.824   6.417  20.182  0.00  0.00    +0.000 HD
BRANCH   7  14
ATOM     14  C   UNL     1      50.021   3.776  17.424  0.00  0.00    +0.000 A 
ATOM     15  C   UNL     1      51.356   4.020  17.795  0.00  0.00    +0.000 A 
ATOM     16  C   UNL     1      52.284   2.982  17.882  0.00  0.00    +0.000 A 
ATOM     17  C   UNL     1      51.871   1.707  17.555  0.00  0.00    +0.000 A 
ATOM     18  N   UNL     1      50.626   1.422  17.131  0.00  0.00    +0.000 NA
ATOM     19  C   UNL     1      49.737   2.450  17.088  0.00  0.00    +0.000 A 
ENDBRANCH   7  14
ENDBRANCH   5   7
BRANCH   1  20
ATOM     20  O   UNL     1      45.711   3.847  13.795  0.00  0.00    +0.000 OA
BRANCH  20  24
ATOM     21  C   UNL     1      42.960   5.266  11.077  0.00  0.00    +0.000 A 
ATOM     22  C   UNL     1      44.117   4.647  10.603  0.00  0.00    +0.000 A 
ATOM     23  C   UNL     1      45.066   4.165  11.516  0.00  0.00    +0.000 A 
ATOM     24  C   UNL     1      44.818   4.364  12.873  0.00  0.00    +0.000 A 
ATOM     25  N   UNL     1      43.724   5.022  13.326  0.00  0.00    +0.000 NA
ATOM     26  C   UNL     1      42.812   5.415  12.443  0.00  0.00    +0.000 A 
ENDBRANCH  20  24
ENDBRANCH   1  20
TORSDOF 4
ENDMDL
MODEL 8
REMARK VINA RESULT:    -5.838      2.678      8.219
REMARK INTER + INTRA:          -8.220
REMARK INTER:                  -7.663
REMARK INTRA:                  -0.557
REMARK UNBOUND:                -1.017
REMARK  Name = 
REMARK  4 active torsions:
REMARK  status: ('A' for Active; 'I' for Inactive)
REMARK    1  A    between atoms: C_4  and  O_5
REMARK    2  A    between atoms: O_5  and  C_6
REMARK    3  A    between atoms: C_10  and  C_11
REMARK    4  A    between atoms: C_11  and  C_12
REMARK                            x       y       z     vdW  Elec       q    Type
REMARK                         _______ _______ _______ _____ _____    ______ ____
ROOT
ATOM      1  C   UNL     1      46.869   4.878  14.176  0.00  0.00    +0.000 A 
ATOM      2  C   UNL     1      47.137   6.042  13.459  0.00  0.00    +0.000 A 
ATOM      3  C   UNL     1      48.139   6.905  13.891  0.00  0.00    +0.000 A 
ATOM      4  C   UNL     1      48.758   6.686  15.120  0.00  0.00    +0.000 A 
ATOM      5  C   UNL     1      48.369   5.636  15.966  0.00  0.00    +0.000 A 
ATOM      6  C   UNL     1      47.498   4.665  15.410  0.00  0.00    +0.000 A 
ENDROOT
BRANCH   5   7
ATOM      7  C   UNL     1      48.718   5.616  17.491  0.00  0.00    +0.000 C 
ATOM      8  C   UNL     1      50.201   5.112  17.634  0.00  0.00    +0.000 C 
ATOM      9  C   UNL     1      50.406   3.614  17.417  0.00  0.00    +0.000 C 
ATOM     10  N   UNL     1      49.554   2.800  18.274  0.00  0.00    +0.000 NA
ATOM     11  C   UNL     1      48.147   3.118  18.085  0.00  0.00    +0.000 C 
ATOM     12  C   UNL     1      47.846   4.604  18.319  0.00  0.00    +0.000 C 
ATOM     13  H   UNL     1      49.808   2.953  19.249  0.00  0.00    +0.000 HD
BRANCH   7  14
ATOM     14  C   UNL     1      48.585   7.033  18.123  0.00  0.00    +0.000 A 
ATOM     15  C   UNL     1      47.360   7.532  18.600  0.00  0.00    +0.000 A 
ATOM     16  C   UNL     1      47.278   8.780  19.218  0.00  0.00    +0.000 A 
ATOM     17  C   UNL     1      48.427   9.536  19.318  0.00  0.00    +0.000 A 
ATOM     18  N   UNL     1      49.614   9.141  18.824  0.00  0.00    +0.000 NA
ATOM     19  C   UNL     1      49.668   7.907  18.256  0.00  0.00    +0.000 A 
ENDBRANCH   7  14
ENDBRANCH   5   7
BRANCH   1  20
ATOM     20  O   UNL     1      45.922   3.954  13.761  0.00  0.00    +0.000 OA
BRANCH  20  24
ATOM     21  C   UNL     1      42.911   5.177  11.230  0.00  0.00    +0.000 A 
ATOM     22  C   UNL     1      44.024   4.532  10.690  0.00  0.00    +0.000 A 
ATOM     23  C   UNL     1      45.060   4.115  11.538  0.00  0.00    +0.000 A 
ATOM     24  C   UNL     1      44.941   4.404  12.896  0.00  0.00    +0.000 A 
ATOM     25  N   UNL     1      43.888   5.086  13.408  0.00  0.00    +0.000 NA
ATOM     26  C   UNL     1      42.892   5.416  12.592  0.00  0.00    +0.000 A 
ENDBRANCH  20  24
ENDBRANCH   1  20
TORSDOF 4
ENDMDL
MODEL 9
REMARK VINA RESULT:    -5.715      3.452      6.264
REMARK INTER + INTRA:          -8.069
REMARK INTER:                  -7.248
REMARK INTRA:                  -0.821
REMARK UNBOUND:                -1.017
REMARK  Name = 
REMARK  4 active torsions:
REMARK  status: ('A' for Active; 'I' for Inactive)
REMARK    1  A    between atoms: C_4  and  O_5
REMARK    2  A    between atoms: O_5  and  C_6
REMARK    3  A    between atoms: C_10  and  C_11
REMARK    4  A    between atoms: C_11  and  C_12
REMARK                            x       y       z     vdW  Elec       q    Type
REMARK                         _______ _______ _______ _____ _____    ______ ____
ROOT
ATOM      1  C   UNL     1      46.829   4.664  13.889  0.00  0.00    +0.000 A 
ATOM      2  C   UNL     1      45.555   5.027  13.458  0.00  0.00    +0.000 A 
ATOM      3  C   UNL     1      45.347   6.280  12.892  0.00  0.00    +0.000 A 
ATOM      4  C   UNL     1      46.372   7.224  12.907  0.00  0.00    +0.000 A 
ATOM      5  C   UNL     1      47.607   6.963  13.519  0.00  0.00    +0.000 A 
ATOM      6  C   UNL     1      47.854   5.619  13.899  0.00  0.00    +0.000 A 
ENDROOT
BRANCH   5   7
ATOM      7  C   UNL     1      48.594   8.105  13.933  0.00  0.00    +0.000 C 
ATOM      8  C   UNL     1      48.112   9.429  13.235  0.00  0.00    +0.000 C 
ATOM      9  C   UNL     1      48.401   9.521  11.738  0.00  0.00    +0.000 C 
ATOM     10  N   UNL     1      49.809   9.317  11.423  0.00  0.00    +0.000 NA
ATOM     11  C   UNL     1      50.286   8.035  11.920  0.00  0.00    +0.000 C 
ATOM     12  C   UNL     1      50.065   7.872  13.429  0.00  0.00    +0.000 C 
ATOM     13  H   UNL     1      50.361  10.067  11.836  0.00  0.00    +0.000 HD
BRANCH   7  14
ATOM     14  C   UNL     1      48.614   8.305  15.477  0.00  0.00    +0.000 A 
ATOM     15  C   UNL     1      48.027   9.422  16.098  0.00  0.00    +0.000 A 
ATOM     16  C   UNL     1      48.002   9.549  17.487  0.00  0.00    +0.000 A 
ATOM     17  C   UNL     1      48.605   8.565  18.244  0.00  0.00    +0.000 A 
ATOM     18  N   UNL     1      49.239   7.507  17.706  0.00  0.00    +0.000 NA
ATOM     19  C   UNL     1      49.217   7.396  16.351  0.00  0.00    +0.000 A 
ENDBRANCH   7  14
ENDBRANCH   5   7
BRANCH   1  20
ATOM     20  O   UNL     1      47.106   3.408  14.406  0.00  0.00    +0.000 OA
BRANCH  20  24
ATOM     21  C   UNL     1      48.728   3.133  18.183  0.00  0.00    +0.000 A 
ATOM     22  C   UNL     1      47.712   4.061  17.953  0.00  0.00    +0.000 A 
ATOM     23  C   UNL     1      47.154   4.170  16.670  0.00  0.00    +0.000 A 
ATOM     24  C   UNL     1      47.677   3.359  15.665  0.00  0.00    +0.000 A 
ATOM     25  N   UNL     1      48.707   2.505  15.879  0.00  0.00    +0.000 NA
ATOM     26  C   UNL     1      49.176   2.377  17.116  0.00  0.00    +0.000 A 
ENDBRANCH  20  24
ENDBRANCH   1  20
TORSDOF 4
ENDMDL
