MODEL 1
REMARK VINA RESULT:    -6.009      0.000      0.000
REMARK INTER + INTRA:          -8.017
REMARK INTER:                  -7.590
REMARK INTRA:                  -0.427
REMARK UNBOUND:                -0.427
REMARK  Name = 
REMARK  6 active torsions:
REMARK  status: ('A' for Active; 'I' for Inactive)
REMARK    1  A    between atoms: C_1  and  O_2
REMARK    2  A    between atoms: O_2  and  C_3
REMARK    3  A    between atoms: C_8  and  C_9
REMARK    4  A    between atoms: C_10  and  C_11
REMARK    5  A    between atoms: C_15  and  C_16
REMARK    6  A    between atoms: C_16  and  N_17
REMARK                            x       y       z     vdW  Elec       q    Type
REMARK                         _______ _______ _______ _____ _____    ______ ____
ROOT
ATOM      1  C   UNL     1      45.627   5.644  10.797  0.00  0.00    +0.000 C 
ATOM      2  C   UNL     1      45.760   5.450   9.473  0.00  0.00    +0.000 C 
ENDROOT
BRANCH   1   8
ATOM      3  C   UNL     1      44.621   9.208  11.658  0.00  0.00    +0.000 A 
ATOM      4  C   UNL     1      45.428   9.447  12.772  0.00  0.00    +0.000 A 
ATOM      5  C   UNL     1      46.286   8.448  13.233  0.00  0.00    +0.000 A 
ATOM      6  C   UNL     1      46.344   7.221  12.577  0.00  0.00    +0.000 A 
ATOM      7  F   UNL     1      47.177   6.284  13.056  0.00  0.00    +0.000 F 
ATOM      8  C   UNL     1      45.562   6.962  11.446  0.00  0.00    +0.000 A 
ATOM      9  C   UNL     1      44.689   7.969  11.009  0.00  0.00    +0.000 A 
BRANCH   3  11
ATOM     10  C   UNL     1      42.500   9.547  10.642  0.00  0.00    +0.000 C 
ATOM     11  O   UNL     1      43.730  10.086  11.107  0.00  0.00    +0.000 OA
ENDBRANCH   3  11
ENDBRANCH   1   8
BRANCH   2  12
ATOM     12  C   UNL     1      45.814   4.122   8.844  0.00  0.00    +0.000 A 
ATOM     13  C   UNL     1      45.209   3.032   9.460  0.00  0.00    +0.000 A 
ATOM     14  C   UNL     1      45.275   1.790   8.838  0.00  0.00    +0.000 A 
ATOM     15  C   UNL     1      45.936   1.672   7.621  0.00  0.00    +0.000 A 
ATOM     16  C   UNL     1      46.517   2.806   7.061  0.00  0.00    +0.000 A 
ATOM     17  N   UNL     1      46.467   4.020   7.664  0.00  0.00    +0.000 NA
BRANCH  16  18
ATOM     18  C   UNL     1      47.217   2.735   5.722  0.00  0.00    +0.000 C 
BRANCH  18  19
ATOM     19  N   UNL     1      48.432   1.913   5.747  0.00  0.00    +0.000 NA
ATOM     20  H   UNL     1      48.176   0.995   6.112  0.00  0.00    +0.000 HD
ATOM     21  H   UNL     1      49.074   2.313   6.430  0.00  0.00    +0.000 HD
ENDBRANCH  18  19
ENDBRANCH  16  18
ENDBRANCH   2  12
TORSDOF 5
ENDMDL
MODEL 2
REMARK VINA RESULT:    -5.860      4.868      7.634
REMARK INTER + INTRA:          -7.829
REMARK INTER:                  -7.418
REMARK INTRA:                  -0.411
REMARK UNBOUND:                -0.427
REMARK  Name = 
REMARK  6 active torsions:
REMARK  status: ('A' for Active; 'I' for Inactive)
REMARK    1  A    between atoms: C_1  and  O_2
REMARK    2  A    between atoms: O_2  and  C_3
REMARK    3  A    between atoms: C_8  and  C_9
REMARK    4  A    between atoms: C_10  and  C_11
REMARK    5  A    between atoms: C_15  and  C_16
REMARK    6  A    between atoms: C_16  and  N_17
REMARK                            x       y       z     vdW  Elec       q    Type
REMARK                         _______ _______ _______ _____ _____    ______ ____
ROOT
ATOM      1  C   UNL     1      46.035   4.645  13.646  0.00  0.00    +0.000 C 
ATOM      2  C   UNL     1      47.121   5.420  13.811  0.00  0.00    +0.000 C 
ENDROOT
BRANCH   1   8
ATOM      3  C   UNL     1      44.434   3.333  10.456  0.00  0.00    +0.000 A 
ATOM      4  C   UNL     1      43.665   4.434  10.076  0.00  0.00    +0.000 A 
ATOM      5  C   UNL     1      43.671   5.588  10.861  0.00  0.00    +0.000 A 
ATOM      6  C   UNL     1      44.450   5.643  12.014  0.00  0.00    +0.000 A 
ATOM      7  F   UNL     1      44.424   6.769  12.745  0.00  0.00    +0.000 F 
ATOM      8  C   UNL     1      45.248   4.562  12.407  0.00  0.00    +0.000 A 
ATOM      9  C   UNL     1      45.213   3.403  11.619  0.00  0.00    +0.000 A 
BRANCH   3  11
ATOM     10  C   UNL     1      45.499   2.038   8.773  0.00  0.00    +0.000 C 
ATOM     11  O   UNL     1      44.515   2.140   9.793  0.00  0.00    +0.000 OA
ENDBRANCH   3  11
ENDBRANCH   1   8
BRANCH   2  12
ATOM     12  C   UNL     1      47.900   5.481  15.057  0.00  0.00    +0.000 A 
ATOM     13  C   UNL     1      48.793   6.526  15.271  0.00  0.00    +0.000 A 
ATOM     14  C   UNL     1      49.513   6.557  16.461  0.00  0.00    +0.000 A 
ATOM     15  C   UNL     1      49.317   5.553  17.402  0.00  0.00    +0.000 A 
ATOM     16  C   UNL     1      48.405   4.539  17.121  0.00  0.00    +0.000 A 
ATOM     17  N   UNL     1      47.705   4.494  15.960  0.00  0.00    +0.000 NA
BRANCH  16  18
ATOM     18  C   UNL     1      48.133   3.444  18.128  0.00  0.00    +0.000 C 
BRANCH  18  19
ATOM     19  N   UNL     1      46.881   2.722  17.874  0.00  0.00    +0.000 NA
ATOM     20  H   UNL     1      46.749   2.681  16.863  0.00  0.00    +0.000 HD
ATOM     21  H   UNL     1      46.111   3.284  18.231  0.00  0.00    +0.000 HD
ENDBRANCH  18  19
ENDBRANCH  16  18
ENDBRANCH   2  12
TORSDOF 5
ENDMDL
MODEL 3
REMARK VINA RESULT:    -5.848      4.991      7.368
REMARK INTER + INTRA:          -7.814
REMARK INTER:                  -7.386
REMARK INTRA:                  -0.428
REMARK UNBOUND:                -0.427
REMARK  Name = 
REMARK  6 active torsions:
REMARK  status: ('A' for Active; 'I' for Inactive)
REMARK    1  A    between atoms: C_1  and  O_2
REMARK    2  A    between atoms: O_2  and  C_3
REMARK    3  A    between atoms: C_8  and  C_9
REMARK    4  A    between atoms: C_10  and  C_11
REMARK    5  A    between atoms: C_15  and  C_16
REMARK    6  A    between atoms: C_16  and  N_17
REMARK                            x       y       z     vdW  Elec       q    Type
REMARK                         _______ _______ _______ _____ _____    ______ ____
ROOT
ATOM      1  C   UNL     1      46.554   4.973  13.689  0.00  0.00    +0.000 C 
ATOM      2  C   UNL     1      46.504   4.290  14.846  0.00  0.00    +0.000 C 
ENDROOT
BRANCH   1   8
ATOM      3  C   UNL     1      44.099   3.829  11.020  0.00  0.00    +0.000 A 
ATOM      4  C   UNL     1      43.399   5.014  10.781  0.00  0.00    +0.000 A 
ATOM      5  C   UNL     1      43.730   6.169  11.492  0.00  0.00    +0.000 A 
ATOM      6  C   UNL     1      44.760   6.141  12.427  0.00  0.00    +0.000 A 
ATOM      7  F   UNL     1      45.043   7.271  13.094  0.00  0.00    +0.000 F 
ATOM      8  C   UNL     1      45.492   4.973  12.671  0.00  0.00    +0.000 A 
ATOM      9  C   UNL     1      45.132   3.816  11.965  0.00  0.00    +0.000 A 
BRANCH   3  11
ATOM     10  C   UNL     1      44.613   2.361   9.224  0.00  0.00    +0.000 C 
ATOM     11  O   UNL     1      43.876   2.626  10.410  0.00  0.00    +0.000 OA
ENDBRANCH   3  11
ENDBRANCH   1   8
BRANCH   2  12
ATOM     12  C   UNL     1      47.574   4.311  15.854  0.00  0.00    +0.000 A 
ATOM     13  C   UNL     1      47.652   3.304  16.810  0.00  0.00    +0.000 A 
ATOM     14  C   UNL     1      48.677   3.351  17.749  0.00  0.00    +0.000 A 
ATOM     15  C   UNL     1      49.595   4.394  17.703  0.00  0.00    +0.000 A 
ATOM     16  C   UNL     1      49.456   5.367  16.717  0.00  0.00    +0.000 A 
ATOM     17  N   UNL     1      48.455   5.336  15.803  0.00  0.00    +0.000 NA
BRANCH  16  18
ATOM     18  C   UNL     1      50.450   6.502  16.607  0.00  0.00    +0.000 C 
BRANCH  18  19
ATOM     19  N   UNL     1      50.698   6.921  15.223  0.00  0.00    +0.000 NA
ATOM     20  H   UNL     1      51.618   6.570  14.954  0.00  0.00    +0.000 HD
ATOM     21  H   UNL     1      50.774   7.936  15.206  0.00  0.00    +0.000 HD
ENDBRANCH  18  19
ENDBRANCH  16  18
ENDBRANCH   2  12
TORSDOF 5
ENDMDL
MODEL 4
REMARK VINA RESULT:    -5.833      5.659      7.636
REMARK INTER + INTRA:          -7.795
REMARK INTER:                  -7.396
REMARK INTRA:                  -0.399
REMARK UNBOUND:                -0.427
REMARK  Name = 
REMARK  6 active torsions:
REMARK  status: ('A' for Active; 'I' for Inactive)
REMARK    1  A    between atoms: C_1  and  O_2
REMARK    2  A    between atoms: O_2  and  C_3
REMARK    3  A    between atoms: C_8  and  C_9
REMARK    4  A    between atoms: C_10  and  C_11
REMARK    5  A    between atoms: C_15  and  C_16
REMARK    6  A    between atoms: C_16  and  N_17
REMARK                            x       y       z     vdW  Elec       q    Type
REMARK                         _______ _______ _______ _____ _____    ______ ____
ROOT
ATOM      1  C   UNL     1      46.355   4.656  14.192  0.00  0.00    +0.000 C 
ATOM      2  C   UNL     1      46.950   3.544  14.656  0.00  0.00    +0.000 C 
ENDROOT
BRANCH   1   8
ATOM      3  C   UNL     1      44.475   3.682  11.033  0.00  0.00    +0.000 A 
ATOM      4  C   UNL     1      44.054   4.934  10.581  0.00  0.00    +0.000 A 
ATOM      5  C   UNL     1      44.380   6.079  11.309  0.00  0.00    +0.000 A 
ATOM      6  C   UNL     1      45.133   5.973  12.475  0.00  0.00    +0.000 A 
ATOM      7  F   UNL     1      45.421   7.098  13.150  0.00  0.00    +0.000 F 
ATOM      8  C   UNL     1      45.587   4.733  12.939  0.00  0.00    +0.000 A 
ATOM      9  C   UNL     1      45.231   3.591  12.209  0.00  0.00    +0.000 A 
BRANCH   3  11
ATOM     10  C   UNL     1      44.764   2.284   9.133  0.00  0.00    +0.000 C 
ATOM     11  O   UNL     1      44.220   2.481  10.431  0.00  0.00    +0.000 OA
ENDBRANCH   3  11
ENDBRANCH   1   8
BRANCH   2  12
ATOM     12  C   UNL     1      47.705   3.487  15.916  0.00  0.00    +0.000 A 
ATOM     13  C   UNL     1      47.302   4.249  17.007  0.00  0.00    +0.000 A 
ATOM     14  C   UNL     1      48.036   4.172  18.186  0.00  0.00    +0.000 A 
ATOM     15  C   UNL     1      49.144   3.334  18.245  0.00  0.00    +0.000 A 
ATOM     16  C   UNL     1      49.489   2.599  17.114  0.00  0.00    +0.000 A 
ATOM     17  N   UNL     1      48.786   2.674  15.956  0.00  0.00    +0.000 NA
BRANCH  16  18
ATOM     18  C   UNL     1      50.665   1.648  17.140  0.00  0.00    +0.000 C 
BRANCH  18  19
ATOM     19  N   UNL     1      51.616   1.933  18.220  0.00  0.00    +0.000 NA
ATOM     20  H   UNL     1      51.623   1.127  18.846  0.00  0.00    +0.000 HD
ATOM     21  H   UNL     1      51.250   2.707  18.771  0.00  0.00    +0.000 HD
ENDBRANCH  18  19
ENDBRANCH  16  18
ENDBRANCH   2  12
TORSDOF 5
ENDMDL
MODEL 5
REMARK VINA RESULT:    -5.819      3.856      6.980
REMARK INTER + INTRA:          -7.777
REMARK INTER:                  -7.331
REMARK INTRA:                  -0.447
REMARK UNBOUND:                -0.427
REMARK  Name = 
REMARK  6 active torsions:
REMARK  status: ('A' for Active; 'I' for Inactive)
REMARK    1  A    between atoms: C_1  and  O_2
REMARK    2  A    between atoms: O_2  and  C_3
REMARK    3  A    between atoms: C_8  and  C_9
REMARK    4  A    between atoms: C_10  and  C_11
REMARK    5  A    between atoms: C_15  and  C_16
REMARK    6  A    between atoms: C_16  and  N_17
REMARK                            x       y       z     vdW  Elec       q    Type
REMARK                         _______ _______ _______ _____ _____    ______ ____
ROOT
ATOM      1  C   UNL     1      45.783   6.364  11.219  0.00  0.00    +0.000 C 
ATOM      2  C   UNL     1      46.943   6.540  11.875  0.00  0.00    +0.000 C 
ENDROOT
BRANCH   1   8
ATOM      3  C   UNL     1      44.219   3.027  10.284  0.00  0.00    +0.000 A 
ATOM      4  C   UNL     1      43.467   2.759  11.428  0.00  0.00    +0.000 A 
ATOM      5  C   UNL     1      43.479   3.661  12.493  0.00  0.00    +0.000 A 
ATOM      6  C   UNL     1      44.230   4.830  12.407  0.00  0.00    +0.000 A 
ATOM      7  F   UNL     1      44.220   5.670  13.454  0.00  0.00    +0.000 F 
ATOM      8  C   UNL     1      44.977   5.134  11.262  0.00  0.00    +0.000 A 
ATOM      9  C   UNL     1      44.972   4.206  10.212  0.00  0.00    +0.000 A 
BRANCH   3  11
ATOM     10  C   UNL     1      45.618   1.885   8.739  0.00  0.00    +0.000 C 
ATOM     11  O   UNL     1      44.310   2.230   9.176  0.00  0.00    +0.000 OA
ENDBRANCH   3  11
ENDBRANCH   1   8
BRANCH   2  12
ATOM     12  C   UNL     1      47.730   7.781  11.825  0.00  0.00    +0.000 A 
ATOM     13  C   UNL     1      49.102   7.730  11.606  0.00  0.00    +0.000 A 
ATOM     14  C   UNL     1      49.818   8.922  11.562  0.00  0.00    +0.000 A 
ATOM     15  C   UNL     1      49.145  10.127  11.731  0.00  0.00    +0.000 A 
ATOM     16  C   UNL     1      47.770  10.102  11.945  0.00  0.00    +0.000 A 
ATOM     17  N   UNL     1      47.064   8.946  12.000  0.00  0.00    +0.000 NA
BRANCH  16  18
ATOM     18  C   UNL     1      46.989  11.389  12.101  0.00  0.00    +0.000 C 
BRANCH  18  19
ATOM     19  N   UNL     1      45.539  11.181  12.174  0.00  0.00    +0.000 NA
ATOM     20  H   UNL     1      45.345  10.658  13.029  0.00  0.00    +0.000 HD
ATOM     21  H   UNL     1      45.266  10.569  11.407  0.00  0.00    +0.000 HD
ENDBRANCH  18  19
ENDBRANCH  16  18
ENDBRANCH   2  12
TORSDOF 5
ENDMDL
MODEL 6
REMARK VINA RESULT:    -5.819      5.392      6.998
REMARK INTER + INTRA:          -7.777
REMARK INTER:                  -7.356
REMARK INTRA:                  -0.421
REMARK UNBOUND:                -0.427
REMARK  Name = 
REMARK  6 active torsions:
REMARK  status: ('A' for Active; 'I' for Inactive)
REMARK    1  A    between atoms: C_1  and  O_2
REMARK    2  A    between atoms: O_2  and  C_3
REMARK    3  A    between atoms: C_8  and  C_9
REMARK    4  A    between atoms: C_10  and  C_11
REMARK    5  A    between atoms: C_15  and  C_16
REMARK    6  A    between atoms: C_16  and  N_17
REMARK                            x       y       z     vdW  Elec       q    Type
REMARK                         _______ _______ _______ _____ _____    ______ ____
ROOT
ATOM      1  C   UNL     1      46.982   4.223  15.201  0.00  0.00    +0.000 C 
ATOM      2  C   UNL     1      47.099   5.185  14.269  0.00  0.00    +0.000 C 
ENDROOT
BRANCH   1   8
ATOM      3  C   UNL     1      48.419   5.143  18.599  0.00  0.00    +0.000 A 
ATOM      4  C   UNL     1      49.180   4.007  18.879  0.00  0.00    +0.000 A 
ATOM      5  C   UNL     1      49.215   2.954  17.964  0.00  0.00    +0.000 A 
ATOM      6  C   UNL     1      48.501   3.042  16.772  0.00  0.00    +0.000 A 
ATOM      7  F   UNL     1      48.556   2.005  15.921  0.00  0.00    +0.000 F 
ATOM      8  C   UNL     1      47.747   4.178  16.456  0.00  0.00    +0.000 A 
ATOM      9  C   UNL     1      47.705   5.218  17.396  0.00  0.00    +0.000 A 
BRANCH   3  11
ATOM     10  C   UNL     1      47.379   6.129  20.494  0.00  0.00    +0.000 C 
ATOM     11  O   UNL     1      48.284   6.240  19.404  0.00  0.00    +0.000 OA
ENDBRANCH   3  11
ENDBRANCH   1   8
BRANCH   2  12
ATOM     12  C   UNL     1      46.317   5.216  13.024  0.00  0.00    +0.000 A 
ATOM     13  C   UNL     1      46.667   6.092  12.001  0.00  0.00    +0.000 A 
ATOM     14  C   UNL     1      45.909   6.095  10.835  0.00  0.00    +0.000 A 
ATOM     15  C   UNL     1      44.831   5.224  10.720  0.00  0.00    +0.000 A 
ATOM     16  C   UNL     1      44.540   4.374  11.784  0.00  0.00    +0.000 A 
ATOM     17  N   UNL     1      45.267   4.369  12.929  0.00  0.00    +0.000 NA
BRANCH  16  18
ATOM     18  C   UNL     1      43.399   3.385  11.692  0.00  0.00    +0.000 C 
BRANCH  18  19
ATOM     19  N   UNL     1      43.602   2.190  12.517  0.00  0.00    +0.000 NA
ATOM     20  H   UNL     1      43.086   2.325  13.388  0.00  0.00    +0.000 HD
ATOM     21  H   UNL     1      44.584   2.147  12.782  0.00  0.00    +0.000 HD
ENDBRANCH  18  19
ENDBRANCH  16  18
ENDBRANCH   2  12
TORSDOF 5
ENDMDL
MODEL 7
REMARK VINA RESULT:    -5.749      5.908      7.644
REMARK INTER + INTRA:          -7.689
REMARK INTER:                  -7.294
REMARK INTRA:                  -0.394
REMARK UNBOUND:                -0.427
REMARK  Name = 
REMARK  6 active torsions:
REMARK  status: ('A' for Active; 'I' for Inactive)
REMARK    1  A    between atoms: C_1  and  O_2
REMARK    2  A    between atoms: O_2  and  C_3
REMARK    3  A    between atoms: C_8  and  C_9
REMARK    4  A    between atoms: C_10  and  C_11
REMARK    5  A    between atoms: C_15  and  C_16
REMARK    6  A    between atoms: C_16  and  N_17
REMARK                            x       y       z     vdW  Elec       q    Type
REMARK                         _______ _______ _______ _____ _____    ______ ____
ROOT
ATOM      1  C   UNL     1      46.971   4.289  15.717  0.00  0.00    +0.000 C 
ATOM      2  C   UNL     1      47.062   4.302  14.376  0.00  0.00    +0.000 C 
ENDROOT
BRANCH   1   8
ATOM      3  C   UNL     1      49.901   2.485  17.335  0.00  0.00    +0.000 A 
ATOM      4  C   UNL     1      50.228   3.378  18.357  0.00  0.00    +0.000 A 
ATOM      5  C   UNL     1      49.497   4.557  18.507  0.00  0.00    +0.000 A 
ATOM      6  C   UNL     1      48.438   4.835  17.646  0.00  0.00    +0.000 A 
ATOM      7  F   UNL     1      47.763   5.982  17.820  0.00  0.00    +0.000 F 
ATOM      8  C   UNL     1      48.075   3.948  16.627  0.00  0.00    +0.000 A 
ATOM      9  C   UNL     1      48.835   2.779  16.476  0.00  0.00    +0.000 A 
BRANCH   3  11
ATOM     10  C   UNL     1      51.903   1.209  17.440  0.00  0.00    +0.000 C 
ATOM     11  O   UNL     1      50.536   1.304  17.064  0.00  0.00    +0.000 OA
ENDBRANCH   3  11
ENDBRANCH   1   8
BRANCH   2  12
ATOM     12  C   UNL     1      45.947   4.655  13.485  0.00  0.00    +0.000 A 
ATOM     13  C   UNL     1      45.709   5.985  13.158  0.00  0.00    +0.000 A 
ATOM     14  C   UNL     1      44.647   6.287  12.311  0.00  0.00    +0.000 A 
ATOM     15  C   UNL     1      43.861   5.255  11.811  0.00  0.00    +0.000 A 
ATOM     16  C   UNL     1      44.158   3.946  12.180  0.00  0.00    +0.000 A 
ATOM     17  N   UNL     1      45.184   3.642  13.013  0.00  0.00    +0.000 NA
BRANCH  16  18
ATOM     18  C   UNL     1      43.352   2.788  11.635  0.00  0.00    +0.000 C 
BRANCH  18  19
ATOM     19  N   UNL     1      43.911   2.224  10.401  0.00  0.00    +0.000 NA
ATOM     20  H   UNL     1      43.996   1.215  10.534  0.00  0.00    +0.000 HD
ATOM     21  H   UNL     1      44.862   2.570  10.295  0.00  0.00    +0.000 HD
ENDBRANCH  18  19
ENDBRANCH  16  18
ENDBRANCH   2  12
TORSDOF 5
ENDMDL
MODEL 8
REMARK VINA RESULT:    -5.698      3.678      6.514
REMARK INTER + INTRA:          -7.624
REMARK INTER:                  -7.198
REMARK INTRA:                  -0.427
REMARK UNBOUND:                -0.427
REMARK  Name = 
REMARK  6 active torsions:
REMARK  status: ('A' for Active; 'I' for Inactive)
REMARK    1  A    between atoms: C_1  and  O_2
REMARK    2  A    between atoms: O_2  and  C_3
REMARK    3  A    between atoms: C_8  and  C_9
REMARK    4  A    between atoms: C_10  and  C_11
REMARK    5  A    between atoms: C_15  and  C_16
REMARK    6  A    between atoms: C_16  and  N_17
REMARK                            x       y       z     vdW  Elec       q    Type
REMARK                         _______ _______ _______ _____ _____    ______ ____
ROOT
ATOM      1  C   UNL     1      45.899   6.337  11.154  0.00  0.00    +0.000 C 
ATOM      2  C   UNL     1      46.976   6.542  11.933  0.00  0.00    +0.000 C 
ENDROOT
BRANCH   1   8
ATOM      3  C   UNL     1      44.219   3.045  10.262  0.00  0.00    +0.000 A 
ATOM      4  C   UNL     1      43.436   2.833  11.398  0.00  0.00    +0.000 A 
ATOM      5  C   UNL     1      43.465   3.759  12.442  0.00  0.00    +0.000 A 
ATOM      6  C   UNL     1      44.264   4.895  12.345  0.00  0.00    +0.000 A 
ATOM      7  F   UNL     1      44.269   5.757  13.373  0.00  0.00    +0.000 F 
ATOM      8  C   UNL     1      45.043   5.142  11.209  0.00  0.00    +0.000 A 
ATOM      9  C   UNL     1      45.020   4.191  10.179  0.00  0.00    +0.000 A 
BRANCH   3  11
ATOM     10  C   UNL     1      45.602   1.888   8.714  0.00  0.00    +0.000 C 
ATOM     11  O   UNL     1      44.299   2.221   9.174  0.00  0.00    +0.000 OA
ENDBRANCH   3  11
ENDBRANCH   1   8
BRANCH   2  12
ATOM     12  C   UNL     1      47.813   7.749  11.868  0.00  0.00    +0.000 A 
ATOM     13  C   UNL     1      47.269   8.993  12.169  0.00  0.00    +0.000 A 
ATOM     14  C   UNL     1      48.087  10.116  12.102  0.00  0.00    +0.000 A 
ATOM     15  C   UNL     1      49.422   9.965  11.742  0.00  0.00    +0.000 A 
ATOM     16  C   UNL     1      49.898   8.689  11.455  0.00  0.00    +0.000 A 
ATOM     17  N   UNL     1      49.107   7.589  11.509  0.00  0.00    +0.000 NA
BRANCH  16  18
ATOM     18  C   UNL     1      51.351   8.470  11.092  0.00  0.00    +0.000 C 
BRANCH  18  19
ATOM     19  N   UNL     1      51.689   7.058  10.884  0.00  0.00    +0.000 NA
ATOM     20  H   UNL     1      50.902   6.620  10.404  0.00  0.00    +0.000 HD
ATOM     21  H   UNL     1      51.744   6.606  11.795  0.00  0.00    +0.000 HD
ENDBRANCH  18  19
ENDBRANCH  16  18
ENDBRANCH   2  12
TORSDOF 5
ENDMDL
MODEL 9
REMARK VINA RESULT:    -5.654      3.525      7.366
REMARK INTER + INTRA:          -7.569
REMARK INTER:                  -7.268
REMARK INTRA:                  -0.301
REMARK UNBOUND:                -0.427
REMARK  Name = 
REMARK  6 active torsions:
REMARK  status: ('A' for Active; 'I' for Inactive)
REMARK    1  A    between atoms: C_1  and  O_2
REMARK    2  A    between atoms: O_2  and  C_3
REMARK    3  A    between atoms: C_8  and  C_9
REMARK    4  A    between atoms: C_10  and  C_11
REMARK    5  A    between atoms: C_15  and  C_16
REMARK    6  A    between atoms: C_16  and  N_17
REMARK                            x       y       z     vdW  Elec       q    Type
REMARK                         _______ _______ _______ _____ _____    ______ ____
ROOT
ATOM      1  C   UNL     1      45.325   5.349   9.612  0.00  0.00    +0.000 C 
ATOM      2  C   UNL     1      45.447   5.670  10.912  0.00  0.00    +0.000 C 
ENDROOT
BRANCH   1   8
ATOM      3  C   UNL     1      46.582   2.379   7.597  0.00  0.00    +0.000 A 
ATOM      4  C   UNL     1      45.785   1.356   8.112  0.00  0.00    +0.000 A 
ATOM      5  C   UNL     1      44.851   1.640   9.110  0.00  0.00    +0.000 A 
ATOM      6  C   UNL     1      44.709   2.942   9.582  0.00  0.00    +0.000 A 
ATOM      7  F   UNL     1      43.805   3.173  10.546  0.00  0.00    +0.000 F 
ATOM      8  C   UNL     1      45.481   3.991   9.068  0.00  0.00    +0.000 A 
ATOM      9  C   UNL     1      46.429   3.685   8.083  0.00  0.00    +0.000 A 
BRANCH   3  11
ATOM     10  C   UNL     1      47.271   2.844   5.371  0.00  0.00    +0.000 C 
ATOM     11  O   UNL     1      47.540   2.245   6.631  0.00  0.00    +0.000 OA
ENDBRANCH   3  11
ENDBRANCH   1   8
BRANCH   2  12
ATOM     12  C   UNL     1      45.278   7.033  11.436  0.00  0.00    +0.000 A 
ATOM     13  C   UNL     1      46.109   7.499  12.450  0.00  0.00    +0.000 A 
ATOM     14  C   UNL     1      45.926   8.794  12.923  0.00  0.00    +0.000 A 
ATOM     15  C   UNL     1      44.927   9.587  12.369  0.00  0.00    +0.000 A 
ATOM     16  C   UNL     1      44.134   9.055  11.356  0.00  0.00    +0.000 A 
ATOM     17  N   UNL     1      44.297   7.790  10.894  0.00  0.00    +0.000 NA
BRANCH  16  18
ATOM     18  C   UNL     1      43.057   9.890  10.699  0.00  0.00    +0.000 C 
BRANCH  18  19
ATOM     19  N   UNL     1      41.699   9.470  11.060  0.00  0.00    +0.000 NA
ATOM     20  H   UNL     1      41.745   8.492  11.349  0.00  0.00    +0.000 HD
ATOM     21  H   UNL     1      41.127   9.482  10.217  0.00  0.00    +0.000 HD
ENDBRANCH  18  19
ENDBRANCH  16  18
ENDBRANCH   2  12
TORSDOF 5
ENDMDL
