MODEL 1
REMARK VINA RESULT:    -7.666      0.000      0.000
REMARK INTER + INTRA:         -11.913
REMARK INTER:                 -11.028
REMARK INTRA:                  -0.885
REMARK UNBOUND:                -0.885
REMARK  Name = 
REMARK  8 active torsions:
REMARK  status: ('A' for Active; 'I' for Inactive)
REMARK    1  A    between atoms: N_1  and  C_2
REMARK    2  A    between atoms: C_2  and  C_3
REMARK    3  A    between atoms: C_2  and  C_10
REMARK    4  A    between atoms: C_3  and  C_4
REMARK    5  A    between atoms: C_13  and  C_14
REMARK    6  A    between atoms: C_14  and  N_15
REMARK    7  A    between atoms: N_15  and  C_16
REMARK    8  A    between atoms: C_16  and  C_17
REMARK                            x       y       z     vdW  Elec       q    Type
REMARK                         _______ _______ _______ _____ _____    ______ ____
ROOT
ATOM      1  C   UNL     1      45.147   4.403  11.566  0.00  0.00    +0.000 A 
ATOM      2  C   UNL     1      45.520   5.664  11.063  0.00  0.00    +0.000 A 
ATOM      3  C   UNL     1      46.354   6.520  11.781  0.00  0.00    +0.000 A 
ATOM      4  C   UNL     1      46.811   6.165  13.052  0.00  0.00    +0.000 A 
ATOM      5  C   UNL     1      46.386   4.949  13.599  0.00  0.00    +0.000 A 
ATOM      6  C   UNL     1      45.563   4.081  12.867  0.00  0.00    +0.000 A 
ENDROOT
BRANCH   1   7
ATOM      7  C   UNL     1      44.280   3.482  10.708  0.00  0.00    +0.000 C 
BRANCH   7   8
ATOM      8  N   UNL     1      42.878   3.536  11.172  0.00  0.00    +0.000 NA
ATOM      9  H   UNL     1      42.248   3.748  10.400  0.00  0.00    +0.000 HD
ATOM     10  H   UNL     1      42.782   4.290  11.850  0.00  0.00    +0.000 HD
ENDBRANCH   7   8
BRANCH   7  11
ATOM     11  C   UNL     1      44.335   3.774   9.181  0.00  0.00    +0.000 C 
BRANCH  11  12
ATOM     12  C   UNL     1      45.392   3.004   8.442  0.00  0.00    +0.000 A 
ATOM     13  C   UNL     1      46.252   3.597   7.537  0.00  0.00    +0.000 A 
ATOM     14  N   UNL     1      47.209   2.931   6.866  0.00  0.00    +0.000 NA
ATOM     15  C   UNL     1      47.307   1.619   7.135  0.00  0.00    +0.000 A 
ATOM     16  N   UNL     1      46.538   0.935   7.993  0.00  0.00    +0.000 NA
ATOM     17  C   UNL     1      45.598   1.648   8.633  0.00  0.00    +0.000 A 
ENDBRANCH  11  12
ENDBRANCH   7  11
ENDBRANCH   1   7
BRANCH   4  18
ATOM     18  C   UNL     1      47.754   7.071  13.802  0.00  0.00    +0.000 C 
BRANCH  18  19
ATOM     19  N   UNL     1      48.825   6.304  14.424  0.00  0.00    +0.000 NA
ATOM     20  H   UNL     1      49.718   6.610  14.037  0.00  0.00    +0.000 HD
BRANCH  19  21
ATOM     21  C   UNL     1      48.857   6.508  15.875  0.00  0.00    +0.000 C 
BRANCH  21  22
ATOM     22  C   UNL     1      48.719   5.194  16.618  0.00  0.00    +0.000 A 
ATOM     23  C   UNL     1      47.456   4.634  16.816  0.00  0.00    +0.000 A 
ATOM     24  C   UNL     1      47.356   3.403  17.454  0.00  0.00    +0.000 A 
ATOM     25  C   UNL     1      48.514   2.766  17.884  0.00  0.00    +0.000 A 
ATOM     26  C   UNL     1      49.728   3.392  17.656  0.00  0.00    +0.000 A 
ATOM     27  N   UNL     1      49.858   4.585  17.033  0.00  0.00    +0.000 NA
ENDBRANCH  21  22
ENDBRANCH  19  21
ENDBRANCH  18  19
ENDBRANCH   4  18
TORSDOF 8
ENDMDL
MODEL 2
REMARK VINA RESULT:    -7.519      1.374      2.136
REMARK INTER + INTRA:         -11.700
REMARK INTER:                 -10.994
REMARK INTRA:                  -0.706
REMARK UNBOUND:                -0.885
REMARK  Name = 
REMARK  8 active torsions:
REMARK  status: ('A' for Active; 'I' for Inactive)
REMARK    1  A    between atoms: N_1  and  C_2
REMARK    2  A    between atoms: C_2  and  C_3
REMARK    3  A    between atoms: C_2  and  C_10
REMARK    4  A    between atoms: C_3  and  C_4
REMARK    5  A    between atoms: C_13  and  C_14
REMARK    6  A    between atoms: C_14  and  N_15
REMARK    7  A    between atoms: N_15  and  C_16
REMARK    8  A    between atoms: C_16  and  C_17
REMARK                            x       y       z     vdW  Elec       q    Type
REMARK                         _______ _______ _______ _____ _____    ______ ____
ROOT
ATOM      1  C   UNL     1      45.241   4.494  11.322  0.00  0.00    +0.000 A 
ATOM      2  C   UNL     1      45.565   3.365  12.098  0.00  0.00    +0.000 A 
ATOM      3  C   UNL     1      46.254   3.481  13.304  0.00  0.00    +0.000 A 
ATOM      4  C   UNL     1      46.684   4.729  13.759  0.00  0.00    +0.000 A 
ATOM      5  C   UNL     1      46.438   5.852  12.961  0.00  0.00    +0.000 A 
ATOM      6  C   UNL     1      45.729   5.735  11.757  0.00  0.00    +0.000 A 
ENDROOT
BRANCH   1   7
ATOM      7  C   UNL     1      44.432   4.312  10.037  0.00  0.00    +0.000 C 
BRANCH   7   8
ATOM      8  N   UNL     1      43.281   5.238  10.033  0.00  0.00    +0.000 NA
ATOM      9  H   UNL     1      42.555   4.913   9.397  0.00  0.00    +0.000 HD
ATOM     10  H   UNL     1      43.589   6.148   9.694  0.00  0.00    +0.000 HD
ENDBRANCH   7   8
BRANCH   7  11
ATOM     11  C   UNL     1      45.248   4.490   8.725  0.00  0.00    +0.000 C 
BRANCH  11  12
ATOM     12  C   UNL     1      45.900   3.233   8.225  0.00  0.00    +0.000 A 
ATOM     13  C   UNL     1      46.895   3.236   7.267  0.00  0.00    +0.000 A 
ATOM     14  N   UNL     1      47.496   2.125   6.807  0.00  0.00    +0.000 NA
ATOM     15  C   UNL     1      47.083   0.968   7.351  0.00  0.00    +0.000 A 
ATOM     16  N   UNL     1      46.134   0.837   8.287  0.00  0.00    +0.000 NA
ATOM     17  C   UNL     1      45.566   1.978   8.708  0.00  0.00    +0.000 A 
ENDBRANCH  11  12
ENDBRANCH   7  11
ENDBRANCH   1   7
BRANCH   4  18
ATOM     18  C   UNL     1      47.382   4.855  15.090  0.00  0.00    +0.000 C 
BRANCH  18  19
ATOM     19  N   UNL     1      46.991   3.773  15.984  0.00  0.00    +0.000 NA
ATOM     20  H   UNL     1      47.363   2.894  15.622  0.00  0.00    +0.000 HD
BRANCH  19  21
ATOM     21  C   UNL     1      47.523   3.976  17.334  0.00  0.00    +0.000 C 
BRANCH  21  22
ATOM     22  C   UNL     1      48.975   3.547  17.424  0.00  0.00    +0.000 A 
ATOM     23  C   UNL     1      49.893   4.336  18.116  0.00  0.00    +0.000 A 
ATOM     24  C   UNL     1      51.208   3.898  18.230  0.00  0.00    +0.000 A 
ATOM     25  C   UNL     1      51.573   2.691  17.647  0.00  0.00    +0.000 A 
ATOM     26  C   UNL     1      50.603   1.970  16.970  0.00  0.00    +0.000 A 
ATOM     27  N   UNL     1      49.317   2.367  16.848  0.00  0.00    +0.000 NA
ENDBRANCH  21  22
ENDBRANCH  19  21
ENDBRANCH  18  19
ENDBRANCH   4  18
TORSDOF 8
ENDMDL
MODEL 3
REMARK VINA RESULT:    -7.291      1.398      8.067
REMARK INTER + INTRA:         -11.373
REMARK INTER:                 -10.550
REMARK INTRA:                  -0.823
REMARK UNBOUND:                -0.885
REMARK  Name = 
REMARK  8 active torsions:
REMARK  status: ('A' for Active; 'I' for Inactive)
REMARK    1  A    between atoms: N_1  and  C_2
REMARK    2  A    between atoms: C_2  and  C_3
REMARK    3  A    between atoms: C_2  and  C_10
REMARK    4  A    between atoms: C_3  and  C_4
REMARK    5  A    between atoms: C_13  and  C_14
REMARK    6  A    between atoms: C_14  and  N_15
REMARK    7  A    between atoms: N_15  and  C_16
REMARK    8  A    between atoms: C_16  and  C_17
REMARK                            x       y       z     vdW  Elec       q    Type
REMARK                         _______ _______ _______ _____ _____    ______ ____
ROOT
ATOM      1  C   UNL     1      46.577   4.940  13.766  0.00  0.00    +0.000 A 
ATOM      2  C   UNL     1      45.648   5.875  13.272  0.00  0.00    +0.000 A 
ATOM      3  C   UNL     1      44.597   5.491  12.441  0.00  0.00    +0.000 A 
ATOM      4  C   UNL     1      44.460   4.161  12.037  0.00  0.00    +0.000 A 
ATOM      5  C   UNL     1      45.421   3.233  12.456  0.00  0.00    +0.000 A 
ATOM      6  C   UNL     1      46.466   3.618  13.307  0.00  0.00    +0.000 A 
ENDROOT
BRANCH   1   7
ATOM      7  C   UNL     1      47.674   5.408  14.722  0.00  0.00    +0.000 C 
BRANCH   7   8
ATOM      8  N   UNL     1      47.727   6.884  14.743  0.00  0.00    +0.000 NA
ATOM      9  H   UNL     1      47.955   7.227  15.674  0.00  0.00    +0.000 HD
ATOM     10  H   UNL     1      46.805   7.252  14.508  0.00  0.00    +0.000 HD
ENDBRANCH   7   8
BRANCH   7  11
ATOM     11  C   UNL     1      47.541   4.872  16.176  0.00  0.00    +0.000 C 
BRANCH  11  12
ATOM     12  C   UNL     1      48.586   3.865  16.563  0.00  0.00    +0.000 A 
ATOM     13  C   UNL     1      48.608   2.578  16.059  0.00  0.00    +0.000 A 
ATOM     14  N   UNL     1      49.535   1.661  16.386  0.00  0.00    +0.000 NA
ATOM     15  C   UNL     1      50.484   2.068  17.245  0.00  0.00    +0.000 A 
ATOM     16  N   UNL     1      50.572   3.286  17.796  0.00  0.00    +0.000 NA
ATOM     17  C   UNL     1      49.620   4.161  17.436  0.00  0.00    +0.000 A 
ENDBRANCH  11  12
ENDBRANCH   7  11
ENDBRANCH   1   7
BRANCH   4  18
ATOM     18  C   UNL     1      43.292   3.742  11.181  0.00  0.00    +0.000 C 
BRANCH  18  19
ATOM     19  N   UNL     1      43.749   3.058   9.979  0.00  0.00    +0.000 NA
ATOM     20  H   UNL     1      42.938   2.694   9.477  0.00  0.00    +0.000 HD
BRANCH  19  21
ATOM     21  C   UNL     1      44.471   3.970   9.086  0.00  0.00    +0.000 C 
BRANCH  21  22
ATOM     22  C   UNL     1      45.485   3.223   8.242  0.00  0.00    +0.000 A 
ATOM     23  C   UNL     1      45.826   1.909   8.562  0.00  0.00    +0.000 A 
ATOM     24  C   UNL     1      46.719   1.225   7.744  0.00  0.00    +0.000 A 
ATOM     25  C   UNL     1      47.253   1.870   6.635  0.00  0.00    +0.000 A 
ATOM     26  C   UNL     1      46.868   3.177   6.391  0.00  0.00    +0.000 A 
ATOM     27  N   UNL     1      45.999   3.866   7.163  0.00  0.00    +0.000 NA
ENDBRANCH  21  22
ENDBRANCH  19  21
ENDBRANCH  18  19
ENDBRANCH   4  18
TORSDOF 8
ENDMDL
MODEL 4
REMARK VINA RESULT:    -7.283      2.456      7.819
REMARK INTER + INTRA:         -11.361
REMARK INTER:                 -10.362
REMARK INTRA:                  -0.999
REMARK UNBOUND:                -0.885
REMARK  Name = 
REMARK  8 active torsions:
REMARK  status: ('A' for Active; 'I' for Inactive)
REMARK    1  A    between atoms: N_1  and  C_2
REMARK    2  A    between atoms: C_2  and  C_3
REMARK    3  A    between atoms: C_2  and  C_10
REMARK    4  A    between atoms: C_3  and  C_4
REMARK    5  A    between atoms: C_13  and  C_14
REMARK    6  A    between atoms: C_14  and  N_15
REMARK    7  A    between atoms: N_15  and  C_16
REMARK    8  A    between atoms: C_16  and  C_17
REMARK                            x       y       z     vdW  Elec       q    Type
REMARK                         _______ _______ _______ _____ _____    ______ ____
ROOT
ATOM      1  C   UNL     1      46.669   6.018  12.790  0.00  0.00    +0.000 A 
ATOM      2  C   UNL     1      45.950   5.081  13.556  0.00  0.00    +0.000 A 
ATOM      3  C   UNL     1      44.922   4.319  13.002  0.00  0.00    +0.000 A 
ATOM      4  C   UNL     1      44.544   4.499  11.669  0.00  0.00    +0.000 A 
ATOM      5  C   UNL     1      45.196   5.482  10.916  0.00  0.00    +0.000 A 
ATOM      6  C   UNL     1      46.242   6.233  11.470  0.00  0.00    +0.000 A 
ENDROOT
BRANCH   1   7
ATOM      7  C   UNL     1      47.825   6.782  13.435  0.00  0.00    +0.000 C 
BRANCH   7   8
ATOM      8  N   UNL     1      48.130   6.207  14.762  0.00  0.00    +0.000 NA
ATOM      9  H   UNL     1      47.493   6.568  15.469  0.00  0.00    +0.000 HD
ATOM     10  H   UNL     1      49.070   6.488  15.036  0.00  0.00    +0.000 HD
ENDBRANCH   7   8
BRANCH   7  11
ATOM     11  C   UNL     1      49.124   6.836  12.580  0.00  0.00    +0.000 C 
BRANCH  11  12
ATOM     12  C   UNL     1      49.442   8.194  12.023  0.00  0.00    +0.000 A 
ATOM     13  C   UNL     1      48.477   9.159  11.806  0.00  0.00    +0.000 A 
ATOM     14  N   UNL     1      48.737  10.382  11.313  0.00  0.00    +0.000 NA
ATOM     15  C   UNL     1      50.027  10.642  11.043  0.00  0.00    +0.000 A 
ATOM     16  N   UNL     1      51.050   9.794  11.215  0.00  0.00    +0.000 NA
ATOM     17  C   UNL     1      50.733   8.586  11.708  0.00  0.00    +0.000 A 
ENDBRANCH  11  12
ENDBRANCH   7  11
ENDBRANCH   1   7
BRANCH   4  18
ATOM     18  C   UNL     1      43.468   3.636  11.061  0.00  0.00    +0.000 C 
BRANCH  18  19
ATOM     19  N   UNL     1      43.794   3.296   9.682  0.00  0.00    +0.000 NA
ATOM     20  H   UNL     1      44.301   4.075   9.261  0.00  0.00    +0.000 HD
BRANCH  19  21
ATOM     21  C   UNL     1      44.641   2.103   9.610  0.00  0.00    +0.000 C 
BRANCH  21  22
ATOM     22  C   UNL     1      45.626   2.197   8.461  0.00  0.00    +0.000 A 
ATOM     23  C   UNL     1      45.776   3.399   7.769  0.00  0.00    +0.000 A 
ATOM     24  C   UNL     1      46.722   3.479   6.752  0.00  0.00    +0.000 A 
ATOM     25  C   UNL     1      47.487   2.359   6.449  0.00  0.00    +0.000 A 
ATOM     26  C   UNL     1      47.272   1.202   7.179  0.00  0.00    +0.000 A 
ATOM     27  N   UNL     1      46.365   1.095   8.176  0.00  0.00    +0.000 NA
ENDBRANCH  21  22
ENDBRANCH  19  21
ENDBRANCH  18  19
ENDBRANCH   4  18
TORSDOF 8
ENDMDL
MODEL 5
REMARK VINA RESULT:    -7.100      1.282      8.251
REMARK INTER + INTRA:         -11.098
REMARK INTER:                 -10.179
REMARK INTRA:                  -0.919
REMARK UNBOUND:                -0.885
REMARK  Name = 
REMARK  8 active torsions:
REMARK  status: ('A' for Active; 'I' for Inactive)
REMARK    1  A    between atoms: N_1  and  C_2
REMARK    2  A    between atoms: C_2  and  C_3
REMARK    3  A    between atoms: C_2  and  C_10
REMARK    4  A    between atoms: C_3  and  C_4
REMARK    5  A    between atoms: C_13  and  C_14
REMARK    6  A    between atoms: C_14  and  N_15
REMARK    7  A    between atoms: N_15  and  C_16
REMARK    8  A    between atoms: C_16  and  C_17
REMARK                            x       y       z     vdW  Elec       q    Type
REMARK                         _______ _______ _______ _____ _____    ______ ____
ROOT
ATOM      1  C   UNL     1      47.189   6.126  12.701  0.00  0.00    +0.000 A 
ATOM      2  C   UNL     1      46.255   5.293  13.346  0.00  0.00    +0.000 A 
ATOM      3  C   UNL     1      45.103   4.848  12.697  0.00  0.00    +0.000 A 
ATOM      4  C   UNL     1      44.820   5.257  11.393  0.00  0.00    +0.000 A 
ATOM      5  C   UNL     1      45.699   6.148  10.766  0.00  0.00    +0.000 A 
ATOM      6  C   UNL     1      46.866   6.578  11.413  0.00  0.00    +0.000 A 
ENDROOT
BRANCH   1   7
ATOM      7  C   UNL     1      48.463   6.534  13.441  0.00  0.00    +0.000 C 
BRANCH   7   8
ATOM      8  N   UNL     1      49.184   7.568  12.668  0.00  0.00    +0.000 NA
ATOM      9  H   UNL     1      50.186   7.512  12.834  0.00  0.00    +0.000 HD
ATOM     10  H   UNL     1      48.880   8.488  12.983  0.00  0.00    +0.000 HD
ENDBRANCH   7   8
BRANCH   7  11
ATOM     11  C   UNL     1      48.237   7.036  14.896  0.00  0.00    +0.000 C 
BRANCH  11  12
ATOM     12  C   UNL     1      48.847   6.161  15.954  0.00  0.00    +0.000 A 
ATOM     13  C   UNL     1      48.184   5.081  16.505  0.00  0.00    +0.000 A 
ATOM     14  N   UNL     1      48.709   4.281  17.449  0.00  0.00    +0.000 NA
ATOM     15  C   UNL     1      49.960   4.578  17.838  0.00  0.00    +0.000 A 
ATOM     16  N   UNL     1      50.705   5.592  17.376  0.00  0.00    +0.000 NA
ATOM     17  C   UNL     1      50.130   6.360  16.436  0.00  0.00    +0.000 A 
ENDBRANCH  11  12
ENDBRANCH   7  11
ENDBRANCH   1   7
BRANCH   4  18
ATOM     18  C   UNL     1      43.601   4.731  10.678  0.00  0.00    +0.000 C 
BRANCH  18  19
ATOM     19  N   UNL     1      43.956   4.200   9.369  0.00  0.00    +0.000 NA
ATOM     20  H   UNL     1      44.718   4.758   8.982  0.00  0.00    +0.000 HD
BRANCH  19  21
ATOM     21  C   UNL     1      44.406   2.808   9.460  0.00  0.00    +0.000 C 
BRANCH  21  22
ATOM     22  C   UNL     1      45.483   2.510   8.436  0.00  0.00    +0.000 A 
ATOM     23  C   UNL     1      45.940   3.522   7.591  0.00  0.00    +0.000 A 
ATOM     24  C   UNL     1      46.965   3.241   6.694  0.00  0.00    +0.000 A 
ATOM     25  C   UNL     1      47.502   1.960   6.659  0.00  0.00    +0.000 A 
ATOM     26  C   UNL     1      46.988   1.011   7.526  0.00  0.00    +0.000 A 
ATOM     27  N   UNL     1      45.998   1.255   8.412  0.00  0.00    +0.000 NA
ENDBRANCH  21  22
ENDBRANCH  19  21
ENDBRANCH  18  19
ENDBRANCH   4  18
TORSDOF 8
ENDMDL
MODEL 6
REMARK VINA RESULT:    -6.945      2.744      5.111
REMARK INTER + INTRA:         -10.875
REMARK INTER:                  -9.966
REMARK INTRA:                  -0.909
REMARK UNBOUND:                -0.885
REMARK  Name = 
REMARK  8 active torsions:
REMARK  status: ('A' for Active; 'I' for Inactive)
REMARK    1  A    between atoms: N_1  and  C_2
REMARK    2  A    between atoms: C_2  and  C_3
REMARK    3  A    between atoms: C_2  and  C_10
REMARK    4  A    between atoms: C_3  and  C_4
REMARK    5  A    between atoms: C_13  and  C_14
REMARK    6  A    between atoms: C_14  and  N_15
REMARK    7  A    between atoms: N_15  and  C_16
REMARK    8  A    between atoms: C_16  and  C_17
REMARK                            x       y       z     vdW  Elec       q    Type
REMARK                         _______ _______ _______ _____ _____    ______ ____
ROOT
ATOM      1  C   UNL     1      45.149   4.190  11.549  0.00  0.00    +0.000 A 
ATOM      2  C   UNL     1      45.318   5.470  10.986  0.00  0.00    +0.000 A 
ATOM      3  C   UNL     1      46.050   6.463  11.635  0.00  0.00    +0.000 A 
ATOM      4  C   UNL     1      46.605   6.227  12.894  0.00  0.00    +0.000 A 
ATOM      5  C   UNL     1      46.381   4.987  13.502  0.00  0.00    +0.000 A 
ATOM      6  C   UNL     1      45.661   3.983  12.839  0.00  0.00    +0.000 A 
ENDROOT
BRANCH   1   7
ATOM      7  C   UNL     1      44.387   3.122  10.765  0.00  0.00    +0.000 C 
BRANCH   7   8
ATOM      8  N   UNL     1      43.017   2.986  11.302  0.00  0.00    +0.000 NA
ATOM      9  H   UNL     1      43.012   3.091  12.314  0.00  0.00    +0.000 HD
ATOM     10  H   UNL     1      42.673   2.049  11.097  0.00  0.00    +0.000 HD
ENDBRANCH   7   8
BRANCH   7  11
ATOM     11  C   UNL     1      44.323   3.366   9.230  0.00  0.00    +0.000 C 
BRANCH  11  12
ATOM     12  C   UNL     1      45.448   2.741   8.456  0.00  0.00    +0.000 A 
ATOM     13  C   UNL     1      46.297   3.474   7.648  0.00  0.00    +0.000 A 
ATOM     14  N   UNL     1      47.314   2.940   6.950  0.00  0.00    +0.000 NA
ATOM     15  C   UNL     1      47.486   1.614   7.087  0.00  0.00    +0.000 A 
ATOM     16  N   UNL     1      46.735   0.801   7.842  0.00  0.00    +0.000 NA
ATOM     17  C   UNL     1      45.733   1.387   8.516  0.00  0.00    +0.000 A 
ENDBRANCH  11  12
ENDBRANCH   7  11
ENDBRANCH   1   7
BRANCH   4  18
ATOM     18  C   UNL     1      47.440   7.287  13.568  0.00  0.00    +0.000 C 
BRANCH  18  19
ATOM     19  N   UNL     1      46.717   8.549  13.638  0.00  0.00    +0.000 NA
ATOM     20  H   UNL     1      46.782   8.916  14.588  0.00  0.00    +0.000 HD
BRANCH  19  21
ATOM     21  C   UNL     1      47.285   9.543  12.723  0.00  0.00    +0.000 C 
BRANCH  21  22
ATOM     22  C   UNL     1      46.196  10.349  12.042  0.00  0.00    +0.000 A 
ATOM     23  C   UNL     1      44.870   9.919  12.101  0.00  0.00    +0.000 A 
ATOM     24  C   UNL     1      43.880  10.700  11.515  0.00  0.00    +0.000 A 
ATOM     25  C   UNL     1      44.238  11.883  10.880  0.00  0.00    +0.000 A 
ATOM     26  C   UNL     1      45.577  12.236  10.859  0.00  0.00    +0.000 A 
ATOM     27  N   UNL     1      46.561  11.501  11.425  0.00  0.00    +0.000 NA
ENDBRANCH  21  22
ENDBRANCH  19  21
ENDBRANCH  18  19
ENDBRANCH   4  18
TORSDOF 8
ENDMDL
MODEL 7
REMARK VINA RESULT:    -6.868      1.509      2.106
REMARK INTER + INTRA:         -10.764
REMARK INTER:                 -10.084
REMARK INTRA:                  -0.680
REMARK UNBOUND:                -0.885
REMARK  Name = 
REMARK  8 active torsions:
REMARK  status: ('A' for Active; 'I' for Inactive)
REMARK    1  A    between atoms: N_1  and  C_2
REMARK    2  A    between atoms: C_2  and  C_3
REMARK    3  A    between atoms: C_2  and  C_10
REMARK    4  A    between atoms: C_3  and  C_4
REMARK    5  A    between atoms: C_13  and  C_14
REMARK    6  A    between atoms: C_14  and  N_15
REMARK    7  A    between atoms: N_15  and  C_16
REMARK    8  A    between atoms: C_16  and  C_17
REMARK                            x       y       z     vdW  Elec       q    Type
REMARK                         _______ _______ _______ _____ _____    ______ ____
ROOT
ATOM      1  C   UNL     1      45.236   4.257  11.626  0.00  0.00    +0.000 A 
ATOM      2  C   UNL     1      45.802   3.633  12.753  0.00  0.00    +0.000 A 
ATOM      3  C   UNL     1      46.697   4.303  13.587  0.00  0.00    +0.000 A 
ATOM      4  C   UNL     1      47.093   5.610  13.298  0.00  0.00    +0.000 A 
ATOM      5  C   UNL     1      46.600   6.217  12.137  0.00  0.00    +0.000 A 
ATOM      6  C   UNL     1      45.686   5.548  11.311  0.00  0.00    +0.000 A 
ENDROOT
BRANCH   1   7
ATOM      7  C   UNL     1      44.214   3.494  10.782  0.00  0.00    +0.000 C 
BRANCH   7   8
ATOM      8  N   UNL     1      42.848   3.778  11.268  0.00  0.00    +0.000 NA
ATOM      9  H   UNL     1      42.599   4.751  11.102  0.00  0.00    +0.000 HD
ATOM     10  H   UNL     1      42.817   3.630  12.276  0.00  0.00    +0.000 HD
ENDBRANCH   7   8
BRANCH   7  11
ATOM     11  C   UNL     1      44.293   3.777   9.254  0.00  0.00    +0.000 C 
BRANCH  11  12
ATOM     12  C   UNL     1      45.346   2.986   8.532  0.00  0.00    +0.000 A 
ATOM     13  C   UNL     1      45.510   1.625   8.705  0.00  0.00    +0.000 A 
ATOM     14  N   UNL     1      46.441   0.895   8.067  0.00  0.00    +0.000 NA
ATOM     15  C   UNL     1      47.226   1.568   7.210  0.00  0.00    +0.000 A 
ATOM     16  N   UNL     1      47.161   2.881   6.953  0.00  0.00    +0.000 NA
ATOM     17  C   UNL     1      46.215   3.562   7.619  0.00  0.00    +0.000 A 
ENDBRANCH  11  12
ENDBRANCH   7  11
ENDBRANCH   1   7
BRANCH   4  18
ATOM     18  C   UNL     1      48.020   6.348  14.231  0.00  0.00    +0.000 C 
BRANCH  18  19
ATOM     19  N   UNL     1      47.891   5.846  15.592  0.00  0.00    +0.000 NA
ATOM     20  H   UNL     1      48.103   4.848  15.598  0.00  0.00    +0.000 HD
BRANCH  19  21
ATOM     21  C   UNL     1      48.823   6.519  16.502  0.00  0.00    +0.000 C 
BRANCH  21  22
ATOM     22  C   UNL     1      48.646   6.035  17.927  0.00  0.00    +0.000 A 
ATOM     23  C   UNL     1      48.857   4.691  18.238  0.00  0.00    +0.000 A 
ATOM     24  C   UNL     1      48.740   4.278  19.561  0.00  0.00    +0.000 A 
ATOM     25  C   UNL     1      48.411   5.211  20.536  0.00  0.00    +0.000 A 
ATOM     26  C   UNL     1      48.211   6.525  20.144  0.00  0.00    +0.000 A 
ATOM     27  N   UNL     1      48.323   6.957  18.868  0.00  0.00    +0.000 NA
ENDBRANCH  21  22
ENDBRANCH  19  21
ENDBRANCH  18  19
ENDBRANCH   4  18
TORSDOF 8
ENDMDL
MODEL 8
REMARK VINA RESULT:    -6.718      3.314      7.737
REMARK INTER + INTRA:         -10.549
REMARK INTER:                  -9.875
REMARK INTRA:                  -0.674
REMARK UNBOUND:                -0.885
REMARK  Name = 
REMARK  8 active torsions:
REMARK  status: ('A' for Active; 'I' for Inactive)
REMARK    1  A    between atoms: N_1  and  C_2
REMARK    2  A    between atoms: C_2  and  C_3
REMARK    3  A    between atoms: C_2  and  C_10
REMARK    4  A    between atoms: C_3  and  C_4
REMARK    5  A    between atoms: C_13  and  C_14
REMARK    6  A    between atoms: C_14  and  N_15
REMARK    7  A    between atoms: N_15  and  C_16
REMARK    8  A    between atoms: C_16  and  C_17
REMARK                            x       y       z     vdW  Elec       q    Type
REMARK                         _______ _______ _______ _____ _____    ______ ____
ROOT
ATOM      1  C   UNL     1      45.524   6.968  12.146  0.00  0.00    +0.000 A 
ATOM      2  C   UNL     1      44.228   6.878  11.604  0.00  0.00    +0.000 A 
ATOM      3  C   UNL     1      43.618   5.647  11.368  0.00  0.00    +0.000 A 
ATOM      4  C   UNL     1      44.301   4.456  11.623  0.00  0.00    +0.000 A 
ATOM      5  C   UNL     1      45.620   4.528  12.088  0.00  0.00    +0.000 A 
ATOM      6  C   UNL     1      46.223   5.768  12.343  0.00  0.00    +0.000 A 
ENDROOT
BRANCH   1   7
ATOM      7  C   UNL     1      46.118   8.346  12.439  0.00  0.00    +0.000 C 
BRANCH   7   8
ATOM      8  N   UNL     1      45.057   9.262  12.905  0.00  0.00    +0.000 NA
ATOM      9  H   UNL     1      44.444   9.528  12.138  0.00  0.00    +0.000 HD
ATOM     10  H   UNL     1      45.488  10.119  13.252  0.00  0.00    +0.000 HD
ENDBRANCH   7   8
BRANCH   7  11
ATOM     11  C   UNL     1      47.289   8.342  13.463  0.00  0.00    +0.000 C 
BRANCH  11  12
ATOM     12  C   UNL     1      48.637   8.629  12.864  0.00  0.00    +0.000 A 
ATOM     13  C   UNL     1      49.241   7.790  11.947  0.00  0.00    +0.000 A 
ATOM     14  N   UNL     1      50.443   8.027  11.393  0.00  0.00    +0.000 NA
ATOM     15  C   UNL     1      51.048   9.164  11.773  0.00  0.00    +0.000 A 
ATOM     16  N   UNL     1      50.563  10.057  12.647  0.00  0.00    +0.000 NA
ATOM     17  C   UNL     1      49.361   9.769  13.171  0.00  0.00    +0.000 A 
ENDBRANCH  11  12
ENDBRANCH   7  11
ENDBRANCH   1   7
BRANCH   4  18
ATOM     18  C   UNL     1      43.619   3.128  11.415  0.00  0.00    +0.000 C 
BRANCH  18  19
ATOM     19  N   UNL     1      44.299   2.351  10.388  0.00  0.00    +0.000 NA
ATOM     20  H   UNL     1      43.767   1.499  10.211  0.00  0.00    +0.000 HD
BRANCH  19  21
ATOM     21  C   UNL     1      44.402   3.099   9.131  0.00  0.00    +0.000 C 
BRANCH  21  22
ATOM     22  C   UNL     1      45.535   2.575   8.271  0.00  0.00    +0.000 A 
ATOM     23  C   UNL     1      46.200   3.435   7.396  0.00  0.00    +0.000 A 
ATOM     24  C   UNL     1      47.271   2.947   6.654  0.00  0.00    +0.000 A 
ATOM     25  C   UNL     1      47.646   1.617   6.800  0.00  0.00    +0.000 A 
ATOM     26  C   UNL     1      46.930   0.828   7.685  0.00  0.00    +0.000 A 
ATOM     27  N   UNL     1      45.889   1.274   8.423  0.00  0.00    +0.000 NA
ENDBRANCH  21  22
ENDBRANCH  19  21
ENDBRANCH  18  19
ENDBRANCH   4  18
TORSDOF 8
ENDMDL
MODEL 9
REMARK VINA RESULT:    -6.678      1.507      8.274
REMARK INTER + INTRA:         -10.492
REMARK INTER:                  -9.771
REMARK INTRA:                  -0.720
REMARK UNBOUND:                -0.885
REMARK  Name = 
REMARK  8 active torsions:
REMARK  status: ('A' for Active; 'I' for Inactive)
REMARK    1  A    between atoms: N_1  and  C_2
REMARK    2  A    between atoms: C_2  and  C_3
REMARK    3  A    between atoms: C_2  and  C_10
REMARK    4  A    between atoms: C_3  and  C_4
REMARK    5  A    between atoms: C_13  and  C_14
REMARK    6  A    between atoms: C_14  and  N_15
REMARK    7  A    between atoms: N_15  and  C_16
REMARK    8  A    between atoms: C_16  and  C_17
REMARK                            x       y       z     vdW  Elec       q    Type
REMARK                         _______ _______ _______ _____ _____    ______ ____
ROOT
ATOM      1  C   UNL     1      47.905   5.706  15.155  0.00  0.00    +0.000 A 
ATOM      2  C   UNL     1      48.067   6.633  14.108  0.00  0.00    +0.000 A 
ATOM      3  C   UNL     1      47.297   6.567  12.948  0.00  0.00    +0.000 A 
ATOM      4  C   UNL     1      46.364   5.543  12.772  0.00  0.00    +0.000 A 
ATOM      5  C   UNL     1      46.246   4.568  13.769  0.00  0.00    +0.000 A 
ATOM      6  C   UNL     1      47.008   4.648  14.943  0.00  0.00    +0.000 A 
ENDROOT
BRANCH   1   7
ATOM      7  C   UNL     1      48.735   5.863  16.429  0.00  0.00    +0.000 C 
BRANCH   7   8
ATOM      8  N   UNL     1      48.429   7.157  17.073  0.00  0.00    +0.000 NA
ATOM      9  H   UNL     1      48.078   7.828  16.392  0.00  0.00    +0.000 HD
ATOM     10  H   UNL     1      49.287   7.546  17.460  0.00  0.00    +0.000 HD
ENDBRANCH   7   8
BRANCH   7  11
ATOM     11  C   UNL     1      48.562   4.713  17.463  0.00  0.00    +0.000 C 
BRANCH  11  12
ATOM     12  C   UNL     1      49.667   3.697  17.449  0.00  0.00    +0.000 A 
ATOM     13  C   UNL     1      49.488   2.403  16.998  0.00  0.00    +0.000 A 
ATOM     14  N   UNL     1      50.462   1.477  16.971  0.00  0.00    +0.000 NA
ATOM     15  C   UNL     1      51.667   1.883  17.406  0.00  0.00    +0.000 A 
ATOM     16  N   UNL     1      51.965   3.107  17.861  0.00  0.00    +0.000 NA
ATOM     17  C   UNL     1      50.955   3.991  17.867  0.00  0.00    +0.000 A 
ENDBRANCH  11  12
ENDBRANCH   7  11
ENDBRANCH   1   7
BRANCH   4  18
ATOM     18  C   UNL     1      45.497   5.507  11.539  0.00  0.00    +0.000 C 
BRANCH  18  19
ATOM     19  N   UNL     1      44.977   4.166  11.311  0.00  0.00    +0.000 NA
ATOM     20  H   UNL     1      44.301   3.944  12.042  0.00  0.00    +0.000 HD
BRANCH  19  21
ATOM     21  C   UNL     1      44.300   4.067  10.014  0.00  0.00    +0.000 C 
BRANCH  21  22
ATOM     22  C   UNL     1      45.167   3.355   8.995  0.00  0.00    +0.000 A 
ATOM     23  C   UNL     1      45.823   4.087   8.005  0.00  0.00    +0.000 A 
ATOM     24  C   UNL     1      46.655   3.420   7.111  0.00  0.00    +0.000 A 
ATOM     25  C   UNL     1      46.804   2.044   7.223  0.00  0.00    +0.000 A 
ATOM     26  C   UNL     1      46.112   1.389   8.229  0.00  0.00    +0.000 A 
ATOM     27  N   UNL     1      45.302   2.010   9.115  0.00  0.00    +0.000 NA
ENDBRANCH  21  22
ENDBRANCH  19  21
ENDBRANCH  18  19
ENDBRANCH   4  18
TORSDOF 8
ENDMDL
