MODEL 1
REMARK VINA RESULT:    -9.297      0.000      0.000
REMARK INTER + INTRA:         -14.705
REMARK INTER:                 -13.645
REMARK INTRA:                  -1.060
REMARK UNBOUND:                -1.060
REMARK  Name = 
REMARK  9 active torsions:
REMARK  status: ('A' for Active; 'I' for Inactive)
REMARK    1  A    between atoms: C_1  and  C_2
REMARK    2  A    between atoms: C_2  and  C_20
REMARK    3  A    between atoms: C_3  and  C_4
REMARK    4  A    between atoms: C_4  and  N_5
REMARK    5  A    between atoms: C_8  and  C_9
REMARK    6  A    between atoms: C_9  and  N_10
REMARK    7  A    between atoms: N_10  and  C_11
REMARK    8  A    between atoms: C_11  and  C_12
REMARK    9  A    between atoms: C_20  and  C_22
REMARK                            x       y       z     vdW  Elec       q    Type
REMARK                         _______ _______ _______ _____ _____    ______ ____
ROOT
ATOM      1  C   UNL     1      46.824   4.595  13.822  0.00  0.00    +0.000 C 
ENDROOT
BRANCH   1   2
ATOM      2  N   UNL     1      45.433   4.259  13.472  0.00  0.00    +0.000 NA
ATOM      3  C   UNL     1      44.624   5.465  13.231  0.00  0.00    +0.000 C 
ATOM      4  C   UNL     1      43.201   5.122  12.792  0.00  0.00    +0.000 C 
ATOM      5  C   UNL     1      43.182   4.224  11.553  0.00  0.00    +0.000 C 
ATOM      6  C   UNL     1      44.042   2.987  11.840  0.00  0.00    +0.000 C 
ATOM      7  C   UNL     1      45.449   3.371  12.293  0.00  0.00    +0.000 C 
BRANCH   5   8
ATOM      8  C   UNL     1      43.631   4.995  10.288  0.00  0.00    +0.000 C 
BRANCH   8   9
ATOM      9  N   UNL     1      43.943   4.147   9.132  0.00  0.00    +0.000 NA
ATOM     10  H   UNL     1      43.218   4.234   8.421  0.00  0.00    +0.000 HD
BRANCH   9  11
ATOM     11  C   UNL     1      45.242   4.468   8.539  0.00  0.00    +0.000 C 
BRANCH  11  12
ATOM     12  C   UNL     1      45.933   3.235   8.036  0.00  0.00    +0.000 A 
ATOM     13  C   UNL     1      46.819   3.282   6.957  0.00  0.00    +0.000 A 
ATOM     14  C   UNL     1      47.421   2.110   6.514  0.00  0.00    +0.000 A 
ATOM     15  C   UNL     1      47.113   0.928   7.166  0.00  0.00    +0.000 A 
ATOM     16  N   UNL     1      46.264   0.841   8.211  0.00  0.00    +0.000 NA
ATOM     17  C   UNL     1      45.694   1.995   8.622  0.00  0.00    +0.000 A 
ENDBRANCH  11  12
ENDBRANCH   9  11
ENDBRANCH   8   9
ENDBRANCH   5   8
ENDBRANCH   1   2
BRANCH   1  20
ATOM     18  C   UNL     1      48.688   6.230  15.682  0.00  0.00    +0.000 C 
ATOM     19  C   UNL     1      47.983   4.954  16.073  0.00  0.00    +0.000 C 
ATOM     20  C   UNL     1      47.172   4.256  15.243  0.00  0.00    +0.000 C 
BRANCH  19  21
ATOM     21  C   UNL     1      48.311   4.529  17.495  0.00  0.00    +0.000 C 
ATOM     22  O   UNL     1      47.397   4.283  18.271  0.00  0.00    +0.000 OA
BRANCH  21  23
ATOM     23  C   UNL     1      49.724   4.373  17.863  0.00  0.00    +0.000 A 
ATOM     24  C   UNL     1      50.475   5.367  18.473  0.00  0.00    +0.000 A 
ATOM     25  S   UNL     1      52.068   4.889  18.845  0.00  0.00    +0.000 S 
ATOM     26  C   UNL     1      51.835   3.362  18.128  0.00  0.00    +0.000 A 
ATOM     27  N   UNL     1      52.834   2.441  18.128  0.00  0.00    +0.000 NA
ATOM     28  C   UNL     1      52.529   1.329  17.546  0.00  0.00    +0.000 A 
ATOM     29  N   UNL     1      51.323   1.065  16.953  0.00  0.00    +0.000 N 
ATOM     30  C   UNL     1      50.291   1.978  16.895  0.00  0.00    +0.000 A 
ATOM     31  O   UNL     1      49.260   1.702  16.295  0.00  0.00    +0.000 OA
ATOM     32  C   UNL     1      50.567   3.228  17.588  0.00  0.00    +0.000 A 
ATOM     33  H   UNL     1      51.155   0.187  16.484  0.00  0.00    +0.000 HD
ENDBRANCH  21  23
ENDBRANCH  19  21
ENDBRANCH   1  20
TORSDOF 8
ENDMDL
MODEL 2
REMARK VINA RESULT:    -8.184      2.060      2.311
REMARK INTER + INTRA:         -13.071
REMARK INTER:                 -12.112
REMARK INTRA:                  -0.960
REMARK UNBOUND:                -1.060
REMARK  Name = 
REMARK  9 active torsions:
REMARK  status: ('A' for Active; 'I' for Inactive)
REMARK    1  A    between atoms: C_1  and  C_2
REMARK    2  A    between atoms: C_2  and  C_20
REMARK    3  A    between atoms: C_3  and  C_4
REMARK    4  A    between atoms: C_4  and  N_5
REMARK    5  A    between atoms: C_8  and  C_9
REMARK    6  A    between atoms: C_9  and  N_10
REMARK    7  A    between atoms: N_10  and  C_11
REMARK    8  A    between atoms: C_11  and  C_12
REMARK    9  A    between atoms: C_20  and  C_22
REMARK                            x       y       z     vdW  Elec       q    Type
REMARK                         _______ _______ _______ _____ _____    ______ ____
ROOT
ATOM      1  C   UNL     1      46.688   3.866  13.791  0.00  0.00    +0.000 C 
ENDROOT
BRANCH   1   2
ATOM      2  N   UNL     1      45.269   3.798  13.404  0.00  0.00    +0.000 NA
ATOM      3  C   UNL     1      44.681   5.139  13.243  0.00  0.00    +0.000 C 
ATOM      4  C   UNL     1      43.231   5.075  12.768  0.00  0.00    +0.000 C 
ATOM      5  C   UNL     1      43.086   4.283  11.466  0.00  0.00    +0.000 C 
ATOM      6  C   UNL     1      43.717   2.900  11.671  0.00  0.00    +0.000 C 
ATOM      7  C   UNL     1      45.159   3.005  12.164  0.00  0.00    +0.000 C 
BRANCH   5   8
ATOM      8  C   UNL     1      43.688   5.052  10.265  0.00  0.00    +0.000 C 
BRANCH   8   9
ATOM      9  N   UNL     1      43.996   4.220   9.097  0.00  0.00    +0.000 NA
ATOM     10  H   UNL     1      43.302   4.362   8.365  0.00  0.00    +0.000 HD
BRANCH   9  11
ATOM     11  C   UNL     1      45.330   4.488   8.558  0.00  0.00    +0.000 C 
BRANCH  11  12
ATOM     12  C   UNL     1      45.977   3.234   8.049  0.00  0.00    +0.000 A 
ATOM     13  C   UNL     1      46.881   3.258   6.984  0.00  0.00    +0.000 A 
ATOM     14  C   UNL     1      47.440   2.067   6.535  0.00  0.00    +0.000 A 
ATOM     15  C   UNL     1      47.074   0.891   7.167  0.00  0.00    +0.000 A 
ATOM     16  N   UNL     1      46.207   0.826   8.199  0.00  0.00    +0.000 NA
ATOM     17  C   UNL     1      45.679   1.998   8.616  0.00  0.00    +0.000 A 
ENDBRANCH  11  12
ENDBRANCH   9  11
ENDBRANCH   8   9
ENDBRANCH   5   8
ENDBRANCH   1   2
BRANCH   1  20
ATOM     18  C   UNL     1      48.124   2.758  16.304  0.00  0.00    +0.000 C 
ATOM     19  C   UNL     1      47.537   4.143  16.187  0.00  0.00    +0.000 C 
ATOM     20  C   UNL     1      46.913   4.607  15.078  0.00  0.00    +0.000 C 
BRANCH  19  21
ATOM     21  C   UNL     1      47.701   4.946  17.467  0.00  0.00    +0.000 C 
ATOM     22  O   UNL     1      46.745   5.069  18.222  0.00  0.00    +0.000 OA
BRANCH  21  23
ATOM     23  C   UNL     1      49.027   5.497  17.775  0.00  0.00    +0.000 A 
ATOM     24  C   UNL     1      49.789   6.223  16.872  0.00  0.00    +0.000 A 
ATOM     25  S   UNL     1      51.257   6.795  17.521  0.00  0.00    +0.000 S 
ATOM     26  C   UNL     1      50.965   6.017  19.008  0.00  0.00    +0.000 A 
ATOM     27  N   UNL     1      51.854   6.129  20.030  0.00  0.00    +0.000 NA
ATOM     28  C   UNL     1      51.516   5.487  21.098  0.00  0.00    +0.000 A 
ATOM     29  N   UNL     1      50.381   4.732  21.227  0.00  0.00    +0.000 N 
ATOM     30  C   UNL     1      49.467   4.558  20.209  0.00  0.00    +0.000 A 
ATOM     31  O   UNL     1      48.504   3.819  20.369  0.00  0.00    +0.000 OA
ATOM     32  C   UNL     1      49.776   5.310  19.002  0.00  0.00    +0.000 A 
ATOM     33  H   UNL     1      50.187   4.225  22.078  0.00  0.00    +0.000 HD
ENDBRANCH  21  23
ENDBRANCH  19  21
ENDBRANCH   1  20
TORSDOF 8
ENDMDL
MODEL 3
REMARK VINA RESULT:    -7.864      2.050      3.028
REMARK INTER + INTRA:         -12.601
REMARK INTER:                 -11.991
REMARK INTRA:                  -0.611
REMARK UNBOUND:                -1.060
REMARK  Name = 
REMARK  9 active torsions:
REMARK  status: ('A' for Active; 'I' for Inactive)
REMARK    1  A    between atoms: C_1  and  C_2
REMARK    2  A    between atoms: C_2  and  C_20
REMARK    3  A    between atoms: C_3  and  C_4
REMARK    4  A    between atoms: C_4  and  N_5
REMARK    5  A    between atoms: C_8  and  C_9
REMARK    6  A    between atoms: C_9  and  N_10
REMARK    7  A    between atoms: N_10  and  C_11
REMARK    8  A    between atoms: C_11  and  C_12
REMARK    9  A    between atoms: C_20  and  C_22
REMARK                            x       y       z     vdW  Elec       q    Type
REMARK                         _______ _______ _______ _____ _____    ______ ____
ROOT
ATOM      1  C   UNL     1      46.731   6.066  13.094  0.00  0.00    +0.000 C 
ENDROOT
BRANCH   1   2
ATOM      2  N   UNL     1      45.415   5.963  12.442  0.00  0.00    +0.000 NA
ATOM      3  C   UNL     1      45.526   5.450  11.066  0.00  0.00    +0.000 C 
ATOM      4  C   UNL     1      44.158   5.268  10.411  0.00  0.00    +0.000 C 
ATOM      5  C   UNL     1      43.241   4.359  11.234  0.00  0.00    +0.000 C 
ATOM      6  C   UNL     1      43.160   4.921  12.658  0.00  0.00    +0.000 C 
ATOM      7  C   UNL     1      44.546   5.106  13.272  0.00  0.00    +0.000 C 
BRANCH   5   8
ATOM      8  C   UNL     1      43.715   2.886  11.188  0.00  0.00    +0.000 C 
BRANCH   8   9
ATOM      9  N   UNL     1      44.948   2.662  10.426  0.00  0.00    +0.000 NA
ATOM     10  H   UNL     1      45.639   2.182  11.000  0.00  0.00    +0.000 HD
BRANCH   9  11
ATOM     11  C   UNL     1      44.716   1.893   9.204  0.00  0.00    +0.000 C 
BRANCH  11  12
ATOM     12  C   UNL     1      45.819   2.100   8.208  0.00  0.00    +0.000 A 
ATOM     13  C   UNL     1      46.031   3.338   7.598  0.00  0.00    +0.000 A 
ATOM     14  C   UNL     1      47.053   3.476   6.667  0.00  0.00    +0.000 A 
ATOM     15  C   UNL     1      47.830   2.368   6.376  0.00  0.00    +0.000 A 
ATOM     16  N   UNL     1      47.659   1.156   6.945  0.00  0.00    +0.000 NA
ATOM     17  C   UNL     1      46.658   1.050   7.847  0.00  0.00    +0.000 A 
ENDBRANCH  11  12
ENDBRANCH   9  11
ENDBRANCH   8   9
ENDBRANCH   5   8
ENDBRANCH   1   2
BRANCH   1  20
ATOM     18  C   UNL     1      48.598   6.426  15.542  0.00  0.00    +0.000 C 
ATOM     19  C   UNL     1      47.717   5.225  15.298  0.00  0.00    +0.000 C 
ATOM     20  C   UNL     1      46.909   5.088  14.220  0.00  0.00    +0.000 C 
BRANCH  19  21
ATOM     21  C   UNL     1      47.866   4.173  16.386  0.00  0.00    +0.000 C 
ATOM     22  O   UNL     1      47.205   3.145  16.317  0.00  0.00    +0.000 OA
BRANCH  21  23
ATOM     23  C   UNL     1      48.848   4.411  17.451  0.00  0.00    +0.000 A 
ATOM     24  C   UNL     1      50.148   3.928  17.422  0.00  0.00    +0.000 A 
ATOM     25  S   UNL     1      51.087   4.411  18.759  0.00  0.00    +0.000 S 
ATOM     26  C   UNL     1      49.762   5.215  19.467  0.00  0.00    +0.000 A 
ATOM     27  N   UNL     1      49.906   5.872  20.648  0.00  0.00    +0.000 NA
ATOM     28  C   UNL     1      48.825   6.433  21.077  0.00  0.00    +0.000 A 
ATOM     29  N   UNL     1      47.613   6.379  20.440  0.00  0.00    +0.000 N 
ATOM     30  C   UNL     1      47.408   5.696  19.260  0.00  0.00    +0.000 A 
ATOM     31  O   UNL     1      46.285   5.634  18.774  0.00  0.00    +0.000 OA
ATOM     32  C   UNL     1      48.612   5.095  18.706  0.00  0.00    +0.000 A 
ATOM     33  H   UNL     1      46.795   6.810  20.843  0.00  0.00    +0.000 HD
ENDBRANCH  21  23
ENDBRANCH  19  21
ENDBRANCH   1  20
TORSDOF 8
ENDMDL
MODEL 4
REMARK VINA RESULT:    -7.713      2.119      2.763
REMARK INTER + INTRA:         -12.380
REMARK INTER:                 -11.431
REMARK INTRA:                  -0.948
REMARK UNBOUND:                -1.060
REMARK  Name = 
REMARK  9 active torsions:
REMARK  status: ('A' for Active; 'I' for Inactive)
REMARK    1  A    between atoms: C_1  and  C_2
REMARK    2  A    between atoms: C_2  and  C_20
REMARK    3  A    between atoms: C_3  and  C_4
REMARK    4  A    between atoms: C_4  and  N_5
REMARK    5  A    between atoms: C_8  and  C_9
REMARK    6  A    between atoms: C_9  and  N_10
REMARK    7  A    between atoms: N_10  and  C_11
REMARK    8  A    between atoms: C_11  and  C_12
REMARK    9  A    between atoms: C_20  and  C_22
REMARK                            x       y       z     vdW  Elec       q    Type
REMARK                         _______ _______ _______ _____ _____    ______ ____
ROOT
ATOM      1  C   UNL     1      46.766   3.780  14.067  0.00  0.00    +0.000 C 
ENDROOT
BRANCH   1   2
ATOM      2  N   UNL     1      45.576   4.384  13.444  0.00  0.00    +0.000 NA
ATOM      3  C   UNL     1      45.925   5.553  12.619  0.00  0.00    +0.000 C 
ATOM      4  C   UNL     1      44.705   6.137  11.909  0.00  0.00    +0.000 C 
ATOM      5  C   UNL     1      43.982   5.094  11.055  0.00  0.00    +0.000 C 
ATOM      6  C   UNL     1      43.645   3.892  11.945  0.00  0.00    +0.000 C 
ATOM      7  C   UNL     1      44.885   3.348  12.652  0.00  0.00    +0.000 C 
BRANCH   5   8
ATOM      8  C   UNL     1      44.812   4.710   9.806  0.00  0.00    +0.000 C 
BRANCH   8   9
ATOM      9  N   UNL     1      44.212   3.665   8.969  0.00  0.00    +0.000 NA
ATOM     10  H   UNL     1      44.130   3.984   8.005  0.00  0.00    +0.000 HD
BRANCH   9  11
ATOM     11  C   UNL     1      44.975   2.418   9.002  0.00  0.00    +0.000 C 
BRANCH  11  12
ATOM     12  C   UNL     1      45.972   2.356   7.883  0.00  0.00    +0.000 A 
ATOM     13  C   UNL     1      46.096   3.393   6.956  0.00  0.00    +0.000 A 
ATOM     14  C   UNL     1      47.021   3.281   5.924  0.00  0.00    +0.000 A 
ATOM     15  C   UNL     1      47.791   2.133   5.854  0.00  0.00    +0.000 A 
ATOM     16  N   UNL     1      47.703   1.110   6.731  0.00  0.00    +0.000 NA
ATOM     17  C   UNL     1      46.796   1.245   7.724  0.00  0.00    +0.000 A 
ENDBRANCH  11  12
ENDBRANCH   9  11
ENDBRANCH   8   9
ENDBRANCH   5   8
ENDBRANCH   1   2
BRANCH   1  20
ATOM     18  C   UNL     1      47.628   2.911  16.914  0.00  0.00    +0.000 C 
ATOM     19  C   UNL     1      47.783   4.303  16.354  0.00  0.00    +0.000 C 
ATOM     20  C   UNL     1      47.399   4.661  15.106  0.00  0.00    +0.000 C 
BRANCH  19  21
ATOM     21  C   UNL     1      48.393   5.264  17.362  0.00  0.00    +0.000 C 
ATOM     22  O   UNL     1      47.654   5.923  18.081  0.00  0.00    +0.000 OA
BRANCH  21  23
ATOM     23  C   UNL     1      49.856   5.318  17.471  0.00  0.00    +0.000 A 
ATOM     24  C   UNL     1      50.584   4.614  18.419  0.00  0.00    +0.000 A 
ATOM     25  S   UNL     1      52.270   4.814  18.272  0.00  0.00    +0.000 S 
ATOM     26  C   UNL     1      52.082   5.917  16.989  0.00  0.00    +0.000 A 
ATOM     27  N   UNL     1      53.170   6.461  16.383  0.00  0.00    +0.000 NA
ATOM     28  C   UNL     1      52.889   7.286  15.430  0.00  0.00    +0.000 A 
ATOM     29  N   UNL     1      51.619   7.626  15.043  0.00  0.00    +0.000 N 
ATOM     30  C   UNL     1      50.485   7.129  15.648  0.00  0.00    +0.000 A 
ATOM     31  O   UNL     1      49.379   7.521  15.296  0.00  0.00    +0.000 OA
ATOM     32  C   UNL     1      50.750   6.150  16.692  0.00  0.00    +0.000 A 
ATOM     33  H   UNL     1      51.463   8.303  14.312  0.00  0.00    +0.000 HD
ENDBRANCH  21  23
ENDBRANCH  19  21
ENDBRANCH   1  20
TORSDOF 8
ENDMDL
MODEL 5
REMARK VINA RESULT:    -7.583      2.834      3.693
REMARK INTER + INTRA:         -12.190
REMARK INTER:                 -11.165
REMARK INTRA:                  -1.025
REMARK UNBOUND:                -1.060
REMARK  Name = 
REMARK  9 active torsions:
REMARK  status: ('A' for Active; 'I' for Inactive)
REMARK    1  A    between atoms: C_1  and  C_2
REMARK    2  A    between atoms: C_2  and  C_20
REMARK    3  A    between atoms: C_3  and  C_4
REMARK    4  A    between atoms: C_4  and  N_5
REMARK    5  A    between atoms: C_8  and  C_9
REMARK    6  A    between atoms: C_9  and  N_10
REMARK    7  A    between atoms: N_10  and  C_11
REMARK    8  A    between atoms: C_11  and  C_12
REMARK    9  A    between atoms: C_20  and  C_22
REMARK                            x       y       z     vdW  Elec       q    Type
REMARK                         _______ _______ _______ _____ _____    ______ ____
ROOT
ATOM      1  C   UNL     1      46.252   4.322  14.276  0.00  0.00    +0.000 C 
ENDROOT
BRANCH   1   2
ATOM      2  N   UNL     1      45.591   5.204  13.298  0.00  0.00    +0.000 NA
ATOM      3  C   UNL     1      46.156   5.043  11.948  0.00  0.00    +0.000 C 
ATOM      4  C   UNL     1      45.424   5.899  10.916  0.00  0.00    +0.000 C 
ATOM      5  C   UNL     1      43.921   5.611  10.891  0.00  0.00    +0.000 C 
ATOM      6  C   UNL     1      43.374   5.780  12.314  0.00  0.00    +0.000 C 
ATOM      7  C   UNL     1      44.143   4.924  13.318  0.00  0.00    +0.000 C 
BRANCH   5   8
ATOM      8  C   UNL     1      43.621   4.218  10.287  0.00  0.00    +0.000 C 
BRANCH   8   9
ATOM      9  N   UNL     1      44.282   3.950   9.005  0.00  0.00    +0.000 NA
ATOM     10  H   UNL     1      45.056   4.597   8.862  0.00  0.00    +0.000 HD
BRANCH   9  11
ATOM     11  C   UNL     1      44.777   2.576   8.909  0.00  0.00    +0.000 C 
BRANCH  11  12
ATOM     12  C   UNL     1      45.852   2.452   7.870  0.00  0.00    +0.000 A 
ATOM     13  C   UNL     1      46.028   3.422   6.880  0.00  0.00    +0.000 A 
ATOM     14  C   UNL     1      47.026   3.254   5.928  0.00  0.00    +0.000 A 
ATOM     15  C   UNL     1      47.814   2.118   5.997  0.00  0.00    +0.000 A 
ATOM     16  N   UNL     1      47.678   1.160   6.938  0.00  0.00    +0.000 NA
ATOM     17  C   UNL     1      46.701   1.349   7.852  0.00  0.00    +0.000 A 
ENDBRANCH  11  12
ENDBRANCH   9  11
ENDBRANCH   8   9
ENDBRANCH   5   8
ENDBRANCH   1   2
BRANCH   1  20
ATOM     18  C   UNL     1      47.350   3.466  17.045  0.00  0.00    +0.000 C 
ATOM     19  C   UNL     1      47.842   4.651  16.250  0.00  0.00    +0.000 C 
ATOM     20  C   UNL     1      47.348   5.007  15.041  0.00  0.00    +0.000 C 
BRANCH  19  21
ATOM     21  C   UNL     1      48.937   5.415  16.977  0.00  0.00    +0.000 C 
ATOM     22  O   UNL     1      50.107   5.106  16.789  0.00  0.00    +0.000 OA
BRANCH  21  23
ATOM     23  C   UNL     1      48.545   6.538  17.837  0.00  0.00    +0.000 A 
ATOM     24  C   UNL     1      48.445   7.849  17.394  0.00  0.00    +0.000 A 
ATOM     25  S   UNL     1      47.907   8.936  18.591  0.00  0.00    +0.000 S 
ATOM     26  C   UNL     1      47.871   7.706  19.768  0.00  0.00    +0.000 A 
ATOM     27  N   UNL     1      47.467   7.978  21.037  0.00  0.00    +0.000 NA
ATOM     28  C   UNL     1      47.493   6.959  21.831  0.00  0.00    +0.000 A 
ATOM     29  N   UNL     1      47.901   5.702  21.473  0.00  0.00    +0.000 N 
ATOM     30  C   UNL     1      48.352   5.384  20.209  0.00  0.00    +0.000 A 
ATOM     31  O   UNL     1      48.763   4.255  19.970  0.00  0.00    +0.000 OA
ATOM     32  C   UNL     1      48.288   6.487  19.262  0.00  0.00    +0.000 A 
ATOM     33  H   UNL     1      47.930   4.953  22.148  0.00  0.00    +0.000 HD
ENDBRANCH  21  23
ENDBRANCH  19  21
ENDBRANCH   1  20
TORSDOF 8
ENDMDL
MODEL 6
REMARK VINA RESULT:    -7.524      3.035      4.068
REMARK INTER + INTRA:         -12.102
REMARK INTER:                 -11.016
REMARK INTRA:                  -1.087
REMARK UNBOUND:                -1.060
REMARK  Name = 
REMARK  9 active torsions:
REMARK  status: ('A' for Active; 'I' for Inactive)
REMARK    1  A    between atoms: C_1  and  C_2
REMARK    2  A    between atoms: C_2  and  C_20
REMARK    3  A    between atoms: C_3  and  C_4
REMARK    4  A    between atoms: C_4  and  N_5
REMARK    5  A    between atoms: C_8  and  C_9
REMARK    6  A    between atoms: C_9  and  N_10
REMARK    7  A    between atoms: N_10  and  C_11
REMARK    8  A    between atoms: C_11  and  C_12
REMARK    9  A    between atoms: C_20  and  C_22
REMARK                            x       y       z     vdW  Elec       q    Type
REMARK                         _______ _______ _______ _____ _____    ______ ____
ROOT
ATOM      1  C   UNL     1      46.869   4.332  14.700  0.00  0.00    +0.000 C 
ENDROOT
BRANCH   1   2
ATOM      2  N   UNL     1      46.147   5.323  13.885  0.00  0.00    +0.000 NA
ATOM      3  C   UNL     1      47.020   5.937  12.870  0.00  0.00    +0.000 C 
ATOM      4  C   UNL     1      46.257   6.910  11.973  0.00  0.00    +0.000 C 
ATOM      5  C   UNL     1      45.055   6.247  11.295  0.00  0.00    +0.000 C 
ATOM      6  C   UNL     1      44.179   5.613  12.382  0.00  0.00    +0.000 C 
ATOM      7  C   UNL     1      44.980   4.663  13.270  0.00  0.00    +0.000 C 
BRANCH   5   8
ATOM      8  C   UNL     1      45.502   5.237  10.211  0.00  0.00    +0.000 C 
BRANCH   8   9
ATOM      9  N   UNL     1      44.486   4.247   9.840  0.00  0.00    +0.000 NA
ATOM     10  H   UNL     1      43.568   4.536  10.174  0.00  0.00    +0.000 HD
BRANCH   9  11
ATOM     11  C   UNL     1      44.426   4.024   8.395  0.00  0.00    +0.000 C 
BRANCH  11  12
ATOM     12  C   UNL     1      45.512   3.096   7.938  0.00  0.00    +0.000 A 
ATOM     13  C   UNL     1      46.432   3.473   6.957  0.00  0.00    +0.000 A 
ATOM     14  C   UNL     1      47.409   2.571   6.552  0.00  0.00    +0.000 A 
ATOM     15  C   UNL     1      47.431   1.319   7.143  0.00  0.00    +0.000 A 
ATOM     16  N   UNL     1      46.562   0.918   8.095  0.00  0.00    +0.000 NA
ATOM     17  C   UNL     1      45.624   1.814   8.470  0.00  0.00    +0.000 A 
ENDBRANCH  11  12
ENDBRANCH   9  11
ENDBRANCH   8   9
ENDBRANCH   5   8
ENDBRANCH   1   2
BRANCH   1  20
ATOM     18  C   UNL     1      48.342   2.840  16.983  0.00  0.00    +0.000 C 
ATOM     19  C   UNL     1      48.427   4.325  16.727  0.00  0.00    +0.000 C 
ATOM     20  C   UNL     1      47.775   4.956  15.723  0.00  0.00    +0.000 C 
BRANCH  19  21
ATOM     21  C   UNL     1      49.307   5.034  17.745  0.00  0.00    +0.000 C 
ATOM     22  O   UNL     1      50.519   5.049  17.579  0.00  0.00    +0.000 OA
BRANCH  21  23
ATOM     23  C   UNL     1      48.654   5.726  18.863  0.00  0.00    +0.000 A 
ATOM     24  C   UNL     1      48.249   5.095  20.029  0.00  0.00    +0.000 A 
ATOM     25  S   UNL     1      47.579   6.154  21.183  0.00  0.00    +0.000 S 
ATOM     26  C   UNL     1      47.728   7.483  20.129  0.00  0.00    +0.000 A 
ATOM     27  N   UNL     1      47.343   8.725  20.527  0.00  0.00    +0.000 NA
ATOM     28  C   UNL     1      47.504   9.641  19.631  0.00  0.00    +0.000 A 
ATOM     29  N   UNL     1      47.998   9.422  18.372  0.00  0.00    +0.000 N 
ATOM     30  C   UNL     1      48.368   8.177  17.909  0.00  0.00    +0.000 A 
ATOM     31  O   UNL     1      48.743   8.039  16.752  0.00  0.00    +0.000 OA
ATOM     32  C   UNL     1      48.259   7.120  18.904  0.00  0.00    +0.000 A 
ATOM     33  H   UNL     1      48.069  10.174  17.704  0.00  0.00    +0.000 HD
ENDBRANCH  21  23
ENDBRANCH  19  21
ENDBRANCH   1  20
TORSDOF 8
ENDMDL
MODEL 7
REMARK VINA RESULT:    -7.508      1.869      2.536
REMARK INTER + INTRA:         -12.080
REMARK INTER:                 -10.850
REMARK INTRA:                  -1.230
REMARK UNBOUND:                -1.060
REMARK  Name = 
REMARK  9 active torsions:
REMARK  status: ('A' for Active; 'I' for Inactive)
REMARK    1  A    between atoms: C_1  and  C_2
REMARK    2  A    between atoms: C_2  and  C_20
REMARK    3  A    between atoms: C_3  and  C_4
REMARK    4  A    between atoms: C_4  and  N_5
REMARK    5  A    between atoms: C_8  and  C_9
REMARK    6  A    between atoms: C_9  and  N_10
REMARK    7  A    between atoms: N_10  and  C_11
REMARK    8  A    between atoms: C_11  and  C_12
REMARK    9  A    between atoms: C_20  and  C_22
REMARK                            x       y       z     vdW  Elec       q    Type
REMARK                         _______ _______ _______ _____ _____    ______ ____
ROOT
ATOM      1  C   UNL     1      47.683   6.263  12.453  0.00  0.00    +0.000 C 
ENDROOT
BRANCH   1   2
ATOM      2  N   UNL     1      46.219   6.139  12.352  0.00  0.00    +0.000 NA
ATOM      3  C   UNL     1      45.780   5.958  10.958  0.00  0.00    +0.000 C 
ATOM      4  C   UNL     1      44.270   5.752  10.855  0.00  0.00    +0.000 C 
ATOM      5  C   UNL     1      43.789   4.577  11.709  0.00  0.00    +0.000 C 
ATOM      6  C   UNL     1      44.273   4.797  13.148  0.00  0.00    +0.000 C 
ATOM      7  C   UNL     1      45.783   5.018  13.207  0.00  0.00    +0.000 C 
BRANCH   5   8
ATOM      8  C   UNL     1      44.246   3.222  11.116  0.00  0.00    +0.000 C 
BRANCH   8   9
ATOM      9  N   UNL     1      44.044   3.087   9.670  0.00  0.00    +0.000 NA
ATOM     10  H   UNL     1      44.455   3.878   9.177  0.00  0.00    +0.000 HD
BRANCH   9  11
ATOM     11  C   UNL     1      44.607   1.844   9.142  0.00  0.00    +0.000 C 
BRANCH  11  12
ATOM     12  C   UNL     1      45.780   2.111   8.245  0.00  0.00    +0.000 A 
ATOM     13  C   UNL     1      46.038   3.387   7.740  0.00  0.00    +0.000 A 
ATOM     14  C   UNL     1      47.126   3.582   6.897  0.00  0.00    +0.000 A 
ATOM     15  C   UNL     1      47.919   2.490   6.586  0.00  0.00    +0.000 A 
ATOM     16  N   UNL     1      47.704   1.243   7.055  0.00  0.00    +0.000 NA
ATOM     17  C   UNL     1      46.640   1.082   7.873  0.00  0.00    +0.000 A 
ENDBRANCH  11  12
ENDBRANCH   9  11
ENDBRANCH   8   9
ENDBRANCH   5   8
ENDBRANCH   1   2
BRANCH   1  20
ATOM     18  C   UNL     1      47.833   8.936  14.014  0.00  0.00    +0.000 C 
ATOM     19  C   UNL     1      48.238   7.591  14.566  0.00  0.00    +0.000 C 
ATOM     20  C   UNL     1      48.164   6.434  13.865  0.00  0.00    +0.000 C 
BRANCH  19  21
ATOM     21  C   UNL     1      48.766   7.688  15.988  0.00  0.00    +0.000 C 
ATOM     22  O   UNL     1      48.229   8.459  16.774  0.00  0.00    +0.000 OA
BRANCH  21  23
ATOM     23  C   UNL     1      49.870   6.804  16.380  0.00  0.00    +0.000 A 
ATOM     24  C   UNL     1      51.209   7.152  16.280  0.00  0.00    +0.000 A 
ATOM     25  S   UNL     1      52.272   5.957  16.868  0.00  0.00    +0.000 S 
ATOM     26  C   UNL     1      50.982   4.895  17.199  0.00  0.00    +0.000 A 
ATOM     27  N   UNL     1      51.218   3.675  17.749  0.00  0.00    +0.000 NA
ATOM     28  C   UNL     1      50.155   2.967  17.942  0.00  0.00    +0.000 A 
ATOM     29  N   UNL     1      48.884   3.365  17.620  0.00  0.00    +0.000 N 
ATOM     30  C   UNL     1      48.597   4.577  17.028  0.00  0.00    +0.000 A 
ATOM     31  O   UNL     1      47.446   4.846  16.708  0.00  0.00    +0.000 OA
ATOM     32  C   UNL     1      49.758   5.435  16.843  0.00  0.00    +0.000 A 
ATOM     33  H   UNL     1      48.096   2.753  17.765  0.00  0.00    +0.000 HD
ENDBRANCH  21  23
ENDBRANCH  19  21
ENDBRANCH   1  20
TORSDOF 8
ENDMDL
MODEL 8
REMARK VINA RESULT:    -7.437      4.959      7.161
REMARK INTER + INTRA:         -11.976
REMARK INTER:                 -10.725
REMARK INTRA:                  -1.251
REMARK UNBOUND:                -1.060
REMARK  Name = 
REMARK  9 active torsions:
REMARK  status: ('A' for Active; 'I' for Inactive)
REMARK    1  A    between atoms: C_1  and  C_2
REMARK    2  A    between atoms: C_2  and  C_20
REMARK    3  A    between atoms: C_3  and  C_4
REMARK    4  A    between atoms: C_4  and  N_5
REMARK    5  A    between atoms: C_8  and  C_9
REMARK    6  A    between atoms: C_9  and  N_10
REMARK    7  A    between atoms: N_10  and  C_11
REMARK    8  A    between atoms: C_11  and  C_12
REMARK    9  A    between atoms: C_20  and  C_22
REMARK                            x       y       z     vdW  Elec       q    Type
REMARK                         _______ _______ _______ _____ _____    ______ ____
ROOT
ATOM      1  C   UNL     1      46.953   5.943  13.285  0.00  0.00    +0.000 C 
ENDROOT
BRANCH   1   2
ATOM      2  N   UNL     1      45.606   5.914  12.689  0.00  0.00    +0.000 NA
ATOM      3  C   UNL     1      45.658   5.732  11.229  0.00  0.00    +0.000 C 
ATOM      4  C   UNL     1      44.263   5.624  10.616  0.00  0.00    +0.000 C 
ATOM      5  C   UNL     1      43.439   4.502  11.252  0.00  0.00    +0.000 C 
ATOM      6  C   UNL     1      43.417   4.722  12.769  0.00  0.00    +0.000 C 
ATOM      7  C   UNL     1      44.828   4.843  13.342  0.00  0.00    +0.000 C 
BRANCH   5   8
ATOM      8  C   UNL     1      43.975   3.107  10.848  0.00  0.00    +0.000 C 
BRANCH   8   9
ATOM      9  N   UNL     1      44.152   2.913   9.405  0.00  0.00    +0.000 NA
ATOM     10  H   UNL     1      44.572   3.739   8.983  0.00  0.00    +0.000 HD
BRANCH   9  11
ATOM     11  C   UNL     1      44.974   1.742   9.097  0.00  0.00    +0.000 C 
BRANCH  11  12
ATOM     12  C   UNL     1      45.947   2.031   7.992  0.00  0.00    +0.000 A 
ATOM     13  C   UNL     1      45.923   3.241   7.295  0.00  0.00    +0.000 A 
ATOM     14  C   UNL     1      46.832   3.456   6.266  0.00  0.00    +0.000 A 
ATOM     15  C   UNL     1      47.736   2.450   5.968  0.00  0.00    +0.000 A 
ATOM     16  N   UNL     1      47.792   1.269   6.619  0.00  0.00    +0.000 NA
ATOM     17  C   UNL     1      46.898   1.087   7.616  0.00  0.00    +0.000 A 
ENDBRANCH  11  12
ENDBRANCH   9  11
ENDBRANCH   8   9
ENDBRANCH   5   8
ENDBRANCH   1   2
BRANCH   1  20
ATOM     18  C   UNL     1      48.893   7.469  11.410  0.00  0.00    +0.000 C 
ATOM     19  C   UNL     1      48.320   8.021  12.692  0.00  0.00    +0.000 C 
ATOM     20  C   UNL     1      47.473   7.336  13.497  0.00  0.00    +0.000 C 
BRANCH  19  21
ATOM     21  C   UNL     1      48.826   9.423  12.991  0.00  0.00    +0.000 C 
ATOM     22  O   UNL     1      49.256   9.678  14.109  0.00  0.00    +0.000 OA
BRANCH  21  23
ATOM     23  C   UNL     1      48.834  10.405  11.900  0.00  0.00    +0.000 A 
ATOM     24  C   UNL     1      49.988  10.977  11.385  0.00  0.00    +0.000 A 
ATOM     25  S   UNL     1      49.704  12.034  10.080  0.00  0.00    +0.000 S 
ATOM     26  C   UNL     1      48.018  11.830  10.211  0.00  0.00    +0.000 A 
ATOM     27  N   UNL     1      47.178  12.464   9.350  0.00  0.00    +0.000 NA
ATOM     28  C   UNL     1      45.926  12.229   9.563  0.00  0.00    +0.000 A 
ATOM     29  N   UNL     1      45.442  11.433  10.567  0.00  0.00    +0.000 N 
ATOM     30  C   UNL     1      46.250  10.798  11.487  0.00  0.00    +0.000 A 
ATOM     31  O   UNL     1      45.751  10.151  12.399  0.00  0.00    +0.000 OA
ATOM     32  C   UNL     1      47.675  10.987  11.253  0.00  0.00    +0.000 A 
ATOM     33  H   UNL     1      44.450  11.314  10.703  0.00  0.00    +0.000 HD
ENDBRANCH  21  23
ENDBRANCH  19  21
ENDBRANCH   1  20
TORSDOF 8
ENDMDL
MODEL 9
REMARK VINA RESULT:    -7.364      1.757      2.784
REMARK INTER + INTRA:         -11.868
REMARK INTER:                 -10.976
REMARK INTRA:                  -0.892
REMARK UNBOUND:                -1.060
REMARK  Name = 
REMARK  9 active torsions:
REMARK  status: ('A' for Active; 'I' for Inactive)
REMARK    1  A    between atoms: C_1  and  C_2
REMARK    2  A    between atoms: C_2  and  C_20
REMARK    3  A    between atoms: C_3  and  C_4
REMARK    4  A    between atoms: C_4  and  N_5
REMARK    5  A    between atoms: C_8  and  C_9
REMARK    6  A    between atoms: C_9  and  N_10
REMARK    7  A    between atoms: N_10  and  C_11
REMARK    8  A    between atoms: C_11  and  C_12
REMARK    9  A    between atoms: C_20  and  C_22
REMARK                            x       y       z     vdW  Elec       q    Type
REMARK                         _______ _______ _______ _____ _____    ______ ____
ROOT
ATOM      1  C   UNL     1      48.920   7.902  14.934  0.00  0.00    +0.000 C 
ENDROOT
BRANCH   1   2
ATOM      2  N   UNL     1      48.228   7.896  13.634  0.00  0.00    +0.000 NA
ATOM      3  C   UNL     1      48.054   6.529  13.114  0.00  0.00    +0.000 C 
ATOM      4  C   UNL     1      47.269   6.511  11.803  0.00  0.00    +0.000 C 
ATOM      5  C   UNL     1      45.907   7.195  11.938  0.00  0.00    +0.000 C 
ATOM      6  C   UNL     1      46.130   8.608  12.490  0.00  0.00    +0.000 C 
ATOM      7  C   UNL     1      46.933   8.586  13.789  0.00  0.00    +0.000 C 
BRANCH   5   8
ATOM      8  C   UNL     1      44.933   6.354  12.799  0.00  0.00    +0.000 C 
BRANCH   8   9
ATOM      9  N   UNL     1      44.647   5.016  12.270  0.00  0.00    +0.000 NA
ATOM     10  H   UNL     1      44.094   4.480  12.937  0.00  0.00    +0.000 HD
BRANCH   9  11
ATOM     11  C   UNL     1      43.944   5.063  10.987  0.00  0.00    +0.000 C 
BRANCH  11  12
ATOM     12  C   UNL     1      44.601   4.176   9.971  0.00  0.00    +0.000 A 
ATOM     13  C   UNL     1      45.405   4.699   8.955  0.00  0.00    +0.000 A 
ATOM     14  C   UNL     1      45.977   3.839   8.025  0.00  0.00    +0.000 A 
ATOM     15  C   UNL     1      45.722   2.483   8.141  0.00  0.00    +0.000 A 
ATOM     16  N   UNL     1      44.954   1.940   9.107  0.00  0.00    +0.000 NA
ATOM     17  C   UNL     1      44.411   2.798  10.000  0.00  0.00    +0.000 A 
ENDBRANCH  11  12
ENDBRANCH   9  11
ENDBRANCH   8   9
ENDBRANCH   5   8
ENDBRANCH   1   2
BRANCH   1  20
ATOM     18  C   UNL     1      48.438   7.214  17.917  0.00  0.00    +0.000 C 
ATOM     19  C   UNL     1      48.817   6.214  16.852  0.00  0.00    +0.000 C 
ATOM     20  C   UNL     1      49.023   6.537  15.553  0.00  0.00    +0.000 C 
BRANCH  19  21
ATOM     21  C   UNL     1      48.970   4.809  17.411  0.00  0.00    +0.000 C 
ATOM     22  O   UNL     1      48.012   4.048  17.383  0.00  0.00    +0.000 OA
BRANCH  21  23
ATOM     23  C   UNL     1      50.289   4.401  17.911  0.00  0.00    +0.000 A 
ATOM     24  C   UNL     1      51.131   5.235  18.632  0.00  0.00    +0.000 A 
ATOM     25  S   UNL     1      52.570   4.478  19.141  0.00  0.00    +0.000 S 
ATOM     26  C   UNL     1      52.157   3.032  18.342  0.00  0.00    +0.000 A 
ATOM     27  N   UNL     1      52.978   1.951  18.403  0.00  0.00    +0.000 NA
ATOM     28  C   UNL     1      52.551   0.923  17.749  0.00  0.00    +0.000 A 
ATOM     29  N   UNL     1      51.386   0.887  17.029  0.00  0.00    +0.000 N 
ATOM     30  C   UNL     1      50.537   1.966  16.907  0.00  0.00    +0.000 A 
ATOM     31  O   UNL     1      49.543   1.888  16.196  0.00  0.00    +0.000 OA
ATOM     32  C   UNL     1      50.948   3.133  17.674  0.00  0.00    +0.000 A 
ATOM     33  H   UNL     1      51.121   0.063  16.511  0.00  0.00    +0.000 HD
ENDBRANCH  21  23
ENDBRANCH  19  21
ENDBRANCH   1  20
TORSDOF 8
ENDMDL
