MODEL 1
REMARK VINA RESULT:    -7.426      0.000      0.000
REMARK INTER + INTRA:         -11.515
REMARK INTER:                 -10.464
REMARK INTRA:                  -1.051
REMARK UNBOUND:                -1.051
REMARK  Name = 
REMARK  8 active torsions:
REMARK  status: ('A' for Active; 'I' for Inactive)
REMARK    1  A    between atoms: C_1  and  C_2
REMARK    2  A    between atoms: C_7  and  C_8
REMARK    3  A    between atoms: C_8  and  O_9
REMARK    4  A    between atoms: O_9  and  C_10
REMARK    5  A    between atoms: C_10  and  C_11
REMARK    6  A    between atoms: C_14  and  C_15
REMARK    7  A    between atoms: C_15  and  N_16
REMARK    8  A    between atoms: C_17  and  C_19
REMARK                            x       y       z     vdW  Elec       q    Type
REMARK                         _______ _______ _______ _____ _____    ______ ____
ROOT
ATOM      1  C   UNL     1      44.347   5.696  12.454  0.00  0.00    +0.000 A 
ATOM      2  C   UNL     1      45.000   6.896  12.139  0.00  0.00    +0.000 A 
ATOM      3  C   UNL     1      46.294   7.152  12.609  0.00  0.00    +0.000 A 
ATOM      4  C   UNL     1      46.966   6.207  13.395  0.00  0.00    +0.000 A 
ATOM      5  C   UNL     1      46.306   5.017  13.727  0.00  0.00    +0.000 A 
ATOM      6  C   UNL     1      45.014   4.761  13.257  0.00  0.00    +0.000 A 
ENDROOT
BRANCH   1   7
ATOM      7  C   UNL     1      42.939   5.434  11.981  0.00  0.00    +0.000 C 
BRANCH   7   8
ATOM      8  O   UNL     1      42.939   5.143  10.584  0.00  0.00    +0.000 OA
BRANCH   8   9
ATOM      9  C   UNL     1      43.665   3.949  10.293  0.00  0.00    +0.000 C 
BRANCH   9  16
ATOM     10  C   UNL     1      45.347   1.711   9.023  0.00  0.00    +0.000 C 
ATOM     11  C   UNL     1      44.690   2.825   8.200  0.00  0.00    +0.000 C 
ATOM     12  C   UNL     1      45.530   3.152   6.955  0.00  0.00    +0.000 C 
ATOM     13  C   UNL     1      46.794   3.926   7.314  0.00  0.00    +0.000 C 
ATOM     14  O   UNL     1      46.475   5.115   8.037  0.00  0.00    +0.000 OA
ATOM     15  C   UNL     1      45.782   4.853   9.257  0.00  0.00    +0.000 C 
ATOM     16  C   UNL     1      44.455   4.133   8.994  0.00  0.00    +0.000 C 
ENDBRANCH   9  16
ENDBRANCH   8   9
ENDBRANCH   7   8
ENDBRANCH   1   7
BRANCH   4  17
ATOM     17  C   UNL     1      48.361   6.466  13.906  0.00  0.00    +0.000 C 
BRANCH  17  18
ATOM     18  N   UNL     1      48.350   6.822  15.303  0.00  0.00    +0.000 N 
ATOM     19  C   UNL     1      49.511   6.881  16.030  0.00  0.00    +0.000 C 
ATOM     20  O   UNL     1      50.611   6.673  15.524  0.00  0.00    +0.000 OA
ATOM     21  H   UNL     1      47.460   6.764  15.786  0.00  0.00    +0.000 HD
BRANCH  19  22
ATOM     22  C   UNL     1      49.380   7.271  17.440  0.00  0.00    +0.000 A 
ATOM     23  C   UNL     1      50.129   8.331  17.935  0.00  0.00    +0.000 A 
ATOM     24  S   UNL     1      49.822   8.678  19.576  0.00  0.00    +0.000 S 
ATOM     25  C   UNL     1      48.715   7.389  19.698  0.00  0.00    +0.000 A 
ATOM     26  N   UNL     1      48.099   7.108  20.877  0.00  0.00    +0.000 NA
ATOM     27  C   UNL     1      47.309   6.087  20.835  0.00  0.00    +0.000 A 
ATOM     28  N   UNL     1      47.075   5.329  19.717  0.00  0.00    +0.000 N 
ATOM     29  C   UNL     1      47.652   5.595  18.499  0.00  0.00    +0.000 A 
ATOM     30  O   UNL     1      47.382   4.922  17.506  0.00  0.00    +0.000 OA
ATOM     31  C   UNL     1      48.564   6.721  18.496  0.00  0.00    +0.000 A 
ATOM     32  H   UNL     1      46.436   4.550  19.749  0.00  0.00    +0.000 HD
ENDBRANCH  19  22
ENDBRANCH  17  18
ENDBRANCH   4  17
TORSDOF 7
ENDMDL
MODEL 2
REMARK VINA RESULT:    -7.398      2.093      2.752
REMARK INTER + INTRA:         -11.477
REMARK INTER:                 -10.204
REMARK INTRA:                  -1.272
REMARK UNBOUND:                -1.051
REMARK  Name = 
REMARK  8 active torsions:
REMARK  status: ('A' for Active; 'I' for Inactive)
REMARK    1  A    between atoms: C_1  and  C_2
REMARK    2  A    between atoms: C_7  and  C_8
REMARK    3  A    between atoms: C_8  and  O_9
REMARK    4  A    between atoms: O_9  and  C_10
REMARK    5  A    between atoms: C_10  and  C_11
REMARK    6  A    between atoms: C_14  and  C_15
REMARK    7  A    between atoms: C_15  and  N_16
REMARK    8  A    between atoms: C_17  and  C_19
REMARK                            x       y       z     vdW  Elec       q    Type
REMARK                         _______ _______ _______ _____ _____    ______ ____
ROOT
ATOM      1  C   UNL     1      44.732   4.823  10.796  0.00  0.00    +0.000 A 
ATOM      2  C   UNL     1      45.801   5.545  10.249  0.00  0.00    +0.000 A 
ATOM      3  C   UNL     1      46.450   6.538  10.992  0.00  0.00    +0.000 A 
ATOM      4  C   UNL     1      46.049   6.820  12.305  0.00  0.00    +0.000 A 
ATOM      5  C   UNL     1      44.967   6.113  12.844  0.00  0.00    +0.000 A 
ATOM      6  C   UNL     1      44.320   5.121  12.101  0.00  0.00    +0.000 A 
ENDROOT
BRANCH   1   7
ATOM      7  C   UNL     1      44.006   3.779   9.983  0.00  0.00    +0.000 C 
BRANCH   7   8
ATOM      8  O   UNL     1      44.560   2.488  10.238  0.00  0.00    +0.000 OA
BRANCH   8   9
ATOM      9  C   UNL     1      44.704   1.729   9.037  0.00  0.00    +0.000 C 
BRANCH   9  16
ATOM     10  C   UNL     1      45.172   3.292   6.431  0.00  0.00    +0.000 C 
ATOM     11  C   UNL     1      46.206   3.234   7.563  0.00  0.00    +0.000 C 
ATOM     12  C   UNL     1      47.635   3.317   7.001  0.00  0.00    +0.000 C 
ATOM     13  C   UNL     1      48.050   2.018   6.321  0.00  0.00    +0.000 C 
ATOM     14  O   UNL     1      47.920   0.911   7.212  0.00  0.00    +0.000 OA
ATOM     15  C   UNL     1      46.584   0.731   7.682  0.00  0.00    +0.000 C 
ATOM     16  C   UNL     1      46.096   1.967   8.445  0.00  0.00    +0.000 C 
ENDBRANCH   9  16
ENDBRANCH   8   9
ENDBRANCH   7   8
ENDBRANCH   1   7
BRANCH   4  17
ATOM     17  C   UNL     1      46.740   7.884  13.121  0.00  0.00    +0.000 C 
BRANCH  17  18
ATOM     18  N   UNL     1      47.283   7.340  14.340  0.00  0.00    +0.000 N 
ATOM     19  C   UNL     1      48.505   6.716  14.357  0.00  0.00    +0.000 C 
ATOM     20  O   UNL     1      49.207   6.625  13.352  0.00  0.00    +0.000 OA
ATOM     21  H   UNL     1      46.637   7.193  15.107  0.00  0.00    +0.000 HD
BRANCH  19  22
ATOM     22  C   UNL     1      48.964   6.215  15.659  0.00  0.00    +0.000 A 
ATOM     23  C   UNL     1      50.020   6.845  16.306  0.00  0.00    +0.000 A 
ATOM     24  S   UNL     1      50.396   6.164  17.824  0.00  0.00    +0.000 S 
ATOM     25  C   UNL     1      49.193   4.970  17.646  0.00  0.00    +0.000 A 
ATOM     26  N   UNL     1      49.005   4.023  18.603  0.00  0.00    +0.000 NA
ATOM     27  C   UNL     1      48.082   3.162  18.326  0.00  0.00    +0.000 A 
ATOM     28  N   UNL     1      47.327   3.171  17.182  0.00  0.00    +0.000 N 
ATOM     29  C   UNL     1      47.463   4.125  16.203  0.00  0.00    +0.000 A 
ATOM     30  O   UNL     1      46.736   4.130  15.213  0.00  0.00    +0.000 OA
ATOM     31  C   UNL     1      48.500   5.106  16.457  0.00  0.00    +0.000 A 
ATOM     32  H   UNL     1      46.613   2.475  17.031  0.00  0.00    +0.000 HD
ENDBRANCH  19  22
ENDBRANCH  17  18
ENDBRANCH   4  17
TORSDOF 7
ENDMDL
MODEL 3
REMARK VINA RESULT:    -7.340      1.663      2.220
REMARK INTER + INTRA:         -11.395
REMARK INTER:                 -10.532
REMARK INTRA:                  -0.864
REMARK UNBOUND:                -1.051
REMARK  Name = 
REMARK  8 active torsions:
REMARK  status: ('A' for Active; 'I' for Inactive)
REMARK    1  A    between atoms: C_1  and  C_2
REMARK    2  A    between atoms: C_7  and  C_8
REMARK    3  A    between atoms: C_8  and  O_9
REMARK    4  A    between atoms: O_9  and  C_10
REMARK    5  A    between atoms: C_10  and  C_11
REMARK    6  A    between atoms: C_14  and  C_15
REMARK    7  A    between atoms: C_15  and  N_16
REMARK    8  A    between atoms: C_17  and  C_19
REMARK                            x       y       z     vdW  Elec       q    Type
REMARK                         _______ _______ _______ _____ _____    ______ ____
ROOT
ATOM      1  C   UNL     1      44.848   5.195  11.431  0.00  0.00    +0.000 A 
ATOM      2  C   UNL     1      45.344   4.478  12.529  0.00  0.00    +0.000 A 
ATOM      3  C   UNL     1      46.482   4.916  13.216  0.00  0.00    +0.000 A 
ATOM      4  C   UNL     1      47.142   6.089  12.826  0.00  0.00    +0.000 A 
ATOM      5  C   UNL     1      46.659   6.794  11.716  0.00  0.00    +0.000 A 
ATOM      6  C   UNL     1      45.522   6.356  11.030  0.00  0.00    +0.000 A 
ENDROOT
BRANCH   1   7
ATOM      7  C   UNL     1      43.645   4.703  10.665  0.00  0.00    +0.000 C 
BRANCH   7   8
ATOM      8  O   UNL     1      43.991   3.552   9.896  0.00  0.00    +0.000 OA
BRANCH   8   9
ATOM      9  C   UNL     1      44.797   3.893   8.769  0.00  0.00    +0.000 C 
BRANCH   9  16
ATOM     10  C   UNL     1      46.084   3.331   6.034  0.00  0.00    +0.000 C 
ATOM     11  C   UNL     1      46.811   3.082   7.361  0.00  0.00    +0.000 C 
ATOM     12  C   UNL     1      47.786   1.900   7.235  0.00  0.00    +0.000 C 
ATOM     13  C   UNL     1      47.051   0.565   7.187  0.00  0.00    +0.000 C 
ATOM     14  O   UNL     1      46.207   0.406   8.327  0.00  0.00    +0.000 OA
ATOM     15  C   UNL     1      45.216   1.427   8.429  0.00  0.00    +0.000 C 
ATOM     16  C   UNL     1      45.860   2.812   8.553  0.00  0.00    +0.000 C 
ENDBRANCH   9  16
ENDBRANCH   8   9
ENDBRANCH   7   8
ENDBRANCH   1   7
BRANCH   4  17
ATOM     17  C   UNL     1      48.367   6.577  13.557  0.00  0.00    +0.000 C 
BRANCH  17  18
ATOM     18  N   UNL     1      48.151   6.602  14.982  0.00  0.00    +0.000 N 
ATOM     19  C   UNL     1      49.141   7.002  15.843  0.00  0.00    +0.000 C 
ATOM     20  O   UNL     1      50.237   7.391  15.445  0.00  0.00    +0.000 OA
ATOM     21  H   UNL     1      47.363   6.073  15.338  0.00  0.00    +0.000 HD
BRANCH  19  22
ATOM     22  C   UNL     1      48.803   7.003  17.272  0.00  0.00    +0.000 A 
ATOM     23  C   UNL     1      48.383   8.179  17.880  0.00  0.00    +0.000 A 
ATOM     24  S   UNL     1      47.989   7.995  19.529  0.00  0.00    +0.000 S 
ATOM     25  C   UNL     1      48.416   6.345  19.502  0.00  0.00    +0.000 A 
ATOM     26  N   UNL     1      48.341   5.587  20.628  0.00  0.00    +0.000 NA
ATOM     27  C   UNL     1      48.723   4.363  20.472  0.00  0.00    +0.000 A 
ATOM     28  N   UNL     1      49.166   3.830  19.289  0.00  0.00    +0.000 N 
ATOM     29  C   UNL     1      49.230   4.551  18.121  0.00  0.00    +0.000 A 
ATOM     30  O   UNL     1      49.586   4.027  17.068  0.00  0.00    +0.000 OA
ATOM     31  C   UNL     1      48.829   5.938  18.246  0.00  0.00    +0.000 A 
ATOM     32  H   UNL     1      49.440   2.861  19.232  0.00  0.00    +0.000 HD
ENDBRANCH  19  22
ENDBRANCH  17  18
ENDBRANCH   4  17
TORSDOF 7
ENDMDL
MODEL 4
REMARK VINA RESULT:    -7.279      3.511      8.791
REMARK INTER + INTRA:         -11.309
REMARK INTER:                  -9.611
REMARK INTRA:                  -1.698
REMARK UNBOUND:                -1.051
REMARK  Name = 
REMARK  8 active torsions:
REMARK  status: ('A' for Active; 'I' for Inactive)
REMARK    1  A    between atoms: C_1  and  C_2
REMARK    2  A    between atoms: C_7  and  C_8
REMARK    3  A    between atoms: C_8  and  O_9
REMARK    4  A    between atoms: O_9  and  C_10
REMARK    5  A    between atoms: C_10  and  C_11
REMARK    6  A    between atoms: C_14  and  C_15
REMARK    7  A    between atoms: C_15  and  N_16
REMARK    8  A    between atoms: C_17  and  C_19
REMARK                            x       y       z     vdW  Elec       q    Type
REMARK                         _______ _______ _______ _____ _____    ______ ____
ROOT
ATOM      1  C   UNL     1      49.789   8.261  15.599  0.00  0.00    +0.000 A 
ATOM      2  C   UNL     1      50.350   7.683  14.452  0.00  0.00    +0.000 A 
ATOM      3  C   UNL     1      49.619   7.600  13.261  0.00  0.00    +0.000 A 
ATOM      4  C   UNL     1      48.315   8.108  13.189  0.00  0.00    +0.000 A 
ATOM      5  C   UNL     1      47.747   8.667  14.340  0.00  0.00    +0.000 A 
ATOM      6  C   UNL     1      48.478   8.749  15.530  0.00  0.00    +0.000 A 
ENDROOT
BRANCH   1   7
ATOM      7  C   UNL     1      50.561   8.316  16.894  0.00  0.00    +0.000 C 
BRANCH   7   8
ATOM      8  O   UNL     1      51.179   7.055  17.149  0.00  0.00    +0.000 OA
BRANCH   8   9
ATOM      9  C   UNL     1      50.367   6.229  17.984  0.00  0.00    +0.000 C 
BRANCH   9  16
ATOM     10  C   UNL     1      47.455   5.340  18.408  0.00  0.00    +0.000 C 
ATOM     11  C   UNL     1      48.152   5.278  17.043  0.00  0.00    +0.000 C 
ATOM     12  C   UNL     1      47.610   4.108  16.207  0.00  0.00    +0.000 C 
ATOM     13  C   UNL     1      48.117   2.765  16.720  0.00  0.00    +0.000 C 
ATOM     14  O   UNL     1      49.543   2.740  16.762  0.00  0.00    +0.000 OA
ATOM     15  C   UNL     1      50.090   3.748  17.611  0.00  0.00    +0.000 C 
ATOM     16  C   UNL     1      49.691   5.148  17.134  0.00  0.00    +0.000 C 
ENDBRANCH   9  16
ENDBRANCH   8   9
ENDBRANCH   7   8
ENDBRANCH   1   7
BRANCH   4  17
ATOM     17  C   UNL     1      47.516   8.030  11.912  0.00  0.00    +0.000 C 
BRANCH  17  18
ATOM     18  N   UNL     1      46.839   6.764  11.794  0.00  0.00    +0.000 N 
ATOM     19  C   UNL     1      45.472   6.694  11.703  0.00  0.00    +0.000 C 
ATOM     20  O   UNL     1      44.766   7.700  11.680  0.00  0.00    +0.000 OA
ATOM     21  H   UNL     1      47.365   5.934  12.045  0.00  0.00    +0.000 HD
BRANCH  19  22
ATOM     22  C   UNL     1      44.893   5.351  11.569  0.00  0.00    +0.000 A 
ATOM     23  C   UNL     1      44.191   4.794  12.630  0.00  0.00    +0.000 A 
ATOM     24  S   UNL     1      43.550   3.250  12.291  0.00  0.00    +0.000 S 
ATOM     25  C   UNL     1      44.235   3.249  10.731  0.00  0.00    +0.000 A 
ATOM     26  N   UNL     1      44.087   2.179   9.906  0.00  0.00    +0.000 NA
ATOM     27  C   UNL     1      44.682   2.300   8.765  0.00  0.00    +0.000 A 
ATOM     28  N   UNL     1      45.403   3.398   8.376  0.00  0.00    +0.000 N 
ATOM     29  C   UNL     1      45.554   4.513   9.165  0.00  0.00    +0.000 A 
ATOM     30  O   UNL     1      46.168   5.499   8.764  0.00  0.00    +0.000 OA
ATOM     31  C   UNL     1      44.920   4.421  10.466  0.00  0.00    +0.000 A 
ATOM     32  H   UNL     1      45.835   3.434   7.465  0.00  0.00    +0.000 HD
ENDBRANCH  19  22
ENDBRANCH  17  18
ENDBRANCH   4  17
TORSDOF 7
ENDMDL
MODEL 5
REMARK VINA RESULT:    -6.860      1.339      2.090
REMARK INTER + INTRA:         -10.718
REMARK INTER:                  -9.487
REMARK INTRA:                  -1.230
REMARK UNBOUND:                -1.051
REMARK  Name = 
REMARK  8 active torsions:
REMARK  status: ('A' for Active; 'I' for Inactive)
REMARK    1  A    between atoms: C_1  and  C_2
REMARK    2  A    between atoms: C_7  and  C_8
REMARK    3  A    between atoms: C_8  and  O_9
REMARK    4  A    between atoms: O_9  and  C_10
REMARK    5  A    between atoms: C_10  and  C_11
REMARK    6  A    between atoms: C_14  and  C_15
REMARK    7  A    between atoms: C_15  and  N_16
REMARK    8  A    between atoms: C_17  and  C_19
REMARK                            x       y       z     vdW  Elec       q    Type
REMARK                         _______ _______ _______ _____ _____    ______ ____
ROOT
ATOM      1  C   UNL     1      44.607   5.663  12.680  0.00  0.00    +0.000 A 
ATOM      2  C   UNL     1      45.159   6.938  12.490  0.00  0.00    +0.000 A 
ATOM      3  C   UNL     1      46.413   7.262  13.021  0.00  0.00    +0.000 A 
ATOM      4  C   UNL     1      47.147   6.312  13.744  0.00  0.00    +0.000 A 
ATOM      5  C   UNL     1      46.587   5.045  13.952  0.00  0.00    +0.000 A 
ATOM      6  C   UNL     1      45.334   4.722  13.421  0.00  0.00    +0.000 A 
ENDROOT
BRANCH   1   7
ATOM      7  C   UNL     1      43.240   5.324  12.142  0.00  0.00    +0.000 C 
BRANCH   7   8
ATOM      8  O   UNL     1      43.262   5.323  10.715  0.00  0.00    +0.000 OA
BRANCH   8   9
ATOM      9  C   UNL     1      43.577   4.032  10.193  0.00  0.00    +0.000 C 
BRANCH   9  16
ATOM     10  C   UNL     1      45.281   1.753   9.030  0.00  0.00    +0.000 C 
ATOM     11  C   UNL     1      44.672   2.861   8.162  0.00  0.00    +0.000 C 
ATOM     12  C   UNL     1      45.567   3.157   6.947  0.00  0.00    +0.000 C 
ATOM     13  C   UNL     1      46.824   3.922   7.346  0.00  0.00    +0.000 C 
ATOM     14  O   UNL     1      46.492   5.126   8.035  0.00  0.00    +0.000 OA
ATOM     15  C   UNL     1      45.746   4.893   9.230  0.00  0.00    +0.000 C 
ATOM     16  C   UNL     1      44.422   4.185   8.924  0.00  0.00    +0.000 C 
ENDBRANCH   9  16
ENDBRANCH   8   9
ENDBRANCH   7   8
ENDBRANCH   1   7
BRANCH   4  17
ATOM     17  C   UNL     1      48.501   6.644  14.319  0.00  0.00    +0.000 C 
BRANCH  17  18
ATOM     18  N   UNL     1      48.407   6.991  15.715  0.00  0.00    +0.000 N 
ATOM     19  C   UNL     1      48.805   6.115  16.693  0.00  0.00    +0.000 C 
ATOM     20  O   UNL     1      49.292   5.018  16.429  0.00  0.00    +0.000 OA
ATOM     21  H   UNL     1      47.803   7.768  15.957  0.00  0.00    +0.000 HD
BRANCH  19  22
ATOM     22  C   UNL     1      48.678   6.582  18.079  0.00  0.00    +0.000 A 
ATOM     23  C   UNL     1      47.822   5.924  18.953  0.00  0.00    +0.000 A 
ATOM     24  S   UNL     1      47.828   6.569  20.532  0.00  0.00    +0.000 S 
ATOM     25  C   UNL     1      48.938   7.783  20.090  0.00  0.00    +0.000 A 
ATOM     26  N   UNL     1      49.349   8.713  20.992  0.00  0.00    +0.000 NA
ATOM     27  C   UNL     1      50.168   9.592  20.515  0.00  0.00    +0.000 A 
ATOM     28  N   UNL     1      50.615   9.618  19.221  0.00  0.00    +0.000 N 
ATOM     29  C   UNL     1      50.249   8.681  18.284  0.00  0.00    +0.000 A 
ATOM     30  O   UNL     1      50.709   8.708  17.144  0.00  0.00    +0.000 OA
ATOM     31  C   UNL     1      49.316   7.681  18.763  0.00  0.00    +0.000 A 
ATOM     32  H   UNL     1      51.264  10.327  18.914  0.00  0.00    +0.000 HD
ENDBRANCH  19  22
ENDBRANCH  17  18
ENDBRANCH   4  17
TORSDOF 7
ENDMDL
MODEL 6
REMARK VINA RESULT:    -6.738      3.635      9.704
REMARK INTER + INTRA:         -10.547
REMARK INTER:                  -8.947
REMARK INTRA:                  -1.600
REMARK UNBOUND:                -1.051
REMARK  Name = 
REMARK  8 active torsions:
REMARK  status: ('A' for Active; 'I' for Inactive)
REMARK    1  A    between atoms: C_1  and  C_2
REMARK    2  A    between atoms: C_7  and  C_8
REMARK    3  A    between atoms: C_8  and  O_9
REMARK    4  A    between atoms: O_9  and  C_10
REMARK    5  A    between atoms: C_10  and  C_11
REMARK    6  A    between atoms: C_14  and  C_15
REMARK    7  A    between atoms: C_15  and  N_16
REMARK    8  A    between atoms: C_17  and  C_19
REMARK                            x       y       z     vdW  Elec       q    Type
REMARK                         _______ _______ _______ _____ _____    ______ ____
ROOT
ATOM      1  C   UNL     1      50.797   5.256  18.524  0.00  0.00    +0.000 A 
ATOM      2  C   UNL     1      50.064   6.011  17.598  0.00  0.00    +0.000 A 
ATOM      3  C   UNL     1      48.984   5.447  16.910  0.00  0.00    +0.000 A 
ATOM      4  C   UNL     1      48.605   4.119  17.144  0.00  0.00    +0.000 A 
ATOM      5  C   UNL     1      49.350   3.358  18.054  0.00  0.00    +0.000 A 
ATOM      6  C   UNL     1      50.430   3.922  18.741  0.00  0.00    +0.000 A 
ENDROOT
BRANCH   1   7
ATOM      7  C   UNL     1      51.986   5.849  19.238  0.00  0.00    +0.000 C 
BRANCH   7   8
ATOM      8  O   UNL     1      51.581   6.984  20.003  0.00  0.00    +0.000 OA
BRANCH   8   9
ATOM      9  C   UNL     1      50.834   6.602  21.158  0.00  0.00    +0.000 C 
BRANCH   9  16
ATOM     10  C   UNL     1      47.881   5.927  20.633  0.00  0.00    +0.000 C 
ATOM     11  C   UNL     1      48.325   6.949  21.687  0.00  0.00    +0.000 C 
ATOM     12  C   UNL     1      47.276   8.062  21.844  0.00  0.00    +0.000 C 
ATOM     13  C   UNL     1      47.290   9.020  20.658  0.00  0.00    +0.000 C 
ATOM     14  O   UNL     1      48.590   9.574  20.464  0.00  0.00    +0.000 OA
ATOM     15  C   UNL     1      49.584   8.580  20.212  0.00  0.00    +0.000 C 
ATOM     16  C   UNL     1      49.696   7.602  21.386  0.00  0.00    +0.000 C 
ENDBRANCH   9  16
ENDBRANCH   8   9
ENDBRANCH   7   8
ENDBRANCH   1   7
BRANCH   4  17
ATOM     17  C   UNL     1      47.441   3.498  16.414  0.00  0.00    +0.000 C 
BRANCH  17  18
ATOM     18  N   UNL     1      46.807   4.447  15.535  0.00  0.00    +0.000 N 
ATOM     19  C   UNL     1      46.757   4.239  14.180  0.00  0.00    +0.000 C 
ATOM     20  O   UNL     1      47.212   3.224  13.657  0.00  0.00    +0.000 OA
ATOM     21  H   UNL     1      46.643   5.378  15.903  0.00  0.00    +0.000 HD
BRANCH  19  22
ATOM     22  C   UNL     1      46.071   5.265  13.385  0.00  0.00    +0.000 A 
ATOM     23  C   UNL     1      46.683   6.494  13.170  0.00  0.00    +0.000 A 
ATOM     24  S   UNL     1      45.770   7.551  12.192  0.00  0.00    +0.000 S 
ATOM     25  C   UNL     1      44.499   6.423  12.064  0.00  0.00    +0.000 A 
ATOM     26  N   UNL     1      43.369   6.722  11.371  0.00  0.00    +0.000 NA
ATOM     27  C   UNL     1      42.476   5.788  11.381  0.00  0.00    +0.000 A 
ATOM     28  N   UNL     1      42.617   4.582  12.016  0.00  0.00    +0.000 N 
ATOM     29  C   UNL     1      43.753   4.226  12.703  0.00  0.00    +0.000 A 
ATOM     30  O   UNL     1      43.864   3.117  13.219  0.00  0.00    +0.000 OA
ATOM     31  C   UNL     1      44.781   5.248  12.738  0.00  0.00    +0.000 A 
ATOM     32  H   UNL     1      41.885   3.890  11.976  0.00  0.00    +0.000 HD
ENDBRANCH  19  22
ENDBRANCH  17  18
ENDBRANCH   4  17
TORSDOF 7
ENDMDL
MODEL 7
REMARK VINA RESULT:    -6.635      2.190      2.981
REMARK INTER + INTRA:         -10.402
REMARK INTER:                  -9.461
REMARK INTRA:                  -0.941
REMARK UNBOUND:                -1.051
REMARK  Name = 
REMARK  8 active torsions:
REMARK  status: ('A' for Active; 'I' for Inactive)
REMARK    1  A    between atoms: C_1  and  C_2
REMARK    2  A    between atoms: C_7  and  C_8
REMARK    3  A    between atoms: C_8  and  O_9
REMARK    4  A    between atoms: O_9  and  C_10
REMARK    5  A    between atoms: C_10  and  C_11
REMARK    6  A    between atoms: C_14  and  C_15
REMARK    7  A    between atoms: C_15  and  N_16
REMARK    8  A    between atoms: C_17  and  C_19
REMARK                            x       y       z     vdW  Elec       q    Type
REMARK                         _______ _______ _______ _____ _____    ______ ____
ROOT
ATOM      1  C   UNL     1      45.059   5.370  11.493  0.00  0.00    +0.000 A 
ATOM      2  C   UNL     1      45.503   4.426  12.430  0.00  0.00    +0.000 A 
ATOM      3  C   UNL     1      46.611   4.691  13.243  0.00  0.00    +0.000 A 
ATOM      4  C   UNL     1      47.291   5.912  13.144  0.00  0.00    +0.000 A 
ATOM      5  C   UNL     1      46.860   6.847  12.194  0.00  0.00    +0.000 A 
ATOM      6  C   UNL     1      45.753   6.582  11.383  0.00  0.00    +0.000 A 
ENDROOT
BRANCH   1   7
ATOM      7  C   UNL     1      43.888   5.071  10.589  0.00  0.00    +0.000 C 
BRANCH   7   8
ATOM      8  O   UNL     1      44.143   3.887   9.835  0.00  0.00    +0.000 OA
BRANCH   8   9
ATOM      9  C   UNL     1      45.005   4.143   8.726  0.00  0.00    +0.000 C 
BRANCH   9  16
ATOM     10  C   UNL     1      46.208   3.367   6.006  0.00  0.00    +0.000 C 
ATOM     11  C   UNL     1      46.926   3.106   7.336  0.00  0.00    +0.000 C 
ATOM     12  C   UNL     1      47.793   1.840   7.248  0.00  0.00    +0.000 C 
ATOM     13  C   UNL     1      46.945   0.573   7.258  0.00  0.00    +0.000 C 
ATOM     14  O   UNL     1      46.103   0.531   8.409  0.00  0.00    +0.000 OA
ATOM     15  C   UNL     1      45.205   1.638   8.479  0.00  0.00    +0.000 C 
ATOM     16  C   UNL     1      45.968   2.965   8.544  0.00  0.00    +0.000 C 
ENDBRANCH   9  16
ENDBRANCH   8   9
ENDBRANCH   7   8
ENDBRANCH   1   7
BRANCH   4  17
ATOM     17  C   UNL     1      48.484   6.215  14.015  0.00  0.00    +0.000 C 
BRANCH  17  18
ATOM     18  N   UNL     1      48.079   6.673  15.320  0.00  0.00    +0.000 N 
ATOM     19  C   UNL     1      48.997   7.135  16.228  0.00  0.00    +0.000 C 
ATOM     20  O   UNL     1      50.194   7.216  15.964  0.00  0.00    +0.000 OA
ATOM     21  H   UNL     1      47.156   6.399  15.638  0.00  0.00    +0.000 HD
BRANCH  19  22
ATOM     22  C   UNL     1      48.466   7.591  17.520  0.00  0.00    +0.000 A 
ATOM     23  C   UNL     1      48.273   6.677  18.547  0.00  0.00    +0.000 A 
ATOM     24  S   UNL     1      47.693   7.381  19.989  0.00  0.00    +0.000 S 
ATOM     25  C   UNL     1      47.631   8.926  19.273  0.00  0.00    +0.000 A 
ATOM     26  N   UNL     1      47.181  10.000  19.973  0.00  0.00    +0.000 NA
ATOM     27  C   UNL     1      47.157  11.103  19.299  0.00  0.00    +0.000 A 
ATOM     28  N   UNL     1      47.552  11.226  17.993  0.00  0.00    +0.000 N 
ATOM     29  C   UNL     1      48.041  10.174  17.257  0.00  0.00    +0.000 A 
ATOM     30  O   UNL     1      48.430  10.331  16.102  0.00  0.00    +0.000 OA
ATOM     31  C   UNL     1      48.070   8.907  17.961  0.00  0.00    +0.000 A 
ATOM     32  H   UNL     1      47.519  12.120  17.527  0.00  0.00    +0.000 HD
ENDBRANCH  19  22
ENDBRANCH  17  18
ENDBRANCH   4  17
TORSDOF 7
ENDMDL
MODEL 8
REMARK VINA RESULT:    -6.635      3.581      9.195
REMARK INTER + INTRA:         -10.401
REMARK INTER:                  -8.714
REMARK INTRA:                  -1.687
REMARK UNBOUND:                -1.051
REMARK  Name = 
REMARK  8 active torsions:
REMARK  status: ('A' for Active; 'I' for Inactive)
REMARK    1  A    between atoms: C_1  and  C_2
REMARK    2  A    between atoms: C_7  and  C_8
REMARK    3  A    between atoms: C_8  and  O_9
REMARK    4  A    between atoms: O_9  and  C_10
REMARK    5  A    between atoms: C_10  and  C_11
REMARK    6  A    between atoms: C_14  and  C_15
REMARK    7  A    between atoms: C_15  and  N_16
REMARK    8  A    between atoms: C_17  and  C_19
REMARK                            x       y       z     vdW  Elec       q    Type
REMARK                         _______ _______ _______ _____ _____    ______ ____
ROOT
ATOM      1  C   UNL     1      49.799   5.464  19.571  0.00  0.00    +0.000 A 
ATOM      2  C   UNL     1      50.444   4.736  18.562  0.00  0.00    +0.000 A 
ATOM      3  C   UNL     1      49.707   4.082  17.567  0.00  0.00    +0.000 A 
ATOM      4  C   UNL     1      48.308   4.156  17.554  0.00  0.00    +0.000 A 
ATOM      5  C   UNL     1      47.662   4.866  18.573  0.00  0.00    +0.000 A 
ATOM      6  C   UNL     1      48.399   5.519  19.567  0.00  0.00    +0.000 A 
ENDROOT
BRANCH   1   7
ATOM      7  C   UNL     1      50.589   6.136  20.666  0.00  0.00    +0.000 C 
BRANCH   7   8
ATOM      8  O   UNL     1      50.105   7.463  20.875  0.00  0.00    +0.000 OA
BRANCH   8   9
ATOM      9  C   UNL     1      50.705   8.392  19.972  0.00  0.00    +0.000 C 
BRANCH   9  16
ATOM     10  C   UNL     1      49.851   8.215  17.025  0.00  0.00    +0.000 C 
ATOM     11  C   UNL     1      48.900   8.669  18.139  0.00  0.00    +0.000 C 
ATOM     12  C   UNL     1      47.882   9.689  17.606  0.00  0.00    +0.000 C 
ATOM     13  C   UNL     1      48.522  11.051  17.360  0.00  0.00    +0.000 C 
ATOM     14  O   UNL     1      49.154  11.538  18.543  0.00  0.00    +0.000 OA
ATOM     15  C   UNL     1      50.182  10.670  19.020  0.00  0.00    +0.000 C 
ATOM     16  C   UNL     1      49.621   9.286  19.362  0.00  0.00    +0.000 C 
ENDBRANCH   9  16
ENDBRANCH   8   9
ENDBRANCH   7   8
ENDBRANCH   1   7
BRANCH   4  17
ATOM     17  C   UNL     1      47.500   3.461  16.487  0.00  0.00    +0.000 C 
BRANCH  17  18
ATOM     18  N   UNL     1      46.861   4.411  15.611  0.00  0.00    +0.000 N 
ATOM     19  C   UNL     1      46.878   4.246  14.250  0.00  0.00    +0.000 C 
ATOM     20  O   UNL     1      47.400   3.270  13.716  0.00  0.00    +0.000 OA
ATOM     21  H   UNL     1      46.640   5.321  16.001  0.00  0.00    +0.000 HD
BRANCH  19  22
ATOM     22  C   UNL     1      46.181   5.268  13.458  0.00  0.00    +0.000 A 
ATOM     23  C   UNL     1      46.751   6.524  13.298  0.00  0.00    +0.000 A 
ATOM     24  S   UNL     1      45.832   7.573  12.317  0.00  0.00    +0.000 S 
ATOM     25  C   UNL     1      44.612   6.401  12.114  0.00  0.00    +0.000 A 
ATOM     26  N   UNL     1      43.496   6.676  11.389  0.00  0.00    +0.000 NA
ATOM     27  C   UNL     1      42.639   5.709  11.342  0.00  0.00    +0.000 A 
ATOM     28  N   UNL     1      42.806   4.492  11.949  0.00  0.00    +0.000 N 
ATOM     29  C   UNL     1      43.930   4.161  12.666  0.00  0.00    +0.000 A 
ATOM     30  O   UNL     1      44.066   3.043  13.157  0.00  0.00    +0.000 OA
ATOM     31  C   UNL     1      44.915   5.220  12.766  0.00  0.00    +0.000 A 
ATOM     32  H   UNL     1      42.102   3.774  11.864  0.00  0.00    +0.000 HD
ENDBRANCH  19  22
ENDBRANCH  17  18
ENDBRANCH   4  17
TORSDOF 7
ENDMDL
MODEL 9
REMARK VINA RESULT:    -6.556      5.248      8.669
REMARK INTER + INTRA:         -10.290
REMARK INTER:                  -9.110
REMARK INTRA:                  -1.180
REMARK UNBOUND:                -1.051
REMARK  Name = 
REMARK  8 active torsions:
REMARK  status: ('A' for Active; 'I' for Inactive)
REMARK    1  A    between atoms: C_1  and  C_2
REMARK    2  A    between atoms: C_7  and  C_8
REMARK    3  A    between atoms: C_8  and  O_9
REMARK    4  A    between atoms: O_9  and  C_10
REMARK    5  A    between atoms: C_10  and  C_11
REMARK    6  A    between atoms: C_14  and  C_15
REMARK    7  A    between atoms: C_15  and  N_16
REMARK    8  A    between atoms: C_17  and  C_19
REMARK                            x       y       z     vdW  Elec       q    Type
REMARK                         _______ _______ _______ _____ _____    ______ ____
ROOT
ATOM      1  C   UNL     1      50.162   9.213  11.306  0.00  0.00    +0.000 A 
ATOM      2  C   UNL     1      49.862   7.902  11.702  0.00  0.00    +0.000 A 
ATOM      3  C   UNL     1      48.605   7.583  12.228  0.00  0.00    +0.000 A 
ATOM      4  C   UNL     1      47.616   8.567  12.356  0.00  0.00    +0.000 A 
ATOM      5  C   UNL     1      47.922   9.881  11.979  0.00  0.00    +0.000 A 
ATOM      6  C   UNL     1      49.179  10.199  11.454  0.00  0.00    +0.000 A 
ENDROOT
BRANCH   1   7
ATOM      7  C   UNL     1      51.529   9.567  10.775  0.00  0.00    +0.000 C 
BRANCH   7   8
ATOM      8  O   UNL     1      52.533   8.843  11.487  0.00  0.00    +0.000 OA
BRANCH   8   9
ATOM      9  C   UNL     1      53.605   8.448  10.631  0.00  0.00    +0.000 C 
BRANCH   9  16
ATOM     10  C   UNL     1      53.879   5.738   9.206  0.00  0.00    +0.000 C 
ATOM     11  C   UNL     1      52.721   6.706   8.934  0.00  0.00    +0.000 C 
ATOM     12  C   UNL     1      52.242   6.588   7.478  0.00  0.00    +0.000 C 
ATOM     13  C   UNL     1      53.230   7.222   6.506  0.00  0.00    +0.000 C 
ATOM     14  O   UNL     1      53.479   8.585   6.848  0.00  0.00    +0.000 OA
ATOM     15  C   UNL     1      54.023   8.737   8.158  0.00  0.00    +0.000 C 
ATOM     16  C   UNL     1      53.066   8.187   9.221  0.00  0.00    +0.000 C 
ENDBRANCH   9  16
ENDBRANCH   8   9
ENDBRANCH   7   8
ENDBRANCH   1   7
BRANCH   4  17
ATOM     17  C   UNL     1      46.255   8.239  12.916  0.00  0.00    +0.000 C 
BRANCH  17  18
ATOM     18  N   UNL     1      45.864   6.891  12.590  0.00  0.00    +0.000 N 
ATOM     19  C   UNL     1      44.836   6.640  11.717  0.00  0.00    +0.000 C 
ATOM     20  O   UNL     1      44.229   7.542  11.146  0.00  0.00    +0.000 OA
ATOM     21  H   UNL     1      46.181   6.156  13.214  0.00  0.00    +0.000 HD
BRANCH  19  22
ATOM     22  C   UNL     1      44.538   5.227  11.448  0.00  0.00    +0.000 A 
ATOM     23  C   UNL     1      43.828   4.483  12.381  0.00  0.00    +0.000 A 
ATOM     24  S   UNL     1      43.531   2.876  11.892  0.00  0.00    +0.000 S 
ATOM     25  C   UNL     1      44.388   3.104  10.436  0.00  0.00    +0.000 A 
ATOM     26  N   UNL     1      44.542   2.084   9.552  0.00  0.00    +0.000 NA
ATOM     27  C   UNL     1      45.239   2.387   8.506  0.00  0.00    +0.000 A 
ATOM     28  N   UNL     1      45.785   3.620   8.265  0.00  0.00    +0.000 N 
ATOM     29  C   UNL     1      45.629   4.687   9.117  0.00  0.00    +0.000 A 
ATOM     30  O   UNL     1      46.093   5.792   8.845  0.00  0.00    +0.000 OA
ATOM     31  C   UNL     1      44.870   4.395  10.317  0.00  0.00    +0.000 A 
ATOM     32  H   UNL     1      46.310   3.795   7.422  0.00  0.00    +0.000 HD
ENDBRANCH  19  22
ENDBRANCH  17  18
ENDBRANCH   4  17
TORSDOF 7
ENDMDL
