MODEL 1
REMARK VINA RESULT:    -8.483      0.000      0.000
REMARK INTER + INTRA:         -12.307
REMARK INTER:                 -11.459
REMARK INTRA:                  -0.848
REMARK UNBOUND:                -0.848
REMARK  Name = 
REMARK  7 active torsions:
REMARK  status: ('A' for Active; 'I' for Inactive)
REMARK    1  A    between atoms: C_1  and  C_2
REMARK    2  A    between atoms: C_2  and  N_3
REMARK    3  A    between atoms: C_2  and  C_11
REMARK    4  A    between atoms: N_3  and  C_4
REMARK    5  A    between atoms: C_14  and  C_15
REMARK    6  A    between atoms: C_15  and  N_16
REMARK    7  A    between atoms: C_17  and  C_19
REMARK                            x       y       z     vdW  Elec       q    Type
REMARK                         _______ _______ _______ _____ _____    ______ ____
ROOT
ATOM      1  C   UNL     1      45.139   5.353  11.646  0.00  0.00    +0.000 A 
ATOM      2  C   UNL     1      45.366   4.744  12.876  0.00  0.00    +0.000 A 
ATOM      3  C   UNL     1      46.463   5.141  13.634  0.00  0.00    +0.000 A 
ATOM      4  C   UNL     1      47.330   6.123  13.152  0.00  0.00    +0.000 A 
ATOM      5  C   UNL     1      47.016   6.699  11.930  0.00  0.00    +0.000 A 
ATOM      6  N   UNL     1      45.940   6.349  11.183  0.00  0.00    +0.000 NA
ENDROOT
BRANCH   1   8
ATOM      7  C   UNL     1      42.657   4.924  11.732  0.00  0.00    +0.000 C 
ATOM      8  C   UNL     1      43.895   4.978  10.833  0.00  0.00    +0.000 C 
BRANCH   8   9
ATOM      9  N   UNL     1      44.115   3.663  10.218  0.00  0.00    +0.000 N 
ATOM     10  H   UNL     1      43.942   2.906  10.876  0.00  0.00    +0.000 HD
BRANCH   9  11
ATOM     11  C   UNL     1      45.040   3.394   9.223  0.00  0.00    +0.000 A 
ATOM     12  C   UNL     1      45.531   4.323   8.302  0.00  0.00    +0.000 A 
ATOM     13  N   UNL     1      46.326   4.034   7.237  0.00  0.00    +0.000 NA
ATOM     14  C   UNL     1      46.656   2.732   7.067  0.00  0.00    +0.000 A 
ATOM     15  C   UNL     1      46.260   1.731   7.934  0.00  0.00    +0.000 A 
ATOM     16 CL   UNL     1      46.751   0.103   7.685  0.00  0.00    +0.000 Cl
ATOM     17  C   UNL     1      45.444   2.068   9.013  0.00  0.00    +0.000 A 
ENDBRANCH   9  11
ENDBRANCH   8   9
ENDBRANCH   1   8
BRANCH   4  18
ATOM     18  C   UNL     1      48.526   6.574  13.939  0.00  0.00    +0.000 C 
BRANCH  18  19
ATOM     19  N   UNL     1      48.196   6.778  15.329  0.00  0.00    +0.000 N 
ATOM     20  C   UNL     1      49.113   6.530  16.321  0.00  0.00    +0.000 C 
ATOM     21  O   UNL     1      50.258   6.170  16.075  0.00  0.00    +0.000 OA
ATOM     22  H   UNL     1      47.211   6.823  15.566  0.00  0.00    +0.000 HD
BRANCH  20  23
ATOM     23  C   UNL     1      48.665   6.796  17.694  0.00  0.00    +0.000 A 
ATOM     24  C   UNL     1      48.269   8.078  18.058  0.00  0.00    +0.000 A 
ATOM     25  S   UNL     1      47.735   8.199  19.672  0.00  0.00    +0.000 S 
ATOM     26  C   UNL     1      48.058   6.551  19.961  0.00  0.00    +0.000 A 
ATOM     27  N   UNL     1      47.840   6.001  21.188  0.00  0.00    +0.000 NA
ATOM     28  C   UNL     1      48.157   4.749  21.269  0.00  0.00    +0.000 A 
ATOM     29  N   UNL     1      48.662   4.004  20.239  0.00  0.00    +0.000 N 
ATOM     30  C   UNL     1      48.867   4.505  18.974  0.00  0.00    +0.000 A 
ATOM     31  O   UNL     1      49.265   3.795  18.062  0.00  0.00    +0.000 OA
ATOM     32  C   UNL     1      48.544   5.916  18.834  0.00  0.00    +0.000 A 
ATOM     33  H   UNL     1      48.873   3.021  20.366  0.00  0.00    +0.000 HD
ENDBRANCH  20  23
ENDBRANCH  18  19
ENDBRANCH   4  18
TORSDOF 6
ENDMDL
MODEL 2
REMARK VINA RESULT:    -8.273      1.434      2.229
REMARK INTER + INTRA:         -12.023
REMARK INTER:                 -10.945
REMARK INTRA:                  -1.078
REMARK UNBOUND:                -0.848
REMARK  Name = 
REMARK  7 active torsions:
REMARK  status: ('A' for Active; 'I' for Inactive)
REMARK    1  A    between atoms: C_1  and  C_2
REMARK    2  A    between atoms: C_2  and  N_3
REMARK    3  A    between atoms: C_2  and  C_11
REMARK    4  A    between atoms: N_3  and  C_4
REMARK    5  A    between atoms: C_14  and  C_15
REMARK    6  A    between atoms: C_15  and  N_16
REMARK    7  A    between atoms: C_17  and  C_19
REMARK                            x       y       z     vdW  Elec       q    Type
REMARK                         _______ _______ _______ _____ _____    ______ ____
ROOT
ATOM      1  C   UNL     1      45.121   5.340  11.707  0.00  0.00    +0.000 A 
ATOM      2  C   UNL     1      45.323   4.726  12.938  0.00  0.00    +0.000 A 
ATOM      3  C   UNL     1      46.396   5.130  13.727  0.00  0.00    +0.000 A 
ATOM      4  C   UNL     1      47.265   6.124  13.273  0.00  0.00    +0.000 A 
ATOM      5  C   UNL     1      46.976   6.704  12.047  0.00  0.00    +0.000 A 
ATOM      6  N   UNL     1      45.924   6.348  11.270  0.00  0.00    +0.000 NA
ENDROOT
BRANCH   1   8
ATOM      7  C   UNL     1      42.639   4.906  11.722  0.00  0.00    +0.000 C 
ATOM      8  C   UNL     1      43.903   4.957  10.859  0.00  0.00    +0.000 C 
BRANCH   8   9
ATOM      9  N   UNL     1      44.144   3.640  10.259  0.00  0.00    +0.000 N 
ATOM     10  H   UNL     1      43.996   2.887  10.929  0.00  0.00    +0.000 HD
BRANCH   9  11
ATOM     11  C   UNL     1      45.062   3.377   9.256  0.00  0.00    +0.000 A 
ATOM     12  C   UNL     1      45.553   4.315   8.344  0.00  0.00    +0.000 A 
ATOM     13  N   UNL     1      46.342   4.034   7.271  0.00  0.00    +0.000 NA
ATOM     14  C   UNL     1      46.662   2.733   7.083  0.00  0.00    +0.000 A 
ATOM     15  C   UNL     1      46.265   1.723   7.940  0.00  0.00    +0.000 A 
ATOM     16 CL   UNL     1      46.745   0.096   7.668  0.00  0.00    +0.000 Cl
ATOM     17  C   UNL     1      45.457   2.051   9.027  0.00  0.00    +0.000 A 
ENDBRANCH   9  11
ENDBRANCH   8   9
ENDBRANCH   1   8
BRANCH   4  18
ATOM     18  C   UNL     1      48.435   6.582  14.093  0.00  0.00    +0.000 C 
BRANCH  18  19
ATOM     19  N   UNL     1      48.076   6.742  15.482  0.00  0.00    +0.000 N 
ATOM     20  C   UNL     1      48.907   6.309  16.486  0.00  0.00    +0.000 C 
ATOM     21  O   UNL     1      50.003   5.812  16.255  0.00  0.00    +0.000 OA
ATOM     22  H   UNL     1      47.096   6.906  15.688  0.00  0.00    +0.000 HD
BRANCH  20  23
ATOM     23  C   UNL     1      48.440   6.546  17.858  0.00  0.00    +0.000 A 
ATOM     24  C   UNL     1      48.338   5.483  18.748  0.00  0.00    +0.000 A 
ATOM     25  S   UNL     1      47.827   5.940  20.309  0.00  0.00    +0.000 S 
ATOM     26  C   UNL     1      47.675   7.572  19.840  0.00  0.00    +0.000 A 
ATOM     27  N   UNL     1      47.241   8.514  20.723  0.00  0.00    +0.000 NA
ATOM     28  C   UNL     1      47.148   9.703  20.221  0.00  0.00    +0.000 A 
ATOM     29  N   UNL     1      47.453  10.031  18.928  0.00  0.00    +0.000 N 
ATOM     30  C   UNL     1      47.927   9.122  18.010  0.00  0.00    +0.000 A 
ATOM     31  O   UNL     1      48.244   9.461  16.879  0.00  0.00    +0.000 OA
ATOM     32  C   UNL     1      48.032   7.764  18.519  0.00  0.00    +0.000 A 
ATOM     33  H   UNL     1      47.374  10.988  18.604  0.00  0.00    +0.000 HD
ENDBRANCH  20  23
ENDBRANCH  18  19
ENDBRANCH   4  18
TORSDOF 6
ENDMDL
MODEL 3
REMARK VINA RESULT:    -7.371      2.706      3.414
REMARK INTER + INTRA:         -10.805
REMARK INTER:                  -9.303
REMARK INTRA:                  -1.502
REMARK UNBOUND:                -0.848
REMARK  Name = 
REMARK  7 active torsions:
REMARK  status: ('A' for Active; 'I' for Inactive)
REMARK    1  A    between atoms: C_1  and  C_2
REMARK    2  A    between atoms: C_2  and  N_3
REMARK    3  A    between atoms: C_2  and  C_11
REMARK    4  A    between atoms: N_3  and  C_4
REMARK    5  A    between atoms: C_14  and  C_15
REMARK    6  A    between atoms: C_15  and  N_16
REMARK    7  A    between atoms: C_17  and  C_19
REMARK                            x       y       z     vdW  Elec       q    Type
REMARK                         _______ _______ _______ _____ _____    ______ ____
ROOT
ATOM      1  C   UNL     1      45.716   7.857  11.755  0.00  0.00    +0.000 A 
ATOM      2  C   UNL     1      46.708   6.938  11.430  0.00  0.00    +0.000 A 
ATOM      3  C   UNL     1      47.918   6.978  12.117  0.00  0.00    +0.000 A 
ATOM      4  C   UNL     1      48.132   7.942  13.104  0.00  0.00    +0.000 A 
ATOM      5  C   UNL     1      47.081   8.801  13.386  0.00  0.00    +0.000 A 
ATOM      6  N   UNL     1      45.884   8.768  12.750  0.00  0.00    +0.000 NA
ENDROOT
BRANCH   1   8
ATOM      7  C   UNL     1      43.729   9.172  10.936  0.00  0.00    +0.000 C 
ATOM      8  C   UNL     1      44.354   7.779  11.058  0.00  0.00    +0.000 C 
BRANCH   8   9
ATOM      9  N   UNL     1      43.472   6.910  11.844  0.00  0.00    +0.000 N 
ATOM     10  H   UNL     1      43.230   7.330  12.740  0.00  0.00    +0.000 HD
BRANCH   9  11
ATOM     11  C   UNL     1      43.486   5.525  11.816  0.00  0.00    +0.000 A 
ATOM     12  C   UNL     1      43.344   4.692  12.928  0.00  0.00    +0.000 A 
ATOM     13  N   UNL     1      43.500   3.340  12.926  0.00  0.00    +0.000 NA
ATOM     14  C   UNL     1      43.825   2.773  11.741  0.00  0.00    +0.000 A 
ATOM     15  C   UNL     1      43.955   3.491  10.567  0.00  0.00    +0.000 A 
ATOM     16 CL   UNL     1      44.325   2.702   9.086  0.00  0.00    +0.000 Cl
ATOM     17  C   UNL     1      43.789   4.874  10.611  0.00  0.00    +0.000 A 
ENDBRANCH   9  11
ENDBRANCH   8   9
ENDBRANCH   1   8
BRANCH   4  18
ATOM     18  C   UNL     1      49.424   8.019  13.863  0.00  0.00    +0.000 C 
BRANCH  18  19
ATOM     19  N   UNL     1      49.460   7.061  14.942  0.00  0.00    +0.000 N 
ATOM     20  C   UNL     1      49.160   7.429  16.231  0.00  0.00    +0.000 C 
ATOM     21  O   UNL     1      48.809   8.568  16.518  0.00  0.00    +0.000 OA
ATOM     22  H   UNL     1      49.981   6.205  14.781  0.00  0.00    +0.000 HD
BRANCH  20  23
ATOM     23  C   UNL     1      49.212   6.360  17.236  0.00  0.00    +0.000 A 
ATOM     24  C   UNL     1      50.000   6.515  18.371  0.00  0.00    +0.000 A 
ATOM     25  S   UNL     1      49.907   5.202  19.455  0.00  0.00    +0.000 S 
ATOM     26  C   UNL     1      48.846   4.355  18.425  0.00  0.00    +0.000 A 
ATOM     27  N   UNL     1      48.391   3.115  18.757  0.00  0.00    +0.000 NA
ATOM     28  C   UNL     1      47.616   2.582  17.868  0.00  0.00    +0.000 A 
ATOM     29  N   UNL     1      47.256   3.175  16.690  0.00  0.00    +0.000 N 
ATOM     30  C   UNL     1      47.663   4.439  16.325  0.00  0.00    +0.000 A 
ATOM     31  O   UNL     1      47.274   4.961  15.291  0.00  0.00    +0.000 OA
ATOM     32  C   UNL     1      48.551   5.076  17.283  0.00  0.00    +0.000 A 
ATOM     33  H   UNL     1      46.631   2.707  16.045  0.00  0.00    +0.000 HD
ENDBRANCH  20  23
ENDBRANCH  18  19
ENDBRANCH   4  18
TORSDOF 6
ENDMDL
MODEL 4
REMARK VINA RESULT:    -7.299      3.707      8.829
REMARK INTER + INTRA:         -10.707
REMARK INTER:                  -9.696
REMARK INTRA:                  -1.011
REMARK UNBOUND:                -0.848
REMARK  Name = 
REMARK  7 active torsions:
REMARK  status: ('A' for Active; 'I' for Inactive)
REMARK    1  A    between atoms: C_1  and  C_2
REMARK    2  A    between atoms: C_2  and  N_3
REMARK    3  A    between atoms: C_2  and  C_11
REMARK    4  A    between atoms: N_3  and  C_4
REMARK    5  A    between atoms: C_14  and  C_15
REMARK    6  A    between atoms: C_15  and  N_16
REMARK    7  A    between atoms: C_17  and  C_19
REMARK                            x       y       z     vdW  Elec       q    Type
REMARK                         _______ _______ _______ _____ _____    ______ ____
ROOT
ATOM      1  C   UNL     1      49.494   7.727  15.859  0.00  0.00    +0.000 A 
ATOM      2  C   UNL     1      48.427   8.606  15.712  0.00  0.00    +0.000 A 
ATOM      3  C   UNL     1      47.750   8.650  14.497  0.00  0.00    +0.000 A 
ATOM      4  C   UNL     1      48.154   7.833  13.440  0.00  0.00    +0.000 A 
ATOM      5  C   UNL     1      49.208   6.965  13.679  0.00  0.00    +0.000 A 
ATOM      6  N   UNL     1      49.870   6.884  14.860  0.00  0.00    +0.000 NA
ENDROOT
BRANCH   1   8
ATOM      7  C   UNL     1      51.598   7.004  17.045  0.00  0.00    +0.000 C 
ATOM      8  C   UNL     1      50.204   7.617  17.213  0.00  0.00    +0.000 C 
BRANCH   8   9
ATOM      9  N   UNL     1      49.397   6.770  18.099  0.00  0.00    +0.000 N 
ATOM     10  H   UNL     1      49.665   6.882  19.075  0.00  0.00    +0.000 HD
BRANCH   9  11
ATOM     11  C   UNL     1      48.872   5.534  17.759  0.00  0.00    +0.000 A 
ATOM     12  C   UNL     1      47.512   5.219  17.710  0.00  0.00    +0.000 A 
ATOM     13  N   UNL     1      46.997   3.975  17.517  0.00  0.00    +0.000 NA
ATOM     14  C   UNL     1      47.890   2.969  17.369  0.00  0.00    +0.000 A 
ATOM     15  C   UNL     1      49.259   3.166  17.362  0.00  0.00    +0.000 A 
ATOM     16 CL   UNL     1      50.338   1.851  17.123  0.00  0.00    +0.000 Cl
ATOM     17  C   UNL     1      49.747   4.455  17.564  0.00  0.00    +0.000 A 
ENDBRANCH   9  11
ENDBRANCH   8   9
ENDBRANCH   1   8
BRANCH   4  18
ATOM     18  C   UNL     1      47.451   7.854  12.114  0.00  0.00    +0.000 C 
BRANCH  18  19
ATOM     19  N   UNL     1      46.782   6.603  11.851  0.00  0.00    +0.000 N 
ATOM     20  C   UNL     1      45.430   6.464  12.045  0.00  0.00    +0.000 C 
ATOM     21  O   UNL     1      44.724   7.400  12.406  0.00  0.00    +0.000 OA
ATOM     22  H   UNL     1      47.362   5.772  11.804  0.00  0.00    +0.000 HD
BRANCH  20  23
ATOM     23  C   UNL     1      44.863   5.149  11.723  0.00  0.00    +0.000 A 
ATOM     24  C   UNL     1      44.151   4.447  12.689  0.00  0.00    +0.000 A 
ATOM     25  S   UNL     1      43.522   2.962  12.134  0.00  0.00    +0.000 S 
ATOM     26  C   UNL     1      44.219   3.179  10.595  0.00  0.00    +0.000 A 
ATOM     27  N   UNL     1      44.080   2.233   9.625  0.00  0.00    +0.000 NA
ATOM     28  C   UNL     1      44.686   2.519   8.518  0.00  0.00    +0.000 A 
ATOM     29  N   UNL     1      45.407   3.660   8.295  0.00  0.00    +0.000 N 
ATOM     30  C   UNL     1      45.548   4.659   9.231  0.00  0.00    +0.000 A 
ATOM     31  O   UNL     1      46.152   5.691   8.977  0.00  0.00    +0.000 OA
ATOM     32  C   UNL     1      44.901   4.378  10.502  0.00  0.00    +0.000 A 
ATOM     33  H   UNL     1      45.843   3.829   7.396  0.00  0.00    +0.000 HD
ENDBRANCH  20  23
ENDBRANCH  18  19
ENDBRANCH   4  18
TORSDOF 6
ENDMDL
MODEL 5
REMARK VINA RESULT:    -7.290      4.542      5.845
REMARK INTER + INTRA:         -10.695
REMARK INTER:                  -9.949
REMARK INTRA:                  -0.746
REMARK UNBOUND:                -0.848
REMARK  Name = 
REMARK  7 active torsions:
REMARK  status: ('A' for Active; 'I' for Inactive)
REMARK    1  A    between atoms: C_1  and  C_2
REMARK    2  A    between atoms: C_2  and  N_3
REMARK    3  A    between atoms: C_2  and  C_11
REMARK    4  A    between atoms: N_3  and  C_4
REMARK    5  A    between atoms: C_14  and  C_15
REMARK    6  A    between atoms: C_15  and  N_16
REMARK    7  A    between atoms: C_17  and  C_19
REMARK                            x       y       z     vdW  Elec       q    Type
REMARK                         _______ _______ _______ _____ _____    ______ ____
ROOT
ATOM      1  C   UNL     1      45.159   7.724  12.035  0.00  0.00    +0.000 A 
ATOM      2  C   UNL     1      46.429   7.701  12.599  0.00  0.00    +0.000 A 
ATOM      3  C   UNL     1      46.846   6.561  13.280  0.00  0.00    +0.000 A 
ATOM      4  C   UNL     1      45.989   5.467  13.406  0.00  0.00    +0.000 A 
ATOM      5  C   UNL     1      44.750   5.560  12.790  0.00  0.00    +0.000 A 
ATOM      6  N   UNL     1      44.328   6.649  12.100  0.00  0.00    +0.000 NA
ENDROOT
BRANCH   1   8
ATOM      7  C   UNL     1      44.981  10.238  11.996  0.00  0.00    +0.000 C 
ATOM      8  C   UNL     1      44.712   8.944  11.222  0.00  0.00    +0.000 C 
BRANCH   8   9
ATOM      9  N   UNL     1      43.276   8.824  10.946  0.00  0.00    +0.000 N 
ATOM     10  H   UNL     1      43.014   7.866  10.720  0.00  0.00    +0.000 HD
BRANCH   9  11
ATOM     11  C   UNL     1      42.490   9.811  10.376  0.00  0.00    +0.000 A 
ATOM     12  C   UNL     1      42.882  10.657   9.335  0.00  0.00    +0.000 A 
ATOM     13  N   UNL     1      42.169  11.718   8.869  0.00  0.00    +0.000 NA
ATOM     14  C   UNL     1      40.987  11.964   9.481  0.00  0.00    +0.000 A 
ATOM     15  C   UNL     1      40.479  11.174  10.495  0.00  0.00    +0.000 A 
ATOM     16 CL   UNL     1      38.949  11.517  11.198  0.00  0.00    +0.000 Cl
ATOM     17  C   UNL     1      41.240  10.097  10.945  0.00  0.00    +0.000 A 
ENDBRANCH   9  11
ENDBRANCH   8   9
ENDBRANCH   1   8
BRANCH   4  18
ATOM     18  C   UNL     1      46.402   4.222  14.136  0.00  0.00    +0.000 C 
BRANCH  18  19
ATOM     19  N   UNL     1      47.501   4.478  15.035  0.00  0.00    +0.000 N 
ATOM     20  C   UNL     1      47.465   4.055  16.341  0.00  0.00    +0.000 C 
ATOM     21  O   UNL     1      46.526   3.407  16.791  0.00  0.00    +0.000 OA
ATOM     22  H   UNL     1      48.152   5.210  14.771  0.00  0.00    +0.000 HD
BRANCH  20  23
ATOM     23  C   UNL     1      48.653   4.357  17.150  0.00  0.00    +0.000 A 
ATOM     24  C   UNL     1      48.733   5.562  17.838  0.00  0.00    +0.000 A 
ATOM     25  S   UNL     1      50.154   5.730  18.765  0.00  0.00    +0.000 S 
ATOM     26  C   UNL     1      50.739   4.217  18.243  0.00  0.00    +0.000 A 
ATOM     27  N   UNL     1      51.953   3.757  18.656  0.00  0.00    +0.000 NA
ATOM     28  C   UNL     1      52.279   2.608  18.157  0.00  0.00    +0.000 A 
ATOM     29  N   UNL     1      51.504   1.883  17.295  0.00  0.00    +0.000 N 
ATOM     30  C   UNL     1      50.257   2.290  16.875  0.00  0.00    +0.000 A 
ATOM     31  O   UNL     1      49.567   1.590  16.149  0.00  0.00    +0.000 OA
ATOM     32  C   UNL     1      49.850   3.586  17.393  0.00  0.00    +0.000 A 
ATOM     33  H   UNL     1      51.813   0.980  16.955  0.00  0.00    +0.000 HD
ENDBRANCH  20  23
ENDBRANCH  18  19
ENDBRANCH   4  18
TORSDOF 6
ENDMDL
MODEL 6
REMARK VINA RESULT:    -7.130      4.340      6.464
REMARK INTER + INTRA:         -10.479
REMARK INTER:                  -9.480
REMARK INTRA:                  -1.000
REMARK UNBOUND:                -0.848
REMARK  Name = 
REMARK  7 active torsions:
REMARK  status: ('A' for Active; 'I' for Inactive)
REMARK    1  A    between atoms: C_1  and  C_2
REMARK    2  A    between atoms: C_2  and  N_3
REMARK    3  A    between atoms: C_2  and  C_11
REMARK    4  A    between atoms: N_3  and  C_4
REMARK    5  A    between atoms: C_14  and  C_15
REMARK    6  A    between atoms: C_15  and  N_16
REMARK    7  A    between atoms: C_17  and  C_19
REMARK                            x       y       z     vdW  Elec       q    Type
REMARK                         _______ _______ _______ _____ _____    ______ ____
ROOT
ATOM      1  C   UNL     1      45.118   5.405  11.672  0.00  0.00    +0.000 A 
ATOM      2  C   UNL     1      45.673   6.579  11.174  0.00  0.00    +0.000 A 
ATOM      3  C   UNL     1      46.870   7.042  11.712  0.00  0.00    +0.000 A 
ATOM      4  C   UNL     1      47.490   6.342  12.748  0.00  0.00    +0.000 A 
ATOM      5  C   UNL     1      46.886   5.166  13.167  0.00  0.00    +0.000 A 
ATOM      6  N   UNL     1      45.733   4.679  12.644  0.00  0.00    +0.000 NA
ENDROOT
BRANCH   1   8
ATOM      7  C   UNL     1      42.748   4.664  12.102  0.00  0.00    +0.000 C 
ATOM      8  C   UNL     1      43.839   4.845  11.041  0.00  0.00    +0.000 C 
BRANCH   8   9
ATOM      9  N   UNL     1      44.147   3.550  10.424  0.00  0.00    +0.000 N 
ATOM     10  H   UNL     1      44.111   2.791  11.103  0.00  0.00    +0.000 HD
BRANCH   9  11
ATOM     11  C   UNL     1      45.009   3.361   9.357  0.00  0.00    +0.000 A 
ATOM     12  C   UNL     1      45.354   4.332   8.414  0.00  0.00    +0.000 A 
ATOM     13  N   UNL     1      46.084   4.114   7.288  0.00  0.00    +0.000 NA
ATOM     14  C   UNL     1      46.498   2.843   7.075  0.00  0.00    +0.000 A 
ATOM     15  C   UNL     1      46.250   1.808   7.956  0.00  0.00    +0.000 A 
ATOM     16 CL   UNL     1      46.844   0.225   7.648  0.00  0.00    +0.000 Cl
ATOM     17  C   UNL     1      45.497   2.071   9.099  0.00  0.00    +0.000 A 
ENDBRANCH   9  11
ENDBRANCH   8   9
ENDBRANCH   1   8
BRANCH   4  18
ATOM     18  C   UNL     1      48.779   6.812  13.356  0.00  0.00    +0.000 C 
BRANCH  18  19
ATOM     19  N   UNL     1      49.497   7.687  12.460  0.00  0.00    +0.000 N 
ATOM     20  C   UNL     1      50.648   8.322  12.856  0.00  0.00    +0.000 C 
ATOM     21  O   UNL     1      51.142   8.144  13.964  0.00  0.00    +0.000 OA
ATOM     22  H   UNL     1      48.988   8.042  11.657  0.00  0.00    +0.000 HD
BRANCH  20  23
ATOM     23  C   UNL     1      51.298   9.169  11.848  0.00  0.00    +0.000 A 
ATOM     24  C   UNL     1      52.662   9.042  11.612  0.00  0.00    +0.000 A 
ATOM     25  S   UNL     1      53.243  10.066  10.379  0.00  0.00    +0.000 S 
ATOM     26  C   UNL     1      51.701  10.753  10.147  0.00  0.00    +0.000 A 
ATOM     27  N   UNL     1      51.507  11.740   9.228  0.00  0.00    +0.000 NA
ATOM     28  C   UNL     1      50.293  12.185   9.181  0.00  0.00    +0.000 A 
ATOM     29  N   UNL     1      49.264  11.732   9.960  0.00  0.00    +0.000 N 
ATOM     30  C   UNL     1      49.404  10.715  10.877  0.00  0.00    +0.000 A 
ATOM     31  O   UNL     1      48.449  10.296  11.516  0.00  0.00    +0.000 OA
ATOM     32  C   UNL     1      50.755  10.191  10.983  0.00  0.00    +0.000 A 
ATOM     33  H   UNL     1      48.332  12.114   9.859  0.00  0.00    +0.000 HD
ENDBRANCH  20  23
ENDBRANCH  18  19
ENDBRANCH   4  18
TORSDOF 6
ENDMDL
MODEL 7
REMARK VINA RESULT:    -7.016      4.360      9.052
REMARK INTER + INTRA:         -10.325
REMARK INTER:                  -9.200
REMARK INTRA:                  -1.125
REMARK UNBOUND:                -0.848
REMARK  Name = 
REMARK  7 active torsions:
REMARK  status: ('A' for Active; 'I' for Inactive)
REMARK    1  A    between atoms: C_1  and  C_2
REMARK    2  A    between atoms: C_2  and  N_3
REMARK    3  A    between atoms: C_2  and  C_11
REMARK    4  A    between atoms: N_3  and  C_4
REMARK    5  A    between atoms: C_14  and  C_15
REMARK    6  A    between atoms: C_15  and  N_16
REMARK    7  A    between atoms: C_17  and  C_19
REMARK                            x       y       z     vdW  Elec       q    Type
REMARK                         _______ _______ _______ _____ _____    ______ ____
ROOT
ATOM      1  C   UNL     1      51.355   3.841  18.021  0.00  0.00    +0.000 A 
ATOM      2  C   UNL     1      50.954   2.651  17.423  0.00  0.00    +0.000 A 
ATOM      3  C   UNL     1      49.622   2.498  17.049  0.00  0.00    +0.000 A 
ATOM      4  C   UNL     1      48.704   3.521  17.291  0.00  0.00    +0.000 A 
ATOM      5  C   UNL     1      49.192   4.686  17.864  0.00  0.00    +0.000 A 
ATOM      6  N   UNL     1      50.489   4.872  18.215  0.00  0.00    +0.000 NA
ENDROOT
BRANCH   1   8
ATOM      7  C   UNL     1      53.083   3.751  19.853  0.00  0.00    +0.000 C 
ATOM      8  C   UNL     1      52.832   4.053  18.372  0.00  0.00    +0.000 C 
BRANCH   8   9
ATOM      9  N   UNL     1      53.188   5.447  18.086  0.00  0.00    +0.000 N 
ATOM     10  H   UNL     1      52.676   6.097  18.680  0.00  0.00    +0.000 HD
BRANCH   9  11
ATOM     11  C   UNL     1      53.560   5.936  16.845  0.00  0.00    +0.000 A 
ATOM     12  C   UNL     1      54.766   5.660  16.196  0.00  0.00    +0.000 A 
ATOM     13  N   UNL     1      55.196   6.248  15.047  0.00  0.00    +0.000 NA
ATOM     14  C   UNL     1      54.379   7.180  14.504  0.00  0.00    +0.000 A 
ATOM     15  C   UNL     1      53.146   7.508  15.036  0.00  0.00    +0.000 A 
ATOM     16 CL   UNL     1      52.136   8.669  14.272  0.00  0.00    +0.000 Cl
ATOM     17  C   UNL     1      52.741   6.884  16.215  0.00  0.00    +0.000 A 
ENDBRANCH   9  11
ENDBRANCH   8   9
ENDBRANCH   1   8
BRANCH   4  18
ATOM     18  C   UNL     1      47.259   3.391  16.906  0.00  0.00    +0.000 C 
BRANCH  18  19
ATOM     19  N   UNL     1      46.877   4.399  15.946  0.00  0.00    +0.000 N 
ATOM     20  C   UNL     1      46.972   4.168  14.596  0.00  0.00    +0.000 C 
ATOM     21  O   UNL     1      47.341   3.089  14.143  0.00  0.00    +0.000 OA
ATOM     22  H   UNL     1      46.818   5.355  16.281  0.00  0.00    +0.000 HD
BRANCH  20  23
ATOM     23  C   UNL     1      46.533   5.262  13.721  0.00  0.00    +0.000 A 
ATOM     24  C   UNL     1      47.352   6.369  13.533  0.00  0.00    +0.000 A 
ATOM     25  S   UNL     1      46.712   7.522  12.452  0.00  0.00    +0.000 S 
ATOM     26  C   UNL     1      45.292   6.607  12.231  0.00  0.00    +0.000 A 
ATOM     27  N   UNL     1      44.291   7.054  11.423  0.00  0.00    +0.000 NA
ATOM     28  C   UNL     1      43.263   6.270  11.373  0.00  0.00    +0.000 A 
ATOM     29  N   UNL     1      43.151   5.086  12.048  0.00  0.00    +0.000 N 
ATOM     30  C   UNL     1      44.147   4.576  12.849  0.00  0.00    +0.000 A 
ATOM     31  O   UNL     1      44.036   3.486  13.392  0.00  0.00    +0.000 OA
ATOM     32  C   UNL     1      45.319   5.429  12.955  0.00  0.00    +0.000 A 
ATOM     33  H   UNL     1      42.322   4.511  11.950  0.00  0.00    +0.000 HD
ENDBRANCH  20  23
ENDBRANCH  18  19
ENDBRANCH   4  18
TORSDOF 6
ENDMDL
MODEL 8
REMARK VINA RESULT:    -7.013      2.463      3.525
REMARK INTER + INTRA:         -10.320
REMARK INTER:                  -9.285
REMARK INTRA:                  -1.036
REMARK UNBOUND:                -0.848
REMARK  Name = 
REMARK  7 active torsions:
REMARK  status: ('A' for Active; 'I' for Inactive)
REMARK    1  A    between atoms: C_1  and  C_2
REMARK    2  A    between atoms: C_2  and  N_3
REMARK    3  A    between atoms: C_2  and  C_11
REMARK    4  A    between atoms: N_3  and  C_4
REMARK    5  A    between atoms: C_14  and  C_15
REMARK    6  A    between atoms: C_15  and  N_16
REMARK    7  A    between atoms: C_17  and  C_19
REMARK                            x       y       z     vdW  Elec       q    Type
REMARK                         _______ _______ _______ _____ _____    ______ ____
ROOT
ATOM      1  C   UNL     1      46.243   7.644  12.259  0.00  0.00    +0.000 A 
ATOM      2  C   UNL     1      47.131   6.606  12.000  0.00  0.00    +0.000 A 
ATOM      3  C   UNL     1      48.271   6.480  12.787  0.00  0.00    +0.000 A 
ATOM      4  C   UNL     1      48.523   7.397  13.809  0.00  0.00    +0.000 A 
ATOM      5  C   UNL     1      47.573   8.385  14.019  0.00  0.00    +0.000 A 
ATOM      6  N   UNL     1      46.441   8.516  13.284  0.00  0.00    +0.000 NA
ENDROOT
BRANCH   1   8
ATOM      7  C   UNL     1      44.475   9.210  11.377  0.00  0.00    +0.000 C 
ATOM      8  C   UNL     1      44.947   7.754  11.447  0.00  0.00    +0.000 C 
BRANCH   8   9
ATOM      9  N   UNL     1      43.917   6.932  12.093  0.00  0.00    +0.000 N 
ATOM     10  H   UNL     1      43.655   7.304  13.004  0.00  0.00    +0.000 HD
BRANCH   9  11
ATOM     11  C   UNL     1      43.780   5.563  11.941  0.00  0.00    +0.000 A 
ATOM     12  C   UNL     1      43.517   4.657  12.972  0.00  0.00    +0.000 A 
ATOM     13  N   UNL     1      43.524   3.302  12.852  0.00  0.00    +0.000 NA
ATOM     14  C   UNL     1      43.817   2.806  11.627  0.00  0.00    +0.000 A 
ATOM     15  C   UNL     1      44.056   3.605  10.525  0.00  0.00    +0.000 A 
ATOM     16 CL   UNL     1      44.378   2.911   8.986  0.00  0.00    +0.000 Cl
ATOM     17  C   UNL     1      44.042   4.989  10.688  0.00  0.00    +0.000 A 
ENDBRANCH   9  11
ENDBRANCH   8   9
ENDBRANCH   1   8
BRANCH   4  18
ATOM     18  C   UNL     1      49.743   7.296  14.676  0.00  0.00    +0.000 C 
BRANCH  18  19
ATOM     19  N   UNL     1      49.394   7.261  16.076  0.00  0.00    +0.000 N 
ATOM     20  C   UNL     1      48.843   6.138  16.643  0.00  0.00    +0.000 C 
ATOM     21  O   UNL     1      48.662   5.107  16.006  0.00  0.00    +0.000 OA
ATOM     22  H   UNL     1      49.295   8.153  16.548  0.00  0.00    +0.000 HD
BRANCH  20  23
ATOM     23  C   UNL     1      48.550   6.219  18.080  0.00  0.00    +0.000 A 
ATOM     24  C   UNL     1      48.735   5.103  18.888  0.00  0.00    +0.000 A 
ATOM     25  S   UNL     1      48.395   5.383  20.535  0.00  0.00    +0.000 S 
ATOM     26  C   UNL     1      47.940   6.996  20.223  0.00  0.00    +0.000 A 
ATOM     27  N   UNL     1      47.505   7.806  21.228  0.00  0.00    +0.000 NA
ATOM     28  C   UNL     1      47.168   8.993  20.840  0.00  0.00    +0.000 A 
ATOM     29  N   UNL     1      47.230   9.439  19.548  0.00  0.00    +0.000 N 
ATOM     30  C   UNL     1      47.694   8.670  18.505  0.00  0.00    +0.000 A 
ATOM     31  O   UNL     1      47.790   9.120  17.373  0.00  0.00    +0.000 OA
ATOM     32  C   UNL     1      48.069   7.318  18.885  0.00  0.00    +0.000 A 
ATOM     33  H   UNL     1      46.966  10.389  19.316  0.00  0.00    +0.000 HD
ENDBRANCH  20  23
ENDBRANCH  18  19
ENDBRANCH   4  18
TORSDOF 6
ENDMDL
MODEL 9
REMARK VINA RESULT:    -6.841      2.307      3.020
REMARK INTER + INTRA:         -10.088
REMARK INTER:                  -9.086
REMARK INTRA:                  -1.003
REMARK UNBOUND:                -0.848
REMARK  Name = 
REMARK  7 active torsions:
REMARK  status: ('A' for Active; 'I' for Inactive)
REMARK    1  A    between atoms: C_1  and  C_2
REMARK    2  A    between atoms: C_2  and  N_3
REMARK    3  A    between atoms: C_2  and  C_11
REMARK    4  A    between atoms: N_3  and  C_4
REMARK    5  A    between atoms: C_14  and  C_15
REMARK    6  A    between atoms: C_15  and  N_16
REMARK    7  A    between atoms: C_17  and  C_19
REMARK                            x       y       z     vdW  Elec       q    Type
REMARK                         _______ _______ _______ _____ _____    ______ ____
ROOT
ATOM      1  C   UNL     1      46.357   7.628  12.272  0.00  0.00    +0.000 A 
ATOM      2  C   UNL     1      47.277   6.637  11.949  0.00  0.00    +0.000 A 
ATOM      3  C   UNL     1      48.429   6.507  12.719  0.00  0.00    +0.000 A 
ATOM      4  C   UNL     1      48.659   7.375  13.788  0.00  0.00    +0.000 A 
ATOM      5  C   UNL     1      47.677   8.316  14.060  0.00  0.00    +0.000 A 
ATOM      6  N   UNL     1      46.535   8.448  13.341  0.00  0.00    +0.000 NA
ENDROOT
BRANCH   1   8
ATOM      7  C   UNL     1      44.588   9.195  11.394  0.00  0.00    +0.000 C 
ATOM      8  C   UNL     1      45.051   7.737  11.477  0.00  0.00    +0.000 C 
BRANCH   8   9
ATOM      9  N   UNL     1      44.024   6.931  12.148  0.00  0.00    +0.000 N 
ATOM     10  H   UNL     1      43.800   7.299  13.071  0.00  0.00    +0.000 HD
BRANCH   9  11
ATOM     11  C   UNL     1      43.852   5.566  11.988  0.00  0.00    +0.000 A 
ATOM     12  C   UNL     1      43.566   4.662  13.014  0.00  0.00    +0.000 A 
ATOM     13  N   UNL     1      43.538   3.308  12.886  0.00  0.00    +0.000 NA
ATOM     14  C   UNL     1      43.818   2.812  11.659  0.00  0.00    +0.000 A 
ATOM     15  C   UNL     1      44.078   3.610  10.560  0.00  0.00    +0.000 A 
ATOM     16 CL   UNL     1      44.381   2.917   9.018  0.00  0.00    +0.000 Cl
ATOM     17  C   UNL     1      44.099   4.993  10.732  0.00  0.00    +0.000 A 
ENDBRANCH   9  11
ENDBRANCH   8   9
ENDBRANCH   1   8
BRANCH   4  18
ATOM     18  C   UNL     1      49.890   7.269  14.639  0.00  0.00    +0.000 C 
BRANCH  18  19
ATOM     19  N   UNL     1      49.569   7.347  16.044  0.00  0.00    +0.000 N 
ATOM     20  C   UNL     1      49.162   6.238  16.743  0.00  0.00    +0.000 C 
ATOM     21  O   UNL     1      49.095   5.129  16.225  0.00  0.00    +0.000 OA
ATOM     22  H   UNL     1      49.373   8.268  16.420  0.00  0.00    +0.000 HD
BRANCH  20  23
ATOM     23  C   UNL     1      48.884   6.441  18.171  0.00  0.00    +0.000 A 
ATOM     24  C   UNL     1      47.912   7.354  18.564  0.00  0.00    +0.000 A 
ATOM     25  S   UNL     1      47.684   7.429  20.252  0.00  0.00    +0.000 S 
ATOM     26  C   UNL     1      48.912   6.279  20.525  0.00  0.00    +0.000 A 
ATOM     27  N   UNL     1      49.249   5.904  21.790  0.00  0.00    +0.000 NA
ATOM     28  C   UNL     1      50.215   5.045  21.845  0.00  0.00    +0.000 A 
ATOM     29  N   UNL     1      50.865   4.529  20.757  0.00  0.00    +0.000 N 
ATOM     30  C   UNL     1      50.538   4.852  19.460  0.00  0.00    +0.000 A 
ATOM     31  O   UNL     1      51.101   4.327  18.510  0.00  0.00    +0.000 OA
ATOM     32  C   UNL     1      49.468   5.829  19.342  0.00  0.00    +0.000 A 
ATOM     33  H   UNL     1      51.604   3.846  20.872  0.00  0.00    +0.000 HD
ENDBRANCH  20  23
ENDBRANCH  18  19
ENDBRANCH   4  18
TORSDOF 6
ENDMDL
