MODEL 1
REMARK VINA RESULT:    -8.032      0.000      0.000
REMARK INTER + INTRA:         -11.330
REMARK INTER:                 -10.380
REMARK INTRA:                  -0.950
REMARK UNBOUND:                -0.950
REMARK  Name = 
REMARK  5 active torsions:
REMARK  status: ('A' for Active; 'I' for Inactive)
REMARK    1  A    between atoms: C_2  and  C_3
REMARK    2  A    between atoms: C_8  and  O_9
REMARK    3  A    between atoms: O_9  and  C_10
REMARK    4  A    between atoms: C_10  and  C_11
REMARK    5  A    between atoms: C_16  and  C_17
REMARK                            x       y       z     vdW  Elec       q    Type
REMARK                         _______ _______ _______ _____ _____    ______ ____
ROOT
ATOM      1  C   UNL     1      44.466   5.122  10.658  0.00  0.00    +0.000 A 
ATOM      2  C   UNL     1      43.664   4.251  11.396  0.00  0.00    +0.000 A 
ATOM      3  C   UNL     1      43.618   2.907  11.054  0.00  0.00    +0.000 A 
ATOM      4  F   UNL     1      42.861   2.069  11.775  0.00  0.00    +0.000 F 
ATOM      5  C   UNL     1      44.357   2.407   9.984  0.00  0.00    +0.000 A 
ATOM      6  C   UNL     1      45.159   3.254   9.204  0.00  0.00    +0.000 A 
ATOM      7  C   UNL     1      45.185   4.618   9.559  0.00  0.00    +0.000 A 
ENDROOT
BRANCH   6   8
ATOM      8  C   UNL     1      45.951   2.745   8.058  0.00  0.00    +0.000 A 
ATOM      9  C   UNL     1      46.237   3.551   6.948  0.00  0.00    +0.000 A 
ATOM     10  C   UNL     1      46.995   3.037   5.907  0.00  0.00    +0.000 A 
ATOM     11  N   UNL     1      47.497   1.786   5.888  0.00  0.00    +0.000 NA
ATOM     12  C   UNL     1      47.217   1.014   6.955  0.00  0.00    +0.000 A 
ATOM     13  C   UNL     1      46.458   1.437   8.037  0.00  0.00    +0.000 A 
ENDBRANCH   6   8
BRANCH   1  14
ATOM     14  C   UNL     1      44.602   6.573  11.045  0.00  0.00    +0.000 C 
BRANCH  14  15
ATOM     15  O   UNL     1      45.078   6.688  12.381  0.00  0.00    +0.000 OA
BRANCH  15  21
ATOM     16  C   UNL     1      47.304   5.807  13.173  0.00  0.00    +0.000 A 
ATOM     17  N   UNL     1      48.644   6.024  13.325  0.00  0.00    +0.000 NA
ATOM     18  C   UNL     1      49.140   7.203  12.907  0.00  0.00    +0.000 A 
ATOM     19  C   UNL     1      48.364   8.189  12.335  0.00  0.00    +0.000 A 
ATOM     20  C   UNL     1      46.999   7.951  12.186  0.00  0.00    +0.000 A 
ATOM     21  C   UNL     1      46.430   6.741  12.606  0.00  0.00    +0.000 A 
BRANCH  16  23
ATOM     22  N   UNL     1      46.583   3.456  14.015  0.00  0.00    +0.000 NA
ATOM     23  C   UNL     1      46.915   4.515  13.662  0.00  0.00    +0.000 C 
ENDBRANCH  16  23
ENDBRANCH  15  21
ENDBRANCH  14  15
ENDBRANCH   1  14
TORSDOF 5
ENDMDL
MODEL 2
REMARK VINA RESULT:    -7.415      1.605      2.116
REMARK INTER + INTRA:         -10.532
REMARK INTER:                  -9.614
REMARK INTRA:                  -0.917
REMARK UNBOUND:                -0.950
REMARK  Name = 
REMARK  5 active torsions:
REMARK  status: ('A' for Active; 'I' for Inactive)
REMARK    1  A    between atoms: C_2  and  C_3
REMARK    2  A    between atoms: C_8  and  O_9
REMARK    3  A    between atoms: O_9  and  C_10
REMARK    4  A    between atoms: C_10  and  C_11
REMARK    5  A    between atoms: C_16  and  C_17
REMARK                            x       y       z     vdW  Elec       q    Type
REMARK                         _______ _______ _______ _____ _____    ______ ____
ROOT
ATOM      1  C   UNL     1      45.354   6.436  11.398  0.00  0.00    +0.000 A 
ATOM      2  C   UNL     1      44.005   6.375  11.750  0.00  0.00    +0.000 A 
ATOM      3  C   UNL     1      43.188   5.418  11.163  0.00  0.00    +0.000 A 
ATOM      4  F   UNL     1      41.897   5.350  11.515  0.00  0.00    +0.000 F 
ATOM      5  C   UNL     1      43.688   4.517  10.225  0.00  0.00    +0.000 A 
ATOM      6  C   UNL     1      45.034   4.560   9.830  0.00  0.00    +0.000 A 
ATOM      7  C   UNL     1      45.846   5.545  10.428  0.00  0.00    +0.000 A 
ENDROOT
BRANCH   6   8
ATOM      8  C   UNL     1      45.586   3.614   8.831  0.00  0.00    +0.000 A 
ATOM      9  C   UNL     1      46.203   4.064   7.657  0.00  0.00    +0.000 A 
ATOM     10  C   UNL     1      46.720   3.142   6.758  0.00  0.00    +0.000 A 
ATOM     11  N   UNL     1      46.677   1.807   6.942  0.00  0.00    +0.000 NA
ATOM     12  C   UNL     1      46.079   1.379   8.070  0.00  0.00    +0.000 A 
ATOM     13  C   UNL     1      45.524   2.225   9.020  0.00  0.00    +0.000 A 
ENDBRANCH   6   8
BRANCH   1  14
ATOM     14  C   UNL     1      46.291   7.409  12.070  0.00  0.00    +0.000 C 
BRANCH  14  15
ATOM     15  O   UNL     1      47.544   6.789  12.335  0.00  0.00    +0.000 OA
BRANCH  15  21
ATOM     16  C   UNL     1      47.445   5.128  14.230  0.00  0.00    +0.000 A 
ATOM     17  N   UNL     1      47.790   4.820  15.515  0.00  0.00    +0.000 NA
ATOM     18  C   UNL     1      48.514   5.721  16.204  0.00  0.00    +0.000 A 
ATOM     19  C   UNL     1      48.919   6.929  15.674  0.00  0.00    +0.000 A 
ATOM     20  C   UNL     1      48.559   7.228  14.361  0.00  0.00    +0.000 A 
ATOM     21  C   UNL     1      47.805   6.325  13.599  0.00  0.00    +0.000 A 
BRANCH  16  23
ATOM     22  N   UNL     1      46.064   3.203  13.161  0.00  0.00    +0.000 NA
ATOM     23  C   UNL     1      46.676   4.082  13.620  0.00  0.00    +0.000 C 
ENDBRANCH  16  23
ENDBRANCH  15  21
ENDBRANCH  14  15
ENDBRANCH   1  14
TORSDOF 5
ENDMDL
MODEL 3
REMARK VINA RESULT:    -6.912      1.508      2.445
REMARK INTER + INTRA:          -9.883
REMARK INTER:                  -9.186
REMARK INTRA:                  -0.697
REMARK UNBOUND:                -0.950
REMARK  Name = 
REMARK  5 active torsions:
REMARK  status: ('A' for Active; 'I' for Inactive)
REMARK    1  A    between atoms: C_2  and  C_3
REMARK    2  A    between atoms: C_8  and  O_9
REMARK    3  A    between atoms: O_9  and  C_10
REMARK    4  A    between atoms: C_10  and  C_11
REMARK    5  A    between atoms: C_16  and  C_17
REMARK                            x       y       z     vdW  Elec       q    Type
REMARK                         _______ _______ _______ _____ _____    ______ ____
ROOT
ATOM      1  C   UNL     1      44.593   5.200  10.646  0.00  0.00    +0.000 A 
ATOM      2  C   UNL     1      43.768   4.363  11.398  0.00  0.00    +0.000 A 
ATOM      3  C   UNL     1      43.675   3.018  11.067  0.00  0.00    +0.000 A 
ATOM      4  F   UNL     1      42.895   2.212  11.801  0.00  0.00    +0.000 F 
ATOM      5  C   UNL     1      44.387   2.485   9.995  0.00  0.00    +0.000 A 
ATOM      6  C   UNL     1      45.212   3.298   9.202  0.00  0.00    +0.000 A 
ATOM      7  C   UNL     1      45.286   4.664   9.546  0.00  0.00    +0.000 A 
ENDROOT
BRANCH   6   8
ATOM      8  C   UNL     1      45.976   2.754   8.055  0.00  0.00    +0.000 A 
ATOM      9  C   UNL     1      46.472   1.443   8.059  0.00  0.00    +0.000 A 
ATOM     10  C   UNL     1      47.167   0.971   6.956  0.00  0.00    +0.000 A 
ATOM     11  N   UNL     1      47.401   1.700   5.846  0.00  0.00    +0.000 NA
ATOM     12  C   UNL     1      46.926   2.960   5.847  0.00  0.00    +0.000 A 
ATOM     13  C   UNL     1      46.231   3.522   6.908  0.00  0.00    +0.000 A 
ENDBRANCH   6   8
BRANCH   1  14
ATOM     14  C   UNL     1      44.782   6.649  11.021  0.00  0.00    +0.000 C 
BRANCH  14  15
ATOM     15  O   UNL     1      45.030   6.772  12.417  0.00  0.00    +0.000 OA
BRANCH  15  21
ATOM     16  C   UNL     1      46.720   8.602  12.811  0.00  0.00    +0.000 A 
ATOM     17  N   UNL     1      47.954   8.953  13.277  0.00  0.00    +0.000 NA
ATOM     18  C   UNL     1      48.733   7.980  13.785  0.00  0.00    +0.000 A 
ATOM     19  C   UNL     1      48.342   6.660  13.857  0.00  0.00    +0.000 A 
ATOM     20  C   UNL     1      47.078   6.319  13.378  0.00  0.00    +0.000 A 
ATOM     21  C   UNL     1      46.227   7.292  12.837  0.00  0.00    +0.000 A 
BRANCH  16  23
ATOM     22  N   UNL     1      45.401  10.624  11.847  0.00  0.00    +0.000 NA
ATOM     23  C   UNL     1      46.003   9.735  12.298  0.00  0.00    +0.000 C 
ENDBRANCH  16  23
ENDBRANCH  15  21
ENDBRANCH  14  15
ENDBRANCH   1  14
TORSDOF 5
ENDMDL
MODEL 4
REMARK VINA RESULT:    -6.678      1.814      2.967
REMARK INTER + INTRA:          -9.579
REMARK INTER:                  -8.862
REMARK INTRA:                  -0.718
REMARK UNBOUND:                -0.950
REMARK  Name = 
REMARK  5 active torsions:
REMARK  status: ('A' for Active; 'I' for Inactive)
REMARK    1  A    between atoms: C_2  and  C_3
REMARK    2  A    between atoms: C_8  and  O_9
REMARK    3  A    between atoms: O_9  and  C_10
REMARK    4  A    between atoms: C_10  and  C_11
REMARK    5  A    between atoms: C_16  and  C_17
REMARK                            x       y       z     vdW  Elec       q    Type
REMARK                         _______ _______ _______ _____ _____    ______ ____
ROOT
ATOM      1  C   UNL     1      45.267   6.381  11.809  0.00  0.00    +0.000 A 
ATOM      2  C   UNL     1      43.902   6.384  12.101  0.00  0.00    +0.000 A 
ATOM      3  C   UNL     1      43.056   5.519  11.421  0.00  0.00    +0.000 A 
ATOM      4  F   UNL     1      41.748   5.511  11.715  0.00  0.00    +0.000 F 
ATOM      5  C   UNL     1      43.540   4.647  10.448  0.00  0.00    +0.000 A 
ATOM      6  C   UNL     1      44.903   4.628  10.111  0.00  0.00    +0.000 A 
ATOM      7  C   UNL     1      45.746   5.521  10.804  0.00  0.00    +0.000 A 
ENDROOT
BRANCH   6   8
ATOM      8  C   UNL     1      45.440   3.712   9.078  0.00  0.00    +0.000 A 
ATOM      9  C   UNL     1      46.047   4.196   7.911  0.00  0.00    +0.000 A 
ATOM     10  C   UNL     1      46.550   3.301   6.979  0.00  0.00    +0.000 A 
ATOM     11  N   UNL     1      46.503   1.961   7.121  0.00  0.00    +0.000 NA
ATOM     12  C   UNL     1      45.915   1.500   8.241  0.00  0.00    +0.000 A 
ATOM     13  C   UNL     1      45.373   2.318   9.223  0.00  0.00    +0.000 A 
ENDBRANCH   6   8
BRANCH   1  14
ATOM     14  C   UNL     1      46.230   7.249  12.578  0.00  0.00    +0.000 C 
BRANCH  14  15
ATOM     15  O   UNL     1      47.463   6.567  12.778  0.00  0.00    +0.000 OA
BRANCH  15  21
ATOM     16  C   UNL     1      48.661   6.492  14.996  0.00  0.00    +0.000 A 
ATOM     17  N   UNL     1      48.829   5.866  16.197  0.00  0.00    +0.000 NA
ATOM     18  C   UNL     1      48.077   4.778  16.448  0.00  0.00    +0.000 A 
ATOM     19  C   UNL     1      47.155   4.275  15.555  0.00  0.00    +0.000 A 
ATOM     20  C   UNL     1      46.995   4.927  14.333  0.00  0.00    +0.000 A 
ATOM     21  C   UNL     1      47.753   6.064  14.020  0.00  0.00    +0.000 A 
BRANCH  16  23
ATOM     22  N   UNL     1      50.226   8.548  14.709  0.00  0.00    +0.000 NA
ATOM     23  C   UNL     1      49.525   7.631  14.864  0.00  0.00    +0.000 C 
ENDBRANCH  16  23
ENDBRANCH  15  21
ENDBRANCH  14  15
ENDBRANCH   1  14
TORSDOF 5
ENDMDL
MODEL 5
REMARK VINA RESULT:    -6.670      2.989      3.607
REMARK INTER + INTRA:          -9.570
REMARK INTER:                  -8.968
REMARK INTRA:                  -0.601
REMARK UNBOUND:                -0.950
REMARK  Name = 
REMARK  5 active torsions:
REMARK  status: ('A' for Active; 'I' for Inactive)
REMARK    1  A    between atoms: C_2  and  C_3
REMARK    2  A    between atoms: C_8  and  O_9
REMARK    3  A    between atoms: O_9  and  C_10
REMARK    4  A    between atoms: C_10  and  C_11
REMARK    5  A    between atoms: C_16  and  C_17
REMARK                            x       y       z     vdW  Elec       q    Type
REMARK                         _______ _______ _______ _____ _____    ______ ____
ROOT
ATOM      1  C   UNL     1      45.017   5.511  10.736  0.00  0.00    +0.000 A 
ATOM      2  C   UNL     1      44.007   4.850  11.437  0.00  0.00    +0.000 A 
ATOM      3  C   UNL     1      43.651   3.560  11.067  0.00  0.00    +0.000 A 
ATOM      4  F   UNL     1      42.693   2.920  11.751  0.00  0.00    +0.000 F 
ATOM      5  C   UNL     1      44.279   2.911  10.006  0.00  0.00    +0.000 A 
ATOM      6  C   UNL     1      45.285   3.551   9.264  0.00  0.00    +0.000 A 
ATOM      7  C   UNL     1      45.627   4.864   9.647  0.00  0.00    +0.000 A 
ENDROOT
BRANCH   6   8
ATOM      8  C   UNL     1      45.964   2.881   8.130  0.00  0.00    +0.000 A 
ATOM      9  C   UNL     1      46.298   3.577   6.960  0.00  0.00    +0.000 A 
ATOM     10  C   UNL     1      46.948   2.913   5.930  0.00  0.00    +0.000 A 
ATOM     11  N   UNL     1      47.300   1.613   5.978  0.00  0.00    +0.000 NA
ATOM     12  C   UNL     1      46.975   0.947   7.103  0.00  0.00    +0.000 A 
ATOM     13  C   UNL     1      46.314   1.523   8.178  0.00  0.00    +0.000 A 
ENDBRANCH   6   8
BRANCH   1  14
ATOM     14  C   UNL     1      45.486   6.882  11.156  0.00  0.00    +0.000 C 
BRANCH  14  15
ATOM     15  O   UNL     1      44.378   7.763  11.300  0.00  0.00    +0.000 OA
BRANCH  15  21
ATOM     16  C   UNL     1      43.755  10.207  11.281  0.00  0.00    +0.000 A 
ATOM     17  N   UNL     1      44.154  11.502  11.455  0.00  0.00    +0.000 NA
ATOM     18  C   UNL     1      45.437  11.723  11.792  0.00  0.00    +0.000 A 
ATOM     19  C   UNL     1      46.358  10.711  11.968  0.00  0.00    +0.000 A 
ATOM     20  C   UNL     1      45.935   9.396  11.788  0.00  0.00    +0.000 A 
ATOM     21  C   UNL     1      44.609   9.108  11.436  0.00  0.00    +0.000 A 
BRANCH  16  23
ATOM     22  N   UNL     1      41.239  10.098  10.638  0.00  0.00    +0.000 NA
ATOM     23  C   UNL     1      42.368  10.120  10.923  0.00  0.00    +0.000 C 
ENDBRANCH  16  23
ENDBRANCH  15  21
ENDBRANCH  14  15
ENDBRANCH   1  14
TORSDOF 5
ENDMDL
MODEL 6
REMARK VINA RESULT:    -6.569      1.860      2.311
REMARK INTER + INTRA:          -9.440
REMARK INTER:                  -8.719
REMARK INTRA:                  -0.721
REMARK UNBOUND:                -0.950
REMARK  Name = 
REMARK  5 active torsions:
REMARK  status: ('A' for Active; 'I' for Inactive)
REMARK    1  A    between atoms: C_2  and  C_3
REMARK    2  A    between atoms: C_8  and  O_9
REMARK    3  A    between atoms: O_9  and  C_10
REMARK    4  A    between atoms: C_10  and  C_11
REMARK    5  A    between atoms: C_16  and  C_17
REMARK                            x       y       z     vdW  Elec       q    Type
REMARK                         _______ _______ _______ _____ _____    ______ ____
ROOT
ATOM      1  C   UNL     1      45.285   6.554  11.401  0.00  0.00    +0.000 A 
ATOM      2  C   UNL     1      43.948   6.442  11.785  0.00  0.00    +0.000 A 
ATOM      3  C   UNL     1      43.162   5.436  11.241  0.00  0.00    +0.000 A 
ATOM      4  F   UNL     1      41.884   5.320  11.624  0.00  0.00    +0.000 F 
ATOM      5  C   UNL     1      43.680   4.533  10.315  0.00  0.00    +0.000 A 
ATOM      6  C   UNL     1      45.014   4.625   9.888  0.00  0.00    +0.000 A 
ATOM      7  C   UNL     1      45.795   5.660  10.443  0.00  0.00    +0.000 A 
ENDROOT
BRANCH   6   8
ATOM      8  C   UNL     1      45.586   3.678   8.901  0.00  0.00    +0.000 A 
ATOM      9  C   UNL     1      46.246   4.128   7.749  0.00  0.00    +0.000 A 
ATOM     10  C   UNL     1      46.780   3.206   6.862  0.00  0.00    +0.000 A 
ATOM     11  N   UNL     1      46.714   1.871   7.035  0.00  0.00    +0.000 NA
ATOM     12  C   UNL     1      46.075   1.442   8.140  0.00  0.00    +0.000 A 
ATOM     13  C   UNL     1      45.500   2.289   9.077  0.00  0.00    +0.000 A 
ENDBRANCH   6   8
BRANCH   1  14
ATOM     14  C   UNL     1      46.192   7.584  12.026  0.00  0.00    +0.000 C 
BRANCH  14  15
ATOM     15  O   UNL     1      47.116   6.961  12.911  0.00  0.00    +0.000 OA
BRANCH  15  21
ATOM     16  C   UNL     1      49.347   7.437  13.986  0.00  0.00    +0.000 A 
ATOM     17  N   UNL     1      50.615   7.924  13.847  0.00  0.00    +0.000 NA
ATOM     18  C   UNL     1      50.976   8.401  12.642  0.00  0.00    +0.000 A 
ATOM     19  C   UNL     1      50.130   8.417  11.552  0.00  0.00    +0.000 A 
ATOM     20  C   UNL     1      48.840   7.915  11.710  0.00  0.00    +0.000 A 
ATOM     21  C   UNL     1      48.412   7.407  12.944  0.00  0.00    +0.000 A 
BRANCH  16  23
ATOM     22  N   UNL     1      48.943   6.559  16.399  0.00  0.00    +0.000 NA
ATOM     23  C   UNL     1      49.101   6.965  15.319  0.00  0.00    +0.000 C 
ENDBRANCH  16  23
ENDBRANCH  15  21
ENDBRANCH  14  15
ENDBRANCH   1  14
TORSDOF 5
ENDMDL
MODEL 7
REMARK VINA RESULT:    -6.538      2.390      6.270
REMARK INTER + INTRA:          -9.400
REMARK INTER:                  -8.985
REMARK INTRA:                  -0.415
REMARK UNBOUND:                -0.950
REMARK  Name = 
REMARK  5 active torsions:
REMARK  status: ('A' for Active; 'I' for Inactive)
REMARK    1  A    between atoms: C_2  and  C_3
REMARK    2  A    between atoms: C_8  and  O_9
REMARK    3  A    between atoms: O_9  and  C_10
REMARK    4  A    between atoms: C_10  and  C_11
REMARK    5  A    between atoms: C_16  and  C_17
REMARK                            x       y       z     vdW  Elec       q    Type
REMARK                         _______ _______ _______ _____ _____    ______ ____
ROOT
ATOM      1  C   UNL     1      45.604   5.727  11.963  0.00  0.00    +0.000 A 
ATOM      2  C   UNL     1      45.821   4.957  13.107  0.00  0.00    +0.000 A 
ATOM      3  C   UNL     1      46.966   5.165  13.864  0.00  0.00    +0.000 A 
ATOM      4  F   UNL     1      47.163   4.437  14.971  0.00  0.00    +0.000 F 
ATOM      5  C   UNL     1      47.907   6.127  13.504  0.00  0.00    +0.000 A 
ATOM      6  C   UNL     1      47.736   6.907  12.350  0.00  0.00    +0.000 A 
ATOM      7  C   UNL     1      46.573   6.675  11.586  0.00  0.00    +0.000 A 
ENDROOT
BRANCH   6   8
ATOM      8  C   UNL     1      48.725   7.934  11.946  0.00  0.00    +0.000 A 
ATOM      9  C   UNL     1      50.063   7.603  11.689  0.00  0.00    +0.000 A 
ATOM     10  C   UNL     1      50.950   8.594  11.298  0.00  0.00    +0.000 A 
ATOM     11  N   UNL     1      50.608   9.887  11.134  0.00  0.00    +0.000 NA
ATOM     12  C   UNL     1      49.323  10.202  11.384  0.00  0.00    +0.000 A 
ATOM     13  C   UNL     1      48.368   9.282  11.792  0.00  0.00    +0.000 A 
ENDBRANCH   6   8
BRANCH   1  14
ATOM     14  C   UNL     1      44.337   5.585  11.157  0.00  0.00    +0.000 C 
BRANCH  14  15
ATOM     15  O   UNL     1      44.641   5.460   9.772  0.00  0.00    +0.000 OA
BRANCH  15  21
ATOM     16  C   UNL     1      44.712   2.940   9.688  0.00  0.00    +0.000 A 
ATOM     17  N   UNL     1      45.202   1.818   9.084  0.00  0.00    +0.000 NA
ATOM     18  C   UNL     1      46.042   1.981   8.045  0.00  0.00    +0.000 A 
ATOM     19  C   UNL     1      46.424   3.218   7.569  0.00  0.00    +0.000 A 
ATOM     20  C   UNL     1      45.914   4.353   8.196  0.00  0.00    +0.000 A 
ATOM     21  C   UNL     1      45.036   4.241   9.283  0.00  0.00    +0.000 A 
BRANCH  16  23
ATOM     22  N   UNL     1      43.084   2.366  11.632  0.00  0.00    +0.000 NA
ATOM     23  C   UNL     1      43.835   2.618  10.777  0.00  0.00    +0.000 C 
ENDBRANCH  16  23
ENDBRANCH  15  21
ENDBRANCH  14  15
ENDBRANCH   1  14
TORSDOF 5
ENDMDL
MODEL 8
REMARK VINA RESULT:    -6.412      3.435      4.817
REMARK INTER + INTRA:          -9.237
REMARK INTER:                  -8.570
REMARK INTRA:                  -0.667
REMARK UNBOUND:                -0.950
REMARK  Name = 
REMARK  5 active torsions:
REMARK  status: ('A' for Active; 'I' for Inactive)
REMARK    1  A    between atoms: C_2  and  C_3
REMARK    2  A    between atoms: C_8  and  O_9
REMARK    3  A    between atoms: O_9  and  C_10
REMARK    4  A    between atoms: C_10  and  C_11
REMARK    5  A    between atoms: C_16  and  C_17
REMARK                            x       y       z     vdW  Elec       q    Type
REMARK                         _______ _______ _______ _____ _____    ______ ____
ROOT
ATOM      1  C   UNL     1      47.315   7.136  13.262  0.00  0.00    +0.000 A 
ATOM      2  C   UNL     1      46.593   8.330  13.287  0.00  0.00    +0.000 A 
ATOM      3  C   UNL     1      45.463   8.462  12.492  0.00  0.00    +0.000 A 
ATOM      4  F   UNL     1      44.761   9.603  12.530  0.00  0.00    +0.000 F 
ATOM      5  C   UNL     1      45.035   7.426  11.664  0.00  0.00    +0.000 A 
ATOM      6  C   UNL     1      45.746   6.218  11.596  0.00  0.00    +0.000 A 
ATOM      7  C   UNL     1      46.897   6.105  12.402  0.00  0.00    +0.000 A 
ENDROOT
BRANCH   6   8
ATOM      8  C   UNL     1      45.311   5.104  10.720  0.00  0.00    +0.000 A 
ATOM      9  C   UNL     1      45.565   5.112   9.342  0.00  0.00    +0.000 A 
ATOM     10  C   UNL     1      45.153   4.039   8.564  0.00  0.00    +0.000 A 
ATOM     11  N   UNL     1      44.517   2.957   9.053  0.00  0.00    +0.000 NA
ATOM     12  C   UNL     1      44.272   2.954  10.377  0.00  0.00    +0.000 A 
ATOM     13  C   UNL     1      44.634   3.986  11.231  0.00  0.00    +0.000 A 
ENDBRANCH   6   8
BRANCH   1  14
ATOM     14  C   UNL     1      48.502   6.925  14.169  0.00  0.00    +0.000 C 
BRANCH  14  15
ATOM     15  O   UNL     1      48.312   5.766  14.973  0.00  0.00    +0.000 OA
BRANCH  15  21
ATOM     16  C   UNL     1      48.296   5.010  17.379  0.00  0.00    +0.000 A 
ATOM     17  N   UNL     1      48.771   5.184  18.648  0.00  0.00    +0.000 NA
ATOM     18  C   UNL     1      49.658   6.174  18.855  0.00  0.00    +0.000 A 
ATOM     19  C   UNL     1      50.106   7.010  17.853  0.00  0.00    +0.000 A 
ATOM     20  C   UNL     1      49.612   6.818  16.564  0.00  0.00    +0.000 A 
ATOM     21  C   UNL     1      48.685   5.802  16.293  0.00  0.00    +0.000 A 
BRANCH  16  23
ATOM     22  N   UNL     1      46.569   3.070  17.274  0.00  0.00    +0.000 NA
ATOM     23  C   UNL     1      47.360   3.925  17.305  0.00  0.00    +0.000 C 
ENDBRANCH  16  23
ENDBRANCH  15  21
ENDBRANCH  14  15
ENDBRANCH   1  14
TORSDOF 5
ENDMDL
MODEL 9
REMARK VINA RESULT:    -6.307      3.652      5.533
REMARK INTER + INTRA:          -9.100
REMARK INTER:                  -8.343
REMARK INTRA:                  -0.757
REMARK UNBOUND:                -0.950
REMARK  Name = 
REMARK  5 active torsions:
REMARK  status: ('A' for Active; 'I' for Inactive)
REMARK    1  A    between atoms: C_2  and  C_3
REMARK    2  A    between atoms: C_8  and  O_9
REMARK    3  A    between atoms: O_9  and  C_10
REMARK    4  A    between atoms: C_10  and  C_11
REMARK    5  A    between atoms: C_16  and  C_17
REMARK                            x       y       z     vdW  Elec       q    Type
REMARK                         _______ _______ _______ _____ _____    ______ ____
ROOT
ATOM      1  C   UNL     1      47.453   7.111  13.842  0.00  0.00    +0.000 A 
ATOM      2  C   UNL     1      46.999   8.406  13.587  0.00  0.00    +0.000 A 
ATOM      3  C   UNL     1      45.893   8.594  12.769  0.00  0.00    +0.000 A 
ATOM      4  F   UNL     1      45.449   9.837  12.540  0.00  0.00    +0.000 F 
ATOM      5  C   UNL     1      45.226   7.515  12.193  0.00  0.00    +0.000 A 
ATOM      6  C   UNL     1      45.664   6.199  12.408  0.00  0.00    +0.000 A 
ATOM      7  C   UNL     1      46.795   6.027  13.233  0.00  0.00    +0.000 A 
ENDROOT
BRANCH   6   8
ATOM      8  C   UNL     1      44.973   5.036  11.803  0.00  0.00    +0.000 A 
ATOM      9  C   UNL     1      44.247   4.126  12.584  0.00  0.00    +0.000 A 
ATOM     10  C   UNL     1      43.602   3.061  11.971  0.00  0.00    +0.000 A 
ATOM     11  N   UNL     1      43.617   2.837  10.642  0.00  0.00    +0.000 NA
ATOM     12  C   UNL     1      44.318   3.712   9.896  0.00  0.00    +0.000 A 
ATOM     13  C   UNL     1      45.004   4.798  10.421  0.00  0.00    +0.000 A 
ENDBRANCH   6   8
BRANCH   1  14
ATOM     14  C   UNL     1      48.602   6.860  14.786  0.00  0.00    +0.000 C 
BRANCH  14  15
ATOM     15  O   UNL     1      48.578   5.514  15.250  0.00  0.00    +0.000 OA
BRANCH  15  21
ATOM     16  C   UNL     1      48.890   4.087  17.306  0.00  0.00    +0.000 A 
ATOM     17  N   UNL     1      48.943   4.021  18.669  0.00  0.00    +0.000 NA
ATOM     18  C   UNL     1      48.766   5.162  19.360  0.00  0.00    +0.000 A 
ATOM     19  C   UNL     1      48.536   6.382  18.758  0.00  0.00    +0.000 A 
ATOM     20  C   UNL     1      48.486   6.432  17.366  0.00  0.00    +0.000 A 
ATOM     21  C   UNL     1      48.663   5.273  16.598  0.00  0.00    +0.000 A 
BRANCH  16  23
ATOM     22  N   UNL     1      49.304   1.770  16.204  0.00  0.00    +0.000 NA
ATOM     23  C   UNL     1      49.093   2.801  16.702  0.00  0.00    +0.000 C 
ENDBRANCH  16  23
ENDBRANCH  15  21
ENDBRANCH  14  15
ENDBRANCH   1  14
TORSDOF 5
ENDMDL
