MODEL 1
REMARK VINA RESULT:    -7.361      0.000      0.000
REMARK INTER + INTRA:         -10.355
REMARK INTER:                  -9.728
REMARK INTRA:                  -0.627
REMARK UNBOUND:                -0.627
REMARK  Name = 
REMARK  6 active torsions:
REMARK  status: ('A' for Active; 'I' for Inactive)
REMARK    1  A    between atoms: C_2  and  O_3
REMARK    2  A    between atoms: C_2  and  C_4
REMARK    3  A    between atoms: C_7  and  O_8
REMARK    4  A    between atoms: O_8  and  C_9
REMARK    5  A    between atoms: C_9  and  C_10
REMARK    6  A    between atoms: C_10  and  C_11
REMARK                            x       y       z     vdW  Elec       q    Type
REMARK                         _______ _______ _______ _____ _____    ______ ____
ROOT
ATOM      1  C   UNL     1      46.254   2.111   7.949  0.00  0.00    +0.000 A 
ATOM      2  C   UNL     1      46.297   3.475   7.647  0.00  0.00    +0.000 A 
ATOM      3  C   UNL     1      45.377   4.333   8.254  0.00  0.00    +0.000 A 
ATOM      4  C   UNL     1      44.464   3.795   9.149  0.00  0.00    +0.000 A 
ATOM      5  N   UNL     1      44.385   2.476   9.428  0.00  0.00    +0.000 NA
ATOM      6  C   UNL     1      45.271   1.660   8.814  0.00  0.00    +0.000 A 
ENDROOT
BRANCH   1   8
ATOM      7  O   UNL     1      48.101   1.427   6.635  0.00  0.00    +0.000 OA
ATOM      8  C   UNL     1      47.187   1.122   7.380  0.00  0.00    +0.000 C 
BRANCH   8   9
ATOM      9  O   UNL     1      46.894  -0.150   7.719  0.00  0.00    +0.000 OA
ATOM     10  H   UNL     1      46.838  -0.781   6.978  0.00  0.00    +0.000 HD
ENDBRANCH   8   9
ENDBRANCH   1   8
BRANCH   4  11
ATOM     11  O   UNL     1      43.586   4.668   9.762  0.00  0.00    +0.000 OA
BRANCH  11  12
ATOM     12  C   UNL     1      43.354   4.304  11.131  0.00  0.00    +0.000 C 
BRANCH  12  13
ATOM     13  C   UNL     1      43.555   5.524  12.026  0.00  0.00    +0.000 C 
BRANCH  13  14
ATOM     14  C   UNL     1      45.017   5.765  12.309  0.00  0.00    +0.000 A 
ATOM     15  C   UNL     1      45.754   6.665  11.526  0.00  0.00    +0.000 A 
ATOM     16  C   UNL     1      47.113   6.868  11.772  0.00  0.00    +0.000 A 
ATOM     17  C   UNL     1      47.751   6.169  12.796  0.00  0.00    +0.000 A 
ATOM     18  C   UNL     1      47.031   5.262  13.571  0.00  0.00    +0.000 A 
ATOM     19  C   UNL     1      45.671   5.057  13.326  0.00  0.00    +0.000 A 
ENDBRANCH  13  14
ENDBRANCH  12  13
ENDBRANCH  11  12
ENDBRANCH   4  11
TORSDOF 6
ENDMDL
MODEL 2
REMARK VINA RESULT:    -7.131      2.757      6.053
REMARK INTER + INTRA:         -10.051
REMARK INTER:                  -9.501
REMARK INTRA:                  -0.550
REMARK UNBOUND:                -0.627
REMARK  Name = 
REMARK  6 active torsions:
REMARK  status: ('A' for Active; 'I' for Inactive)
REMARK    1  A    between atoms: C_2  and  O_3
REMARK    2  A    between atoms: C_2  and  C_4
REMARK    3  A    between atoms: C_7  and  O_8
REMARK    4  A    between atoms: O_8  and  C_9
REMARK    5  A    between atoms: C_9  and  C_10
REMARK    6  A    between atoms: C_10  and  C_11
REMARK                            x       y       z     vdW  Elec       q    Type
REMARK                         _______ _______ _______ _____ _____    ______ ____
ROOT
ATOM      1  C   UNL     1      46.995   5.538  13.305  0.00  0.00    +0.000 A 
ATOM      2  C   UNL     1      46.510   6.088  12.116  0.00  0.00    +0.000 A 
ATOM      3  C   UNL     1      45.482   5.432  11.435  0.00  0.00    +0.000 A 
ATOM      4  C   UNL     1      44.970   4.264  11.979  0.00  0.00    +0.000 A 
ATOM      5  N   UNL     1      45.447   3.700  13.110  0.00  0.00    +0.000 NA
ATOM      6  C   UNL     1      46.457   4.339  13.741  0.00  0.00    +0.000 A 
ENDROOT
BRANCH   1   8
ATOM      7  O   UNL     1      49.079   6.615  13.622  0.00  0.00    +0.000 OA
ATOM      8  C   UNL     1      48.063   6.155  14.112  0.00  0.00    +0.000 C 
BRANCH   8   9
ATOM      9  O   UNL     1      47.830   6.107  15.439  0.00  0.00    +0.000 OA
ATOM     10  H   UNL     1      47.306   6.845  15.802  0.00  0.00    +0.000 HD
ENDBRANCH   8   9
ENDBRANCH   1   8
BRANCH   4  11
ATOM     11  O   UNL     1      43.930   3.652  11.305  0.00  0.00    +0.000 OA
BRANCH  11  12
ATOM     12  C   UNL     1      44.168   3.622   9.891  0.00  0.00    +0.000 C 
BRANCH  12  13
ATOM     13  C   UNL     1      44.674   2.239   9.486  0.00  0.00    +0.000 C 
BRANCH  13  14
ATOM     14  C   UNL     1      45.684   2.327   8.369  0.00  0.00    +0.000 A 
ATOM     15  C   UNL     1      45.825   3.511   7.630  0.00  0.00    +0.000 A 
ATOM     16  C   UNL     1      46.741   3.584   6.579  0.00  0.00    +0.000 A 
ATOM     17  C   UNL     1      47.519   2.475   6.251  0.00  0.00    +0.000 A 
ATOM     18  C   UNL     1      47.376   1.289   6.970  0.00  0.00    +0.000 A 
ATOM     19  C   UNL     1      46.461   1.214   8.021  0.00  0.00    +0.000 A 
ENDBRANCH  13  14
ENDBRANCH  12  13
ENDBRANCH  11  12
ENDBRANCH   4  11
TORSDOF 6
ENDMDL
MODEL 3
REMARK VINA RESULT:    -7.066      2.747      6.043
REMARK INTER + INTRA:          -9.965
REMARK INTER:                  -9.363
REMARK INTRA:                  -0.602
REMARK UNBOUND:                -0.627
REMARK  Name = 
REMARK  6 active torsions:
REMARK  status: ('A' for Active; 'I' for Inactive)
REMARK    1  A    between atoms: C_2  and  O_3
REMARK    2  A    between atoms: C_2  and  C_4
REMARK    3  A    between atoms: C_7  and  O_8
REMARK    4  A    between atoms: O_8  and  C_9
REMARK    5  A    between atoms: C_9  and  C_10
REMARK    6  A    between atoms: C_10  and  C_11
REMARK                            x       y       z     vdW  Elec       q    Type
REMARK                         _______ _______ _______ _____ _____    ______ ____
ROOT
ATOM      1  C   UNL     1      46.377   4.325  13.615  0.00  0.00    +0.000 A 
ATOM      2  C   UNL     1      45.880   3.241  12.887  0.00  0.00    +0.000 A 
ATOM      3  C   UNL     1      44.996   3.480  11.832  0.00  0.00    +0.000 A 
ATOM      4  C   UNL     1      44.659   4.793  11.539  0.00  0.00    +0.000 A 
ATOM      5  N   UNL     1      45.102   5.851  12.252  0.00  0.00    +0.000 NA
ATOM      6  C   UNL     1      45.939   5.596  13.281  0.00  0.00    +0.000 A 
ENDROOT
BRANCH   1   8
ATOM      7  O   UNL     1      47.685   3.108  15.168  0.00  0.00    +0.000 OA
ATOM      8  C   UNL     1      47.327   4.188  14.734  0.00  0.00    +0.000 C 
BRANCH   8   9
ATOM      9  O   UNL     1      47.710   5.368  15.261  0.00  0.00    +0.000 OA
ATOM     10  H   UNL     1      47.154   6.135  15.027  0.00  0.00    +0.000 HD
ENDBRANCH   8   9
ENDBRANCH   1   8
BRANCH   4  11
ATOM     11  O   UNL     1      43.809   5.007  10.470  0.00  0.00    +0.000 OA
BRANCH  11  12
ATOM     12  C   UNL     1      44.014   4.035   9.435  0.00  0.00    +0.000 C 
BRANCH  12  13
ATOM     13  C   UNL     1      45.145   4.495   8.518  0.00  0.00    +0.000 C 
BRANCH  13  14
ATOM     14  C   UNL     1      45.913   3.322   7.959  0.00  0.00    +0.000 A 
ATOM     15  C   UNL     1      45.709   2.032   8.468  0.00  0.00    +0.000 A 
ATOM     16  C   UNL     1      46.438   0.950   7.969  0.00  0.00    +0.000 A 
ATOM     17  C   UNL     1      47.382   1.150   6.963  0.00  0.00    +0.000 A 
ATOM     18  C   UNL     1      47.603   2.431   6.460  0.00  0.00    +0.000 A 
ATOM     19  C   UNL     1      46.875   3.513   6.959  0.00  0.00    +0.000 A 
ENDBRANCH  13  14
ENDBRANCH  12  13
ENDBRANCH  11  12
ENDBRANCH   4  11
TORSDOF 6
ENDMDL
MODEL 4
REMARK VINA RESULT:    -6.934      1.248      2.046
REMARK INTER + INTRA:          -9.791
REMARK INTER:                  -9.226
REMARK INTRA:                  -0.565
REMARK UNBOUND:                -0.627
REMARK  Name = 
REMARK  6 active torsions:
REMARK  status: ('A' for Active; 'I' for Inactive)
REMARK    1  A    between atoms: C_2  and  O_3
REMARK    2  A    between atoms: C_2  and  C_4
REMARK    3  A    between atoms: C_7  and  O_8
REMARK    4  A    between atoms: O_8  and  C_9
REMARK    5  A    between atoms: C_9  and  C_10
REMARK    6  A    between atoms: C_10  and  C_11
REMARK                            x       y       z     vdW  Elec       q    Type
REMARK                         _______ _______ _______ _____ _____    ______ ____
ROOT
ATOM      1  C   UNL     1      46.602   2.583   7.681  0.00  0.00    +0.000 A 
ATOM      2  C   UNL     1      45.722   1.907   8.530  0.00  0.00    +0.000 A 
ATOM      3  C   UNL     1      44.726   2.631   9.191  0.00  0.00    +0.000 A 
ATOM      4  C   UNL     1      44.641   3.996   8.963  0.00  0.00    +0.000 A 
ATOM      5  N   UNL     1      45.503   4.672   8.172  0.00  0.00    +0.000 NA
ATOM      6  C   UNL     1      46.471   3.957   7.560  0.00  0.00    +0.000 A 
ENDROOT
BRANCH   1   8
ATOM      7  O   UNL     1      47.731   0.708   6.779  0.00  0.00    +0.000 OA
ATOM      8  C   UNL     1      47.675   1.917   6.922  0.00  0.00    +0.000 C 
BRANCH   8   9
ATOM      9  O   UNL     1      48.612   2.767   6.456  0.00  0.00    +0.000 OA
ATOM     10  H   UNL     1      48.334   3.699   6.379  0.00  0.00    +0.000 HD
ENDBRANCH   8   9
ENDBRANCH   1   8
BRANCH   4  11
ATOM     11  O   UNL     1      43.628   4.685   9.602  0.00  0.00    +0.000 OA
BRANCH  11  12
ATOM     12  C   UNL     1      43.862   4.771  11.014  0.00  0.00    +0.000 C 
BRANCH  12  13
ATOM     13  C   UNL     1      43.687   6.217  11.474  0.00  0.00    +0.000 C 
BRANCH  13  14
ATOM     14  C   UNL     1      45.020   6.893  11.684  0.00  0.00    +0.000 A 
ATOM     15  C   UNL     1      46.205   6.143  11.685  0.00  0.00    +0.000 A 
ATOM     16  C   UNL     1      47.436   6.765  11.905  0.00  0.00    +0.000 A 
ATOM     17  C   UNL     1      47.494   8.139  12.133  0.00  0.00    +0.000 A 
ATOM     18  C   UNL     1      46.320   8.891  12.147  0.00  0.00    +0.000 A 
ATOM     19  C   UNL     1      45.089   8.271  11.927  0.00  0.00    +0.000 A 
ENDBRANCH  13  14
ENDBRANCH  12  13
ENDBRANCH  11  12
ENDBRANCH   4  11
TORSDOF 6
ENDMDL
MODEL 5
REMARK VINA RESULT:    -6.753      2.650      6.086
REMARK INTER + INTRA:          -9.552
REMARK INTER:                  -9.053
REMARK INTRA:                  -0.499
REMARK UNBOUND:                -0.627
REMARK  Name = 
REMARK  6 active torsions:
REMARK  status: ('A' for Active; 'I' for Inactive)
REMARK    1  A    between atoms: C_2  and  O_3
REMARK    2  A    between atoms: C_2  and  C_4
REMARK    3  A    between atoms: C_7  and  O_8
REMARK    4  A    between atoms: O_8  and  C_9
REMARK    5  A    between atoms: C_9  and  C_10
REMARK    6  A    between atoms: C_10  and  C_11
REMARK                            x       y       z     vdW  Elec       q    Type
REMARK                         _______ _______ _______ _____ _____    ______ ____
ROOT
ATOM      1  C   UNL     1      46.878   6.331  12.671  0.00  0.00    +0.000 A 
ATOM      2  C   UNL     1      46.528   5.009  12.959  0.00  0.00    +0.000 A 
ATOM      3  C   UNL     1      45.430   4.442  12.308  0.00  0.00    +0.000 A 
ATOM      4  C   UNL     1      44.738   5.213  11.386  0.00  0.00    +0.000 A 
ATOM      5  N   UNL     1      45.040   6.502  11.120  0.00  0.00    +0.000 NA
ATOM      6  C   UNL     1      46.093   7.038  11.776  0.00  0.00    +0.000 A 
ENDROOT
BRANCH   1   8
ATOM      7  O   UNL     1      47.922   8.083  13.873  0.00  0.00    +0.000 OA
ATOM      8  C   UNL     1      48.026   7.021  13.285  0.00  0.00    +0.000 C 
BRANCH   8   9
ATOM      9  O   UNL     1      49.203   6.394  13.082  0.00  0.00    +0.000 OA
ATOM     10  H   UNL     1      49.998   6.895  13.345  0.00  0.00    +0.000 HD
ENDBRANCH   8   9
ENDBRANCH   1   8
BRANCH   4  11
ATOM     11  O   UNL     1      43.676   4.619  10.731  0.00  0.00    +0.000 OA
BRANCH  11  12
ATOM     12  C   UNL     1      44.117   3.551   9.880  0.00  0.00    +0.000 C 
BRANCH  12  13
ATOM     13  C   UNL     1      44.732   4.130   8.608  0.00  0.00    +0.000 C 
BRANCH  13  14
ATOM     14  C   UNL     1      45.700   3.162   7.974  0.00  0.00    +0.000 A 
ATOM     15  C   UNL     1      46.461   3.544   6.860  0.00  0.00    +0.000 A 
ATOM     16  C   UNL     1      47.338   2.640   6.258  0.00  0.00    +0.000 A 
ATOM     17  C   UNL     1      47.457   1.344   6.758  0.00  0.00    +0.000 A 
ATOM     18  C   UNL     1      46.695   0.950   7.856  0.00  0.00    +0.000 A 
ATOM     19  C   UNL     1      45.818   1.853   8.460  0.00  0.00    +0.000 A 
ENDBRANCH  13  14
ENDBRANCH  12  13
ENDBRANCH  11  12
ENDBRANCH   4  11
TORSDOF 6
ENDMDL
MODEL 6
REMARK VINA RESULT:    -5.807      4.034      5.982
REMARK INTER + INTRA:          -8.301
REMARK INTER:                  -7.970
REMARK INTRA:                  -0.331
REMARK UNBOUND:                -0.627
REMARK  Name = 
REMARK  6 active torsions:
REMARK  status: ('A' for Active; 'I' for Inactive)
REMARK    1  A    between atoms: C_2  and  O_3
REMARK    2  A    between atoms: C_2  and  C_4
REMARK    3  A    between atoms: C_7  and  O_8
REMARK    4  A    between atoms: O_8  and  C_9
REMARK    5  A    between atoms: C_9  and  C_10
REMARK    6  A    between atoms: C_10  and  C_11
REMARK                            x       y       z     vdW  Elec       q    Type
REMARK                         _______ _______ _______ _____ _____    ______ ____
ROOT
ATOM      1  C   UNL     1      45.086   4.502  11.346  0.00  0.00    +0.000 A 
ATOM      2  C   UNL     1      45.819   5.678  11.521  0.00  0.00    +0.000 A 
ATOM      3  C   UNL     1      46.653   5.798  12.635  0.00  0.00    +0.000 A 
ATOM      4  C   UNL     1      46.732   4.732  13.518  0.00  0.00    +0.000 A 
ATOM      5  N   UNL     1      46.007   3.600  13.384  0.00  0.00    +0.000 NA
ATOM      6  C   UNL     1      45.190   3.513  12.311  0.00  0.00    +0.000 A 
ENDROOT
BRANCH   1   8
ATOM      7  O   UNL     1      44.334   3.324   9.435  0.00  0.00    +0.000 OA
ATOM      8  C   UNL     1      44.192   4.262  10.199  0.00  0.00    +0.000 C 
BRANCH   8   9
ATOM      9  O   UNL     1      43.245   5.210  10.048  0.00  0.00    +0.000 OA
ATOM     10  H   UNL     1      43.166   5.587   9.151  0.00  0.00    +0.000 HD
ENDBRANCH   8   9
ENDBRANCH   1   8
BRANCH   4  11
ATOM     11  O   UNL     1      47.589   4.861  14.595  0.00  0.00    +0.000 OA
BRANCH  11  12
ATOM     12  C   UNL     1      47.347   3.847  15.581  0.00  0.00    +0.000 C 
BRANCH  12  13
ATOM     13  C   UNL     1      47.891   4.308  16.932  0.00  0.00    +0.000 C 
BRANCH  13  14
ATOM     14  C   UNL     1      49.244   3.704  17.216  0.00  0.00    +0.000 A 
ATOM     15  C   UNL     1      50.296   4.505  17.682  0.00  0.00    +0.000 A 
ATOM     16  C   UNL     1      51.556   3.952  17.920  0.00  0.00    +0.000 A 
ATOM     17  C   UNL     1      51.778   2.596  17.688  0.00  0.00    +0.000 A 
ATOM     18  C   UNL     1      50.742   1.793  17.211  0.00  0.00    +0.000 A 
ATOM     19  C   UNL     1      49.483   2.345  16.973  0.00  0.00    +0.000 A 
ENDBRANCH  13  14
ENDBRANCH  12  13
ENDBRANCH  11  12
ENDBRANCH   4  11
TORSDOF 6
ENDMDL
MODEL 7
REMARK VINA RESULT:    -5.691      3.236      5.930
REMARK INTER + INTRA:          -8.149
REMARK INTER:                  -7.414
REMARK INTRA:                  -0.734
REMARK UNBOUND:                -0.627
REMARK  Name = 
REMARK  6 active torsions:
REMARK  status: ('A' for Active; 'I' for Inactive)
REMARK    1  A    between atoms: C_2  and  O_3
REMARK    2  A    between atoms: C_2  and  C_4
REMARK    3  A    between atoms: C_7  and  O_8
REMARK    4  A    between atoms: O_8  and  C_9
REMARK    5  A    between atoms: C_9  and  C_10
REMARK    6  A    between atoms: C_10  and  C_11
REMARK                            x       y       z     vdW  Elec       q    Type
REMARK                         _______ _______ _______ _____ _____    ______ ____
ROOT
ATOM      1  C   UNL     1      47.640   7.198  12.822  0.00  0.00    +0.000 A 
ATOM      2  C   UNL     1      46.599   7.843  12.149  0.00  0.00    +0.000 A 
ATOM      3  C   UNL     1      45.319   7.284  12.187  0.00  0.00    +0.000 A 
ATOM      4  C   UNL     1      45.130   6.114  12.907  0.00  0.00    +0.000 A 
ATOM      5  N   UNL     1      46.130   5.459  13.535  0.00  0.00    +0.000 NA
ATOM      6  C   UNL     1      47.365   6.005  13.469  0.00  0.00    +0.000 A 
ENDROOT
BRANCH   1   8
ATOM      7  O   UNL     1      49.333   8.727  13.454  0.00  0.00    +0.000 OA
ATOM      8  C   UNL     1      49.022   7.709  12.863  0.00  0.00    +0.000 C 
BRANCH   8   9
ATOM      9  O   UNL     1      49.889   6.973  12.139  0.00  0.00    +0.000 OA
ATOM     10  H   UNL     1      50.494   7.479  11.564  0.00  0.00    +0.000 HD
ENDBRANCH   8   9
ENDBRANCH   1   8
BRANCH   4  11
ATOM     11  O   UNL     1      43.849   5.598  12.957  0.00  0.00    +0.000 OA
BRANCH  11  12
ATOM     12  C   UNL     1      43.412   5.154  11.665  0.00  0.00    +0.000 C 
BRANCH  12  13
ATOM     13  C   UNL     1      43.885   3.721  11.429  0.00  0.00    +0.000 C 
BRANCH  13  14
ATOM     14  C   UNL     1      44.618   3.592  10.117  0.00  0.00    +0.000 A 
ATOM     15  C   UNL     1      44.760   2.340   9.502  0.00  0.00    +0.000 A 
ATOM     16  C   UNL     1      45.460   2.216   8.301  0.00  0.00    +0.000 A 
ATOM     17  C   UNL     1      46.032   3.340   7.707  0.00  0.00    +0.000 A 
ATOM     18  C   UNL     1      45.909   4.587   8.317  0.00  0.00    +0.000 A 
ATOM     19  C   UNL     1      45.209   4.712   9.518  0.00  0.00    +0.000 A 
ENDBRANCH  13  14
ENDBRANCH  12  13
ENDBRANCH  11  12
ENDBRANCH   4  11
TORSDOF 6
ENDMDL
MODEL 8
REMARK VINA RESULT:    -5.269      3.734      6.733
REMARK INTER + INTRA:          -7.590
REMARK INTER:                  -7.073
REMARK INTRA:                  -0.517
REMARK UNBOUND:                -0.627
REMARK  Name = 
REMARK  6 active torsions:
REMARK  status: ('A' for Active; 'I' for Inactive)
REMARK    1  A    between atoms: C_2  and  O_3
REMARK    2  A    between atoms: C_2  and  C_4
REMARK    3  A    between atoms: C_7  and  O_8
REMARK    4  A    between atoms: O_8  and  C_9
REMARK    5  A    between atoms: C_9  and  C_10
REMARK    6  A    between atoms: C_10  and  C_11
REMARK                            x       y       z     vdW  Elec       q    Type
REMARK                         _______ _______ _______ _____ _____    ______ ____
ROOT
ATOM      1  C   UNL     1      48.323   8.886  12.048  0.00  0.00    +0.000 A 
ATOM      2  C   UNL     1      48.360   7.529  11.718  0.00  0.00    +0.000 A 
ATOM      3  C   UNL     1      47.165   6.808  11.681  0.00  0.00    +0.000 A 
ATOM      4  C   UNL     1      45.982   7.475  11.960  0.00  0.00    +0.000 A 
ATOM      5  N   UNL     1      45.929   8.778  12.313  0.00  0.00    +0.000 NA
ATOM      6  C   UNL     1      47.099   9.452  12.363  0.00  0.00    +0.000 A 
ENDROOT
BRANCH   1   8
ATOM      7  O   UNL     1      50.571   9.445  11.560  0.00  0.00    +0.000 OA
ATOM      8  C   UNL     1      49.520   9.745  12.098  0.00  0.00    +0.000 C 
BRANCH   8   9
ATOM      9  O   UNL     1      49.354  10.857  12.842  0.00  0.00    +0.000 OA
ATOM     10  H   UNL     1      50.171  11.339  13.069  0.00  0.00    +0.000 HD
ENDBRANCH   8   9
ENDBRANCH   1   8
BRANCH   4  11
ATOM     11  O   UNL     1      44.809   6.749  11.885  0.00  0.00    +0.000 OA
BRANCH  11  12
ATOM     12  C   UNL     1      45.068   5.360  11.637  0.00  0.00    +0.000 C 
BRANCH  12  13
ATOM     13  C   UNL     1      44.137   4.854  10.536  0.00  0.00    +0.000 C 
BRANCH  13  14
ATOM     14  C   UNL     1      44.879   4.001   9.537  0.00  0.00    +0.000 A 
ATOM     15  C   UNL     1      44.823   2.602   9.617  0.00  0.00    +0.000 A 
ATOM     16  C   UNL     1      45.529   1.812   8.708  0.00  0.00    +0.000 A 
ATOM     17  C   UNL     1      46.304   2.411   7.716  0.00  0.00    +0.000 A 
ATOM     18  C   UNL     1      46.378   3.801   7.637  0.00  0.00    +0.000 A 
ATOM     19  C   UNL     1      45.672   4.592   8.545  0.00  0.00    +0.000 A 
ENDBRANCH  13  14
ENDBRANCH  12  13
ENDBRANCH  11  12
ENDBRANCH   4  11
TORSDOF 6
ENDMDL
MODEL 9
REMARK VINA RESULT:    -5.245      4.947      7.745
REMARK INTER + INTRA:          -7.559
REMARK INTER:                  -7.210
REMARK INTRA:                  -0.349
REMARK UNBOUND:                -0.627
REMARK  Name = 
REMARK  6 active torsions:
REMARK  status: ('A' for Active; 'I' for Inactive)
REMARK    1  A    between atoms: C_2  and  O_3
REMARK    2  A    between atoms: C_2  and  C_4
REMARK    3  A    between atoms: C_7  and  O_8
REMARK    4  A    between atoms: O_8  and  C_9
REMARK    5  A    between atoms: C_9  and  C_10
REMARK    6  A    between atoms: C_10  and  C_11
REMARK                            x       y       z     vdW  Elec       q    Type
REMARK                         _______ _______ _______ _____ _____    ______ ____
ROOT
ATOM      1  C   UNL     1      48.314   4.685  17.554  0.00  0.00    +0.000 A 
ATOM      2  C   UNL     1      47.368   3.804  17.022  0.00  0.00    +0.000 A 
ATOM      3  C   UNL     1      47.001   3.933  15.681  0.00  0.00    +0.000 A 
ATOM      4  C   UNL     1      47.606   4.925  14.923  0.00  0.00    +0.000 A 
ATOM      5  N   UNL     1      48.497   5.805  15.427  0.00  0.00    +0.000 NA
ATOM      6  C   UNL     1      48.822   5.677  16.732  0.00  0.00    +0.000 A 
ENDROOT
BRANCH   1   8
ATOM      7  O   UNL     1      49.456   5.509  19.456  0.00  0.00    +0.000 OA
ATOM      8  C   UNL     1      48.786   4.627  18.949  0.00  0.00    +0.000 C 
BRANCH   8   9
ATOM      9  O   UNL     1      48.454   3.484  19.583  0.00  0.00    +0.000 OA
ATOM     10  H   UNL     1      47.809   3.578  20.308  0.00  0.00    +0.000 HD
ENDBRANCH   8   9
ENDBRANCH   1   8
BRANCH   4  11
ATOM     11  O   UNL     1      47.251   5.011  13.590  0.00  0.00    +0.000 OA
BRANCH  11  12
ATOM     12  C   UNL     1      45.860   4.717  13.397  0.00  0.00    +0.000 C 
BRANCH  12  13
ATOM     13  C   UNL     1      45.323   5.532  12.224  0.00  0.00    +0.000 C 
BRANCH  13  14
ATOM     14  C   UNL     1      45.158   4.679  10.990  0.00  0.00    +0.000 A 
ATOM     15  C   UNL     1      45.547   5.164   9.733  0.00  0.00    +0.000 A 
ATOM     16  C   UNL     1      45.371   4.385   8.588  0.00  0.00    +0.000 A 
ATOM     17  C   UNL     1      44.799   3.118   8.687  0.00  0.00    +0.000 A 
ATOM     18  C   UNL     1      44.396   2.632   9.929  0.00  0.00    +0.000 A 
ATOM     19  C   UNL     1      44.572   3.410  11.075  0.00  0.00    +0.000 A 
ENDBRANCH  13  14
ENDBRANCH  12  13
ENDBRANCH  11  12
ENDBRANCH   4  11
TORSDOF 6
ENDMDL
