MODEL 1
REMARK VINA RESULT:    -8.041      0.000      0.000
REMARK INTER + INTRA:         -11.927
REMARK INTER:                 -10.862
REMARK INTRA:                  -1.065
REMARK UNBOUND:                -1.065
REMARK  Name = 
REMARK  7 active torsions:
REMARK  status: ('A' for Active; 'I' for Inactive)
REMARK    1  A    between atoms: C_1  and  C_2
REMARK    2  A    between atoms: C_2  and  N_3
REMARK    3  A    between atoms: C_2  and  C_18
REMARK    4  A    between atoms: C_7  and  C_8
REMARK    5  A    between atoms: C_8  and  N_9
REMARK    6  A    between atoms: N_9  and  C_10
REMARK    7  A    between atoms: C_18  and  C_20
REMARK                            x       y       z     vdW  Elec       q    Type
REMARK                         _______ _______ _______ _____ _____    ______ ____
ROOT
ATOM      1  N   UNL     1      46.997   6.572  14.050  0.00  0.00    +0.000 N 
ATOM      2  C   UNL     1      46.224   5.599  13.435  0.00  0.00    +0.000 A 
ATOM      3  C   UNL     1      46.530   4.237  13.377  0.00  0.00    +0.000 A 
ATOM      4  N   UNL     1      45.721   3.295  12.821  0.00  0.00    +0.000 NA
ATOM      5  C   UNL     1      44.562   3.763  12.311  0.00  0.00    +0.000 A 
ATOM      6  C   UNL     1      44.247   5.115  12.361  0.00  0.00    +0.000 A 
ATOM      7  N   UNL     1      45.060   6.046  12.925  0.00  0.00    +0.000 NA
ATOM      8  H   UNL     1      46.606   7.475  13.784  0.00  0.00    +0.000 HD
ENDROOT
BRANCH   1  10
ATOM      9  C   UNL     1      48.988   7.140  12.736  0.00  0.00    +0.000 C 
ATOM     10  C   UNL     1      48.463   6.485  14.024  0.00  0.00    +0.000 C 
BRANCH  10  11
ATOM     11  C   UNL     1      49.078   7.181  15.261  0.00  0.00    +0.000 C 
ATOM     12  O   UNL     1      48.995   8.412  15.360  0.00  0.00    +0.000 OA
BRANCH  11  13
ATOM     13  C   UNL     1      49.755   6.438  16.351  0.00  0.00    +0.000 A 
ATOM     14  C   UNL     1      51.136   6.552  16.479  0.00  0.00    +0.000 A 
ATOM     15  S   UNL     1      51.765   5.827  17.886  0.00  0.00    +0.000 S 
ATOM     16  C   UNL     1      50.217   5.305  18.363  0.00  0.00    +0.000 A 
ATOM     17  N   UNL     1      50.030   4.680  19.554  0.00  0.00    +0.000 NA
ATOM     18  C   UNL     1      48.803   4.356  19.794  0.00  0.00    +0.000 A 
ATOM     19  N   UNL     1      47.760   4.551  18.926  0.00  0.00    +0.000 N 
ATOM     20  C   UNL     1      47.966   4.967  17.629  0.00  0.00    +0.000 A 
ATOM     21  O   UNL     1      47.171   4.694  16.736  0.00  0.00    +0.000 OA
ATOM     22  C   UNL     1      49.262   5.573  17.397  0.00  0.00    +0.000 A 
ATOM     23  H   UNL     1      46.861   4.136  19.120  0.00  0.00    +0.000 HD
ENDBRANCH  11  13
ENDBRANCH  10  11
ENDBRANCH   1  10
BRANCH   5  24
ATOM     24  C   UNL     1      43.628   2.777  11.648  0.00  0.00    +0.000 C 
BRANCH  24  25
ATOM     25  N   UNL     1      43.538   2.911  10.185  0.00  0.00    +0.000 NA
ATOM     26  H   UNL     1      43.041   2.097   9.823  0.00  0.00    +0.000 HD
BRANCH  25  27
ATOM     27  C   UNL     1      44.857   2.993   9.519  0.00  0.00    +0.000 C 
ATOM     28  C   UNL     1      45.208   1.694   8.773  0.00  0.00    +0.000 C 
ATOM     29  C   UNL     1      46.456   1.867   7.913  0.00  0.00    +0.000 C 
ATOM     30  C   UNL     1      46.325   3.071   6.987  0.00  0.00    +0.000 C 
ATOM     31  N   UNL     1      46.101   4.291   7.759  0.00  0.00    +0.000 NA
ATOM     32  C   UNL     1      44.865   4.199   8.543  0.00  0.00    +0.000 C 
ATOM     33  H   UNL     1      46.044   5.089   7.129  0.00  0.00    +0.000 HD
ENDBRANCH  25  27
ENDBRANCH  24  25
ENDBRANCH   5  24
TORSDOF 6
ENDMDL
MODEL 2
REMARK VINA RESULT:    -7.878      2.452      3.696
REMARK INTER + INTRA:         -11.707
REMARK INTER:                 -10.589
REMARK INTRA:                  -1.118
REMARK UNBOUND:                -1.065
REMARK  Name = 
REMARK  7 active torsions:
REMARK  status: ('A' for Active; 'I' for Inactive)
REMARK    1  A    between atoms: C_1  and  C_2
REMARK    2  A    between atoms: C_2  and  N_3
REMARK    3  A    between atoms: C_2  and  C_18
REMARK    4  A    between atoms: C_7  and  C_8
REMARK    5  A    between atoms: C_8  and  N_9
REMARK    6  A    between atoms: N_9  and  C_10
REMARK    7  A    between atoms: C_18  and  C_20
REMARK                            x       y       z     vdW  Elec       q    Type
REMARK                         _______ _______ _______ _____ _____    ______ ____
ROOT
ATOM      1  N   UNL     1      47.932   4.262  16.639  0.00  0.00    +0.000 N 
ATOM      2  C   UNL     1      47.472   4.717  15.413  0.00  0.00    +0.000 A 
ATOM      3  C   UNL     1      47.889   5.886  14.773  0.00  0.00    +0.000 A 
ATOM      4  N   UNL     1      47.465   6.275  13.540  0.00  0.00    +0.000 NA
ATOM      5  C   UNL     1      46.587   5.440  12.945  0.00  0.00    +0.000 A 
ATOM      6  C   UNL     1      46.163   4.275  13.572  0.00  0.00    +0.000 A 
ATOM      7  N   UNL     1      46.599   3.892  14.800  0.00  0.00    +0.000 NA
ATOM      8  H   UNL     1      47.330   3.487  16.915  0.00  0.00    +0.000 HD
ENDROOT
BRANCH   1  10
ATOM      9  C   UNL     1      46.981   5.673  18.405  0.00  0.00    +0.000 C 
ATOM     10  C   UNL     1      48.271   5.213  17.706  0.00  0.00    +0.000 C 
BRANCH  10  11
ATOM     11  C   UNL     1      49.229   4.567  18.736  0.00  0.00    +0.000 C 
ATOM     12  O   UNL     1      48.804   4.303  19.868  0.00  0.00    +0.000 OA
BRANCH  11  13
ATOM     13  C   UNL     1      50.639   4.232  18.425  0.00  0.00    +0.000 A 
ATOM     14  C   UNL     1      51.629   5.163  18.729  0.00  0.00    +0.000 A 
ATOM     15  S   UNL     1      53.216   4.581  18.522  0.00  0.00    +0.000 S 
ATOM     16  C   UNL     1      52.642   3.072  17.986  0.00  0.00    +0.000 A 
ATOM     17  N   UNL     1      53.501   2.055  17.717  0.00  0.00    +0.000 NA
ATOM     18  C   UNL     1      52.926   0.963  17.337  0.00  0.00    +0.000 A 
ATOM     19  N   UNL     1      51.575   0.817  17.150  0.00  0.00    +0.000 N 
ATOM     20  C   UNL     1      50.718   1.893  17.192  0.00  0.00    +0.000 A 
ATOM     21  O   UNL     1      49.653   1.888  16.582  0.00  0.00    +0.000 OA
ATOM     22  C   UNL     1      51.263   3.064  17.849  0.00  0.00    +0.000 A 
ATOM     23  H   UNL     1      51.217  -0.017  16.708  0.00  0.00    +0.000 HD
ENDBRANCH  11  13
ENDBRANCH  10  11
ENDBRANCH   1  10
BRANCH   5  24
ATOM     24  C   UNL     1      46.049   5.824  11.586  0.00  0.00    +0.000 C 
BRANCH  24  25
ATOM     25  N   UNL     1      44.645   5.442  11.356  0.00  0.00    +0.000 NA
ATOM     26  H   UNL     1      44.301   4.980  12.197  0.00  0.00    +0.000 HD
BRANCH  25  27
ATOM     27  C   UNL     1      44.466   4.526  10.208  0.00  0.00    +0.000 C 
ATOM     28  C   UNL     1      45.522   4.760   9.113  0.00  0.00    +0.000 C 
ATOM     29  C   UNL     1      45.466   3.673   8.045  0.00  0.00    +0.000 C 
ATOM     30  C   UNL     1      45.549   2.284   8.666  0.00  0.00    +0.000 C 
ATOM     31  N   UNL     1      44.458   2.080   9.616  0.00  0.00    +0.000 NA
ATOM     32  C   UNL     1      44.520   3.058  10.708  0.00  0.00    +0.000 C 
ATOM     33  H   UNL     1      44.511   1.139  10.003  0.00  0.00    +0.000 HD
ENDBRANCH  25  27
ENDBRANCH  24  25
ENDBRANCH   5  24
TORSDOF 6
ENDMDL
MODEL 3
REMARK VINA RESULT:    -7.790      1.859      2.485
REMARK INTER + INTRA:         -11.588
REMARK INTER:                 -10.779
REMARK INTRA:                  -0.810
REMARK UNBOUND:                -1.065
REMARK  Name = 
REMARK  7 active torsions:
REMARK  status: ('A' for Active; 'I' for Inactive)
REMARK    1  A    between atoms: C_1  and  C_2
REMARK    2  A    between atoms: C_2  and  N_3
REMARK    3  A    between atoms: C_2  and  C_18
REMARK    4  A    between atoms: C_7  and  C_8
REMARK    5  A    between atoms: C_8  and  N_9
REMARK    6  A    between atoms: N_9  and  C_10
REMARK    7  A    between atoms: C_18  and  C_20
REMARK                            x       y       z     vdW  Elec       q    Type
REMARK                         _______ _______ _______ _____ _____    ______ ____
ROOT
ATOM      1  N   UNL     1      46.573   5.565  14.682  0.00  0.00    +0.000 N 
ATOM      2  C   UNL     1      46.037   4.970  13.550  0.00  0.00    +0.000 A 
ATOM      3  C   UNL     1      46.145   3.618  13.214  0.00  0.00    +0.000 A 
ATOM      4  N   UNL     1      45.555   3.051  12.129  0.00  0.00    +0.000 NA
ATOM      5  C   UNL     1      44.829   3.894  11.363  0.00  0.00    +0.000 A 
ATOM      6  C   UNL     1      44.715   5.240  11.685  0.00  0.00    +0.000 A 
ATOM      7  N   UNL     1      45.303   5.795  12.777  0.00  0.00    +0.000 NA
ATOM      8  H   UNL     1      46.473   6.572  14.565  0.00  0.00    +0.000 HD
ENDROOT
BRANCH   1  10
ATOM      9  C   UNL     1      48.785   6.329  15.413  0.00  0.00    +0.000 C 
ATOM     10  C   UNL     1      47.864   5.114  15.218  0.00  0.00    +0.000 C 
BRANCH  10  11
ATOM     11  C   UNL     1      47.673   4.373  16.564  0.00  0.00    +0.000 C 
ATOM     12  O   UNL     1      47.177   3.239  16.560  0.00  0.00    +0.000 OA
BRANCH  11  13
ATOM     13  C   UNL     1      48.073   4.955  17.868  0.00  0.00    +0.000 A 
ATOM     14  C   UNL     1      47.132   5.682  18.591  0.00  0.00    +0.000 A 
ATOM     15  S   UNL     1      47.644   6.115  20.157  0.00  0.00    +0.000 S 
ATOM     16  C   UNL     1      49.157   5.375  19.916  0.00  0.00    +0.000 A 
ATOM     17  N   UNL     1      50.067   5.307  20.922  0.00  0.00    +0.000 NA
ATOM     18  C   UNL     1      51.163   4.702  20.604  0.00  0.00    +0.000 A 
ATOM     19  N   UNL     1      51.449   4.211  19.356  0.00  0.00    +0.000 N 
ATOM     20  C   UNL     1      50.644   4.476  18.272  0.00  0.00    +0.000 A 
ATOM     21  O   UNL     1      51.089   4.479  17.129  0.00  0.00    +0.000 OA
ATOM     22  C   UNL     1      49.308   4.919  18.616  0.00  0.00    +0.000 A 
ATOM     23  H   UNL     1      52.383   3.889  19.146  0.00  0.00    +0.000 HD
ENDBRANCH  11  13
ENDBRANCH  10  11
ENDBRANCH   1  10
BRANCH   5  24
ATOM     24  C   UNL     1      44.170   3.339  10.122  0.00  0.00    +0.000 C 
BRANCH  24  25
ATOM     25  N   UNL     1      44.840   2.158   9.552  0.00  0.00    +0.000 NA
ATOM     26  H   UNL     1      45.185   1.587  10.323  0.00  0.00    +0.000 HD
BRANCH  25  27
ATOM     27  C   UNL     1      45.977   2.496   8.667  0.00  0.00    +0.000 C 
ATOM     28  C   UNL     1      46.483   1.270   7.886  0.00  0.00    +0.000 C 
ATOM     29  C   UNL     1      47.499   1.671   6.821  0.00  0.00    +0.000 C 
ATOM     30  C   UNL     1      46.949   2.768   5.918  0.00  0.00    +0.000 C 
ATOM     31  N   UNL     1      46.587   3.946   6.704  0.00  0.00    +0.000 NA
ATOM     32  C   UNL     1      45.550   3.623   7.690  0.00  0.00    +0.000 C 
ATOM     33  H   UNL     1      46.247   4.680   6.084  0.00  0.00    +0.000 HD
ENDBRANCH  25  27
ENDBRANCH  24  25
ENDBRANCH   5  24
TORSDOF 6
ENDMDL
MODEL 4
REMARK VINA RESULT:    -7.447      2.070      2.829
REMARK INTER + INTRA:         -11.124
REMARK INTER:                 -10.804
REMARK INTRA:                  -0.320
REMARK UNBOUND:                -1.065
REMARK  Name = 
REMARK  7 active torsions:
REMARK  status: ('A' for Active; 'I' for Inactive)
REMARK    1  A    between atoms: C_1  and  C_2
REMARK    2  A    between atoms: C_2  and  N_3
REMARK    3  A    between atoms: C_2  and  C_18
REMARK    4  A    between atoms: C_7  and  C_8
REMARK    5  A    between atoms: C_8  and  N_9
REMARK    6  A    between atoms: N_9  and  C_10
REMARK    7  A    between atoms: C_18  and  C_20
REMARK                            x       y       z     vdW  Elec       q    Type
REMARK                         _______ _______ _______ _____ _____    ______ ____
ROOT
ATOM      1  N   UNL     1      46.974   5.405  14.884  0.00  0.00    +0.000 N 
ATOM      2  C   UNL     1      46.341   5.226  13.664  0.00  0.00    +0.000 A 
ATOM      3  C   UNL     1      45.223   4.417  13.440  0.00  0.00    +0.000 A 
ATOM      4  N   UNL     1      44.584   4.311  12.245  0.00  0.00    +0.000 NA
ATOM      5  C   UNL     1      45.105   5.056  11.247  0.00  0.00    +0.000 A 
ATOM      6  C   UNL     1      46.216   5.862  11.455  0.00  0.00    +0.000 A 
ATOM      7  N   UNL     1      46.843   5.967  12.657  0.00  0.00    +0.000 NA
ATOM      8  H   UNL     1      47.841   5.907  14.698  0.00  0.00    +0.000 HD
ENDROOT
BRANCH   1  10
ATOM      9  C   UNL     1      47.748   3.093  15.149  0.00  0.00    +0.000 C 
ATOM     10  C   UNL     1      47.078   4.293  15.838  0.00  0.00    +0.000 C 
BRANCH  10  11
ATOM     11  C   UNL     1      47.895   4.711  17.084  0.00  0.00    +0.000 C 
ATOM     12  O   UNL     1      47.318   4.809  18.175  0.00  0.00    +0.000 OA
BRANCH  11  13
ATOM     13  C   UNL     1      49.351   4.987  17.039  0.00  0.00    +0.000 A 
ATOM     14  C   UNL     1      49.777   6.267  16.696  0.00  0.00    +0.000 A 
ATOM     15  S   UNL     1      51.451   6.515  16.883  0.00  0.00    +0.000 S 
ATOM     16  C   UNL     1      51.677   4.909  17.399  0.00  0.00    +0.000 A 
ATOM     17  N   UNL     1      52.896   4.475  17.811  0.00  0.00    +0.000 NA
ATOM     18  C   UNL     1      52.917   3.242  18.192  0.00  0.00    +0.000 A 
ATOM     19  N   UNL     1      51.842   2.392  18.144  0.00  0.00    +0.000 N 
ATOM     20  C   UNL     1      50.668   2.743  17.516  0.00  0.00    +0.000 A 
ATOM     21  O   UNL     1      49.915   1.897  17.047  0.00  0.00    +0.000 OA
ATOM     22  C   UNL     1      50.510   4.168  17.305  0.00  0.00    +0.000 A 
ATOM     23  H   UNL     1      51.974   1.405  18.315  0.00  0.00    +0.000 HD
ENDBRANCH  11  13
ENDBRANCH  10  11
ENDBRANCH   1  10
BRANCH   5  24
ATOM     24  C   UNL     1      44.465   4.963   9.881  0.00  0.00    +0.000 C 
BRANCH  24  25
ATOM     25  N   UNL     1      45.419   4.968   8.759  0.00  0.00    +0.000 NA
ATOM     26  H   UNL     1      45.137   5.700   8.108  0.00  0.00    +0.000 HD
BRANCH  25  27
ATOM     27  C   UNL     1      45.474   3.682   8.029  0.00  0.00    +0.000 C 
ATOM     28  C   UNL     1      46.600   3.663   6.980  0.00  0.00    +0.000 C 
ATOM     29  C   UNL     1      46.791   2.268   6.394  0.00  0.00    +0.000 C 
ATOM     30  C   UNL     1      46.981   1.229   7.493  0.00  0.00    +0.000 C 
ATOM     31  N   UNL     1      45.832   1.219   8.395  0.00  0.00    +0.000 NA
ATOM     32  C   UNL     1      45.658   2.523   9.044  0.00  0.00    +0.000 C 
ATOM     33  H   UNL     1      45.961   0.501   9.107  0.00  0.00    +0.000 HD
ENDBRANCH  25  27
ENDBRANCH  24  25
ENDBRANCH   5  24
TORSDOF 6
ENDMDL
MODEL 5
REMARK VINA RESULT:    -7.419      1.823      3.069
REMARK INTER + INTRA:         -11.086
REMARK INTER:                 -10.195
REMARK INTRA:                  -0.891
REMARK UNBOUND:                -1.065
REMARK  Name = 
REMARK  7 active torsions:
REMARK  status: ('A' for Active; 'I' for Inactive)
REMARK    1  A    between atoms: C_1  and  C_2
REMARK    2  A    between atoms: C_2  and  N_3
REMARK    3  A    between atoms: C_2  and  C_18
REMARK    4  A    between atoms: C_7  and  C_8
REMARK    5  A    between atoms: C_8  and  N_9
REMARK    6  A    between atoms: N_9  and  C_10
REMARK    7  A    between atoms: C_18  and  C_20
REMARK                            x       y       z     vdW  Elec       q    Type
REMARK                         _______ _______ _______ _____ _____    ______ ____
ROOT
ATOM      1  N   UNL     1      47.010   5.384  14.813  0.00  0.00    +0.000 N 
ATOM      2  C   UNL     1      46.326   5.148  13.630  0.00  0.00    +0.000 A 
ATOM      3  C   UNL     1      45.152   4.401  13.506  0.00  0.00    +0.000 A 
ATOM      4  N   UNL     1      44.469   4.238  12.342  0.00  0.00    +0.000 NA
ATOM      5  C   UNL     1      45.004   4.862  11.270  0.00  0.00    +0.000 A 
ATOM      6  C   UNL     1      46.171   5.606  11.380  0.00  0.00    +0.000 A 
ATOM      7  N   UNL     1      46.842   5.768  12.550  0.00  0.00    +0.000 NA
ATOM      8  H   UNL     1      47.901   5.810  14.562  0.00  0.00    +0.000 HD
ENDROOT
BRANCH   1  10
ATOM      9  C   UNL     1      47.896   3.159  15.339  0.00  0.00    +0.000 C 
ATOM     10  C   UNL     1      47.073   4.351  15.855  0.00  0.00    +0.000 C 
BRANCH  10  11
ATOM     11  C   UNL     1      47.708   4.912  17.150  0.00  0.00    +0.000 C 
ATOM     12  O   UNL     1      46.998   5.055  18.153  0.00  0.00    +0.000 OA
BRANCH  11  13
ATOM     13  C   UNL     1      49.142   5.275  17.252  0.00  0.00    +0.000 A 
ATOM     14  C   UNL     1      49.948   4.564  18.137  0.00  0.00    +0.000 A 
ATOM     15  S   UNL     1      51.607   4.930  18.011  0.00  0.00    +0.000 S 
ATOM     16  C   UNL     1      51.308   6.077  16.790  0.00  0.00    +0.000 A 
ATOM     17  N   UNL     1      52.332   6.713  16.166  0.00  0.00    +0.000 NA
ATOM     18  C   UNL     1      51.960   7.543  15.250  0.00  0.00    +0.000 A 
ATOM     19  N   UNL     1      50.655   7.831  14.941  0.00  0.00    +0.000 N 
ATOM     20  C   UNL     1      49.611   7.376  15.715  0.00  0.00    +0.000 A 
ATOM     21  O   UNL     1      48.542   7.976  15.765  0.00  0.00    +0.000 OA
ATOM     22  C   UNL     1      49.951   6.263  16.578  0.00  0.00    +0.000 A 
ATOM     23  H   UNL     1      50.444   8.599  14.321  0.00  0.00    +0.000 HD
ENDBRANCH  11  13
ENDBRANCH  10  11
ENDBRANCH   1  10
BRANCH   5  24
ATOM     24  C   UNL     1      44.315   4.699   9.935  0.00  0.00    +0.000 C 
BRANCH  24  25
ATOM     25  N   UNL     1      45.202   4.847   8.769  0.00  0.00    +0.000 NA
ATOM     26  H   UNL     1      44.797   5.549   8.150  0.00  0.00    +0.000 HD
BRANCH  25  27
ATOM     27  C   UNL     1      45.384   3.592   8.006  0.00  0.00    +0.000 C 
ATOM     28  C   UNL     1      46.571   3.678   7.031  0.00  0.00    +0.000 C 
ATOM     29  C   UNL     1      46.886   2.318   6.417  0.00  0.00    +0.000 C 
ATOM     30  C   UNL     1      47.075   1.256   7.494  0.00  0.00    +0.000 C 
ATOM     31  N   UNL     1      45.875   1.144   8.321  0.00  0.00    +0.000 NA
ATOM     32  C   UNL     1      45.580   2.413   8.996  0.00  0.00    +0.000 C 
ATOM     33  H   UNL     1      46.006   0.413   9.018  0.00  0.00    +0.000 HD
ENDBRANCH  25  27
ENDBRANCH  24  25
ENDBRANCH   5  24
TORSDOF 6
ENDMDL
MODEL 6
REMARK VINA RESULT:    -7.370      1.765      2.077
REMARK INTER + INTRA:         -11.020
REMARK INTER:                 -10.131
REMARK INTRA:                  -0.889
REMARK UNBOUND:                -1.065
REMARK  Name = 
REMARK  7 active torsions:
REMARK  status: ('A' for Active; 'I' for Inactive)
REMARK    1  A    between atoms: C_1  and  C_2
REMARK    2  A    between atoms: C_2  and  N_3
REMARK    3  A    between atoms: C_2  and  C_18
REMARK    4  A    between atoms: C_7  and  C_8
REMARK    5  A    between atoms: C_8  and  N_9
REMARK    6  A    between atoms: N_9  and  C_10
REMARK    7  A    between atoms: C_18  and  C_20
REMARK                            x       y       z     vdW  Elec       q    Type
REMARK                         _______ _______ _______ _____ _____    ______ ____
ROOT
ATOM      1  N   UNL     1      47.540   6.234  14.059  0.00  0.00    +0.000 N 
ATOM      2  C   UNL     1      46.618   5.849  13.098  0.00  0.00    +0.000 A 
ATOM      3  C   UNL     1      46.705   6.130  11.731  0.00  0.00    +0.000 A 
ATOM      4  N   UNL     1      45.818   5.685  10.802  0.00  0.00    +0.000 NA
ATOM      5  C   UNL     1      44.810   4.927  11.286  0.00  0.00    +0.000 A 
ATOM      6  C   UNL     1      44.712   4.643  12.642  0.00  0.00    +0.000 A 
ATOM      7  N   UNL     1      45.609   5.087  13.561  0.00  0.00    +0.000 NA
ATOM      8  H   UNL     1      47.124   6.032  14.968  0.00  0.00    +0.000 HD
ENDROOT
BRANCH   1  10
ATOM      9  C   UNL     1      47.246   8.659  14.278  0.00  0.00    +0.000 C 
ATOM     10  C   UNL     1      48.232   7.525  13.951  0.00  0.00    +0.000 C 
BRANCH  10  11
ATOM     11  C   UNL     1      49.443   7.583  14.913  0.00  0.00    +0.000 C 
ATOM     12  O   UNL     1      50.587   7.570  14.440  0.00  0.00    +0.000 OA
BRANCH  11  13
ATOM     13  C   UNL     1      49.299   7.670  16.386  0.00  0.00    +0.000 A 
ATOM     14  C   UNL     1      49.838   8.772  17.045  0.00  0.00    +0.000 A 
ATOM     15  S   UNL     1      49.427   8.862  18.695  0.00  0.00    +0.000 S 
ATOM     16  C   UNL     1      48.537   7.415  18.600  0.00  0.00    +0.000 A 
ATOM     17  N   UNL     1      47.837   6.957  19.670  0.00  0.00    +0.000 NA
ATOM     18  C   UNL     1      47.195   5.858  19.450  0.00  0.00    +0.000 A 
ATOM     19  N   UNL     1      47.237   5.151  18.276  0.00  0.00    +0.000 N 
ATOM     20  C   UNL     1      48.118   5.473  17.268  0.00  0.00    +0.000 A 
ATOM     21  O   UNL     1      48.511   4.631  16.468  0.00  0.00    +0.000 OA
ATOM     22  C   UNL     1      48.663   6.813  17.359  0.00  0.00    +0.000 A 
ATOM     23  H   UNL     1      46.832   4.228  18.231  0.00  0.00    +0.000 HD
ENDBRANCH  11  13
ENDBRANCH  10  11
ENDBRANCH   1  10
BRANCH   5  24
ATOM     24  C   UNL     1      43.768   4.424  10.315  0.00  0.00    +0.000 C 
BRANCH  24  25
ATOM     25  N   UNL     1      44.108   4.626   8.896  0.00  0.00    +0.000 NA
ATOM     26  H   UNL     1      43.277   4.970   8.417  0.00  0.00    +0.000 HD
BRANCH  25  27
ATOM     27  C   UNL     1      44.566   3.391   8.220  0.00  0.00    +0.000 C 
ATOM     28  C   UNL     1      45.791   3.645   7.324  0.00  0.00    +0.000 C 
ATOM     29  C   UNL     1      46.386   2.338   6.812  0.00  0.00    +0.000 C 
ATOM     30  C   UNL     1      46.675   1.376   7.959  0.00  0.00    +0.000 C 
ATOM     31  N   UNL     1      45.453   1.087   8.706  0.00  0.00    +0.000 NA
ATOM     32  C   UNL     1      44.888   2.311   9.286  0.00  0.00    +0.000 C 
ATOM     33  H   UNL     1      45.656   0.423   9.452  0.00  0.00    +0.000 HD
ENDBRANCH  25  27
ENDBRANCH  24  25
ENDBRANCH   5  24
TORSDOF 6
ENDMDL
MODEL 7
REMARK VINA RESULT:    -6.766      1.898      2.244
REMARK INTER + INTRA:         -10.205
REMARK INTER:                  -9.366
REMARK INTRA:                  -0.839
REMARK UNBOUND:                -1.065
REMARK  Name = 
REMARK  7 active torsions:
REMARK  status: ('A' for Active; 'I' for Inactive)
REMARK    1  A    between atoms: C_1  and  C_2
REMARK    2  A    between atoms: C_2  and  N_3
REMARK    3  A    between atoms: C_2  and  C_18
REMARK    4  A    between atoms: C_7  and  C_8
REMARK    5  A    between atoms: C_8  and  N_9
REMARK    6  A    between atoms: N_9  and  C_10
REMARK    7  A    between atoms: C_18  and  C_20
REMARK                            x       y       z     vdW  Elec       q    Type
REMARK                         _______ _______ _______ _____ _____    ______ ____
ROOT
ATOM      1  N   UNL     1      47.253   7.908  14.051  0.00  0.00    +0.000 N 
ATOM      2  C   UNL     1      46.521   6.997  13.306  0.00  0.00    +0.000 A 
ATOM      3  C   UNL     1      46.636   5.606  13.383  0.00  0.00    +0.000 A 
ATOM      4  N   UNL     1      45.860   4.735  12.685  0.00  0.00    +0.000 NA
ATOM      5  C   UNL     1      44.936   5.305  11.882  0.00  0.00    +0.000 A 
ATOM      6  C   UNL     1      44.813   6.686  11.795  0.00  0.00    +0.000 A 
ATOM      7  N   UNL     1      45.589   7.547  12.503  0.00  0.00    +0.000 NA
ATOM      8  H   UNL     1      47.069   8.830  13.657  0.00  0.00    +0.000 HD
ENDROOT
BRANCH   1  10
ATOM      9  C   UNL     1      49.568   8.568  13.584  0.00  0.00    +0.000 C 
ATOM     10  C   UNL     1      48.654   7.634  14.394  0.00  0.00    +0.000 C 
BRANCH  10  11
ATOM     11  C   UNL     1      48.900   7.836  15.909  0.00  0.00    +0.000 C 
ATOM     12  O   UNL     1      49.367   8.913  16.302  0.00  0.00    +0.000 OA
BRANCH  11  13
ATOM     13  C   UNL     1      48.586   6.801  16.922  0.00  0.00    +0.000 A 
ATOM     14  C   UNL     1      48.663   5.461  16.553  0.00  0.00    +0.000 A 
ATOM     15  S   UNL     1      48.487   4.372  17.851  0.00  0.00    +0.000 S 
ATOM     16  C   UNL     1      48.268   5.650  18.952  0.00  0.00    +0.000 A 
ATOM     17  N   UNL     1      48.148   5.410  20.283  0.00  0.00    +0.000 NA
ATOM     18  C   UNL     1      48.005   6.472  21.002  0.00  0.00    +0.000 A 
ATOM     19  N   UNL     1      47.917   7.746  20.503  0.00  0.00    +0.000 N 
ATOM     20  C   UNL     1      47.802   7.988  19.152  0.00  0.00    +0.000 A 
ATOM     21  O   UNL     1      47.258   9.002  18.727  0.00  0.00    +0.000 OA
ATOM     22  C   UNL     1      48.204   6.878  18.313  0.00  0.00    +0.000 A 
ATOM     23  H   UNL     1      47.654   8.507  21.112  0.00  0.00    +0.000 HD
ENDBRANCH  11  13
ENDBRANCH  10  11
ENDBRANCH   1  10
BRANCH   5  24
ATOM     24  C   UNL     1      44.059   4.398  11.051  0.00  0.00    +0.000 C 
BRANCH  24  25
ATOM     25  N   UNL     1      43.972   4.769   9.629  0.00  0.00    +0.000 NA
ATOM     26  H   UNL     1      43.000   4.998   9.420  0.00  0.00    +0.000 HD
BRANCH  25  27
ATOM     27  C   UNL     1      44.412   3.693   8.713  0.00  0.00    +0.000 C 
ATOM     28  C   UNL     1      45.714   4.058   7.979  0.00  0.00    +0.000 C 
ATOM     29  C   UNL     1      46.274   2.864   7.213  0.00  0.00    +0.000 C 
ATOM     30  C   UNL     1      46.420   1.646   8.119  0.00  0.00    +0.000 C 
ATOM     31  N   UNL     1      45.130   1.282   8.701  0.00  0.00    +0.000 NA
ATOM     32  C   UNL     1      44.591   2.377   9.515  0.00  0.00    +0.000 C 
ATOM     33  H   UNL     1      45.238   0.451   9.281  0.00  0.00    +0.000 HD
ENDBRANCH  25  27
ENDBRANCH  24  25
ENDBRANCH   5  24
TORSDOF 6
ENDMDL
MODEL 8
REMARK VINA RESULT:    -6.681      1.918      2.373
REMARK INTER + INTRA:         -10.090
REMARK INTER:                  -9.141
REMARK INTRA:                  -0.949
REMARK UNBOUND:                -1.065
REMARK  Name = 
REMARK  7 active torsions:
REMARK  status: ('A' for Active; 'I' for Inactive)
REMARK    1  A    between atoms: C_1  and  C_2
REMARK    2  A    between atoms: C_2  and  N_3
REMARK    3  A    between atoms: C_2  and  C_18
REMARK    4  A    between atoms: C_7  and  C_8
REMARK    5  A    between atoms: C_8  and  N_9
REMARK    6  A    between atoms: N_9  and  C_10
REMARK    7  A    between atoms: C_18  and  C_20
REMARK                            x       y       z     vdW  Elec       q    Type
REMARK                         _______ _______ _______ _____ _____    ______ ____
ROOT
ATOM      1  N   UNL     1      48.347   8.145  14.022  0.00  0.00    +0.000 N 
ATOM      2  C   UNL     1      47.506   7.233  13.405  0.00  0.00    +0.000 A 
ATOM      3  C   UNL     1      47.236   5.939  13.860  0.00  0.00    +0.000 A 
ATOM      4  N   UNL     1      46.357   5.088  13.267  0.00  0.00    +0.000 NA
ATOM      5  C   UNL     1      45.733   5.577  12.174  0.00  0.00    +0.000 A 
ATOM      6  C   UNL     1      45.994   6.860  11.710  0.00  0.00    +0.000 A 
ATOM      7  N   UNL     1      46.869   7.705  12.315  0.00  0.00    +0.000 NA
ATOM      8  H   UNL     1      48.469   8.923  13.376  0.00  0.00    +0.000 HD
ENDROOT
BRANCH   1  10
ATOM      9  C   UNL     1      50.796   8.259  13.976  0.00  0.00    +0.000 C 
ATOM     10  C   UNL     1      49.567   7.690  14.703  0.00  0.00    +0.000 C 
BRANCH  10  11
ATOM     11  C   UNL     1      49.572   8.140  16.184  0.00  0.00    +0.000 C 
ATOM     12  O   UNL     1      50.019   9.258  16.470  0.00  0.00    +0.000 OA
BRANCH  11  13
ATOM     13  C   UNL     1      49.048   7.296  17.284  0.00  0.00    +0.000 A 
ATOM     14  C   UNL     1      48.170   7.866  18.202  0.00  0.00    +0.000 A 
ATOM     15  S   UNL     1      47.479   6.749  19.286  0.00  0.00    +0.000 S 
ATOM     16  C   UNL     1      48.350   5.464  18.591  0.00  0.00    +0.000 A 
ATOM     17  N   UNL     1      48.154   4.186  19.003  0.00  0.00    +0.000 NA
ATOM     18  C   UNL     1      48.869   3.312  18.376  0.00  0.00    +0.000 A 
ATOM     19  N   UNL     1      49.800   3.610  17.415  0.00  0.00    +0.000 N 
ATOM     20  C   UNL     1      50.178   4.908  17.152  0.00  0.00    +0.000 A 
ATOM     21  O   UNL     1      51.284   5.171  16.690  0.00  0.00    +0.000 OA
ATOM     22  C   UNL     1      49.247   5.909  17.633  0.00  0.00    +0.000 A 
ATOM     23  H   UNL     1      50.424   2.891  17.081  0.00  0.00    +0.000 HD
ENDBRANCH  11  13
ENDBRANCH  10  11
ENDBRANCH   1  10
BRANCH   5  24
ATOM     24  C   UNL     1      44.765   4.675  11.444  0.00  0.00    +0.000 C 
BRANCH  24  25
ATOM     25  N   UNL     1      44.457   5.097  10.067  0.00  0.00    +0.000 NA
ATOM     26  H   UNL     1      43.489   5.414  10.043  0.00  0.00    +0.000 HD
BRANCH  25  27
ATOM     27  C   UNL     1      44.626   4.017   9.069  0.00  0.00    +0.000 C 
ATOM     28  C   UNL     1      45.859   4.245   8.177  0.00  0.00    +0.000 C 
ATOM     29  C   UNL     1      46.150   3.026   7.308  0.00  0.00    +0.000 C 
ATOM     30  C   UNL     1      46.249   1.759   8.150  0.00  0.00    +0.000 C 
ATOM     31  N   UNL     1      45.009   1.537   8.891  0.00  0.00    +0.000 NA
ATOM     32  C   UNL     1      44.732   2.653   9.801  0.00  0.00    +0.000 C 
ATOM     33  H   UNL     1      45.081   0.673   9.427  0.00  0.00    +0.000 HD
ENDBRANCH  25  27
ENDBRANCH  24  25
ENDBRANCH   5  24
TORSDOF 6
ENDMDL
MODEL 9
REMARK VINA RESULT:    -6.383      1.689      2.397
REMARK INTER + INTRA:          -9.687
REMARK INTER:                  -8.965
REMARK INTRA:                  -0.722
REMARK UNBOUND:                -1.065
REMARK  Name = 
REMARK  7 active torsions:
REMARK  status: ('A' for Active; 'I' for Inactive)
REMARK    1  A    between atoms: C_1  and  C_2
REMARK    2  A    between atoms: C_2  and  N_3
REMARK    3  A    between atoms: C_2  and  C_18
REMARK    4  A    between atoms: C_7  and  C_8
REMARK    5  A    between atoms: C_8  and  N_9
REMARK    6  A    between atoms: N_9  and  C_10
REMARK    7  A    between atoms: C_18  and  C_20
REMARK                            x       y       z     vdW  Elec       q    Type
REMARK                         _______ _______ _______ _____ _____    ______ ____
ROOT
ATOM      1  N   UNL     1      49.240   6.971  13.806  0.00  0.00    +0.000 N 
ATOM      2  C   UNL     1      48.063   6.496  13.250  0.00  0.00    +0.000 A 
ATOM      3  C   UNL     1      47.333   7.122  12.236  0.00  0.00    +0.000 A 
ATOM      4  N   UNL     1      46.214   6.601  11.665  0.00  0.00    +0.000 NA
ATOM      5  C   UNL     1      45.831   5.399  12.147  0.00  0.00    +0.000 A 
ATOM      6  C   UNL     1      46.546   4.767  13.156  0.00  0.00    +0.000 A 
ATOM      7  N   UNL     1      47.667   5.294  13.714  0.00  0.00    +0.000 NA
ATOM      8  H   UNL     1      49.438   6.393  14.622  0.00  0.00    +0.000 HD
ENDROOT
BRANCH   1  10
ATOM      9  C   UNL     1      48.125   9.069  14.412  0.00  0.00    +0.000 C 
ATOM     10  C   UNL     1      49.449   8.413  13.986  0.00  0.00    +0.000 C 
BRANCH  10  11
ATOM     11  C   UNL     1      50.540   8.684  15.049  0.00  0.00    +0.000 C 
ATOM     12  O   UNL     1      50.748   9.849  15.413  0.00  0.00    +0.000 OA
BRANCH  11  13
ATOM     13  C   UNL     1      51.344   7.605  15.672  0.00  0.00    +0.000 A 
ATOM     14  C   UNL     1      52.671   7.452  15.280  0.00  0.00    +0.000 A 
ATOM     15  S   UNL     1      53.544   6.324  16.212  0.00  0.00    +0.000 S 
ATOM     16  C   UNL     1      52.172   5.974  17.155  0.00  0.00    +0.000 A 
ATOM     17  N   UNL     1      52.253   5.130  18.216  0.00  0.00    +0.000 NA
ATOM     18  C   UNL     1      51.140   4.970  18.851  0.00  0.00    +0.000 A 
ATOM     19  N   UNL     1      49.945   5.534  18.486  0.00  0.00    +0.000 N 
ATOM     20  C   UNL     1      49.794   6.199  17.290  0.00  0.00    +0.000 A 
ATOM     21  O   UNL     1      48.703   6.279  16.735  0.00  0.00    +0.000 OA
ATOM     22  C   UNL     1      51.040   6.616  16.678  0.00  0.00    +0.000 A 
ATOM     23  H   UNL     1      49.092   5.243  18.941  0.00  0.00    +0.000 HD
ENDBRANCH  11  13
ENDBRANCH  10  11
ENDBRANCH   1  10
BRANCH   5  24
ATOM     24  C   UNL     1      44.577   4.773  11.582  0.00  0.00    +0.000 C 
BRANCH  24  25
ATOM     25  N   UNL     1      44.260   5.181  10.203  0.00  0.00    +0.000 NA
ATOM     26  H   UNL     1      43.284   5.478  10.177  0.00  0.00    +0.000 HD
BRANCH  25  27
ATOM     27  C   UNL     1      44.450   4.100   9.211  0.00  0.00    +0.000 C 
ATOM     28  C   UNL     1      45.731   4.298   8.382  0.00  0.00    +0.000 C 
ATOM     29  C   UNL     1      46.033   3.073   7.524  0.00  0.00    +0.000 C 
ATOM     30  C   UNL     1      46.057   1.802   8.366  0.00  0.00    +0.000 C 
ATOM     31  N   UNL     1      44.777   1.611   9.043  0.00  0.00    +0.000 NA
ATOM     32  C   UNL     1      44.483   2.732   9.942  0.00  0.00    +0.000 C 
ATOM     33  H   UNL     1      44.799   0.744   9.579  0.00  0.00    +0.000 HD
ENDBRANCH  25  27
ENDBRANCH  24  25
ENDBRANCH   5  24
TORSDOF 6
ENDMDL
