MODEL 1
REMARK VINA RESULT:    -8.375      0.000      0.000
REMARK INTER + INTRA:         -12.987
REMARK INTER:                 -11.802
REMARK INTRA:                  -1.185
REMARK UNBOUND:                -1.185
REMARK  Name = 
REMARK  7 active torsions:
REMARK  status: ('A' for Active; 'I' for Inactive)
REMARK    1  A    between atoms: C_2  and  C_20
REMARK    2  A    between atoms: N_3  and  C_4
REMARK    3  A    between atoms: C_4  and  C_5
REMARK    4  A    between atoms: C_9  and  C_10
REMARK    5  A    between atoms: C_10  and  O_11
REMARK    6  A    between atoms: O_11  and  C_12
REMARK    7  A    between atoms: C_12  and  C_13
REMARK                            x       y       z     vdW  Elec       q    Type
REMARK                         _______ _______ _______ _____ _____    ______ ____
ROOT
ATOM      1  C   UNL     1      46.637   7.216  12.083  0.00  0.00    +0.000 C 
ENDROOT
BRANCH   1   2
ATOM      2  C   UNL     1      45.358   6.497  11.767  0.00  0.00    +0.000 A 
ATOM      3  C   UNL     1      44.167   7.202  11.585  0.00  0.00    +0.000 A 
ATOM      4  C   UNL     1      43.020   6.493  11.275  0.00  0.00    +0.000 A 
ATOM      5  N   UNL     1      42.977   5.149  11.142  0.00  0.00    +0.000 NA
ATOM      6  C   UNL     1      44.131   4.465  11.349  0.00  0.00    +0.000 A 
ATOM      7  C   UNL     1      45.330   5.102  11.664  0.00  0.00    +0.000 A 
BRANCH   6   8
ATOM      8  C   UNL     1      44.086   2.964  11.194  0.00  0.00    +0.000 C 
BRANCH   8   9
ATOM      9  O   UNL     1      45.180   2.537  10.380  0.00  0.00    +0.000 OA
BRANCH   9  10
ATOM     10  C   UNL     1      44.742   2.003   9.134  0.00  0.00    +0.000 C 
BRANCH  10  11
ATOM     11  C   UNL     1      45.825   2.179   8.107  0.00  0.00    +0.000 A 
ATOM     12  C   UNL     1      46.043   3.389   7.440  0.00  0.00    +0.000 A 
ATOM     13  C   UNL     1      47.081   3.498   6.520  0.00  0.00    +0.000 A 
ATOM     14  C   UNL     1      47.883   2.390   6.303  0.00  0.00    +0.000 A 
ATOM     15  N   UNL     1      47.715   1.208   6.932  0.00  0.00    +0.000 NA
ATOM     16  C   UNL     1      46.696   1.133   7.819  0.00  0.00    +0.000 A 
ENDBRANCH  10  11
ENDBRANCH   9  10
ENDBRANCH   8   9
ENDBRANCH   6   8
ENDBRANCH   1   2
BRANCH   1  19
ATOM     17  O   UNL     1      49.205   6.558  13.032  0.00  0.00    +0.000 OA
ATOM     18  C   UNL     1      48.274   6.650  13.830  0.00  0.00    +0.000 C 
ATOM     19  N   UNL     1      47.013   7.026  13.456  0.00  0.00    +0.000 N 
ATOM     20  H   UNL     1      46.270   7.055  14.144  0.00  0.00    +0.000 HD
BRANCH  18  21
ATOM     21  C   UNL     1      48.460   6.390  15.255  0.00  0.00    +0.000 A 
ATOM     22  C   UNL     1      49.135   7.291  16.065  0.00  0.00    +0.000 A 
ATOM     23  S   UNL     1      49.267   6.771  17.686  0.00  0.00    +0.000 S 
ATOM     24  C   UNL     1      48.437   5.322  17.350  0.00  0.00    +0.000 A 
ATOM     25  N   UNL     1      48.214   4.394  18.319  0.00  0.00    +0.000 NA
ATOM     26  C   UNL     1      47.549   3.362  17.924  0.00  0.00    +0.000 A 
ATOM     27  N   UNL     1      47.083   3.167  16.650  0.00  0.00    +0.000 N 
ATOM     28  C   UNL     1      47.308   4.058  15.631  0.00  0.00    +0.000 A 
ATOM     29  O   UNL     1      46.874   3.848  14.507  0.00  0.00    +0.000 OA
ATOM     30  C   UNL     1      48.044   5.248  16.027  0.00  0.00    +0.000 A 
ATOM     31  H   UNL     1      46.553   2.345  16.407  0.00  0.00    +0.000 HD
ENDBRANCH  18  21
ENDBRANCH   1  19
TORSDOF 7
ENDMDL
MODEL 2
REMARK VINA RESULT:    -8.280      2.362      3.420
REMARK INTER + INTRA:         -12.853
REMARK INTER:                 -11.850
REMARK INTRA:                  -1.003
REMARK UNBOUND:                -1.185
REMARK  Name = 
REMARK  7 active torsions:
REMARK  status: ('A' for Active; 'I' for Inactive)
REMARK    1  A    between atoms: C_2  and  C_20
REMARK    2  A    between atoms: N_3  and  C_4
REMARK    3  A    between atoms: C_4  and  C_5
REMARK    4  A    between atoms: C_9  and  C_10
REMARK    5  A    between atoms: C_10  and  O_11
REMARK    6  A    between atoms: O_11  and  C_12
REMARK    7  A    between atoms: C_12  and  C_13
REMARK                            x       y       z     vdW  Elec       q    Type
REMARK                         _______ _______ _______ _____ _____    ______ ____
ROOT
ATOM      1  C   UNL     1      46.626   3.959  14.686  0.00  0.00    +0.000 C 
ENDROOT
BRANCH   1   2
ATOM      2  C   UNL     1      46.736   4.976  13.587  0.00  0.00    +0.000 A 
ATOM      3  C   UNL     1      47.579   6.082  13.718  0.00  0.00    +0.000 A 
ATOM      4  C   UNL     1      47.660   6.979  12.669  0.00  0.00    +0.000 A 
ATOM      5  N   UNL     1      46.964   6.857  11.517  0.00  0.00    +0.000 NA
ATOM      6  C   UNL     1      46.124   5.797  11.406  0.00  0.00    +0.000 A 
ATOM      7  C   UNL     1      45.983   4.847  12.416  0.00  0.00    +0.000 A 
BRANCH   6   8
ATOM      8  C   UNL     1      45.351   5.655  10.117  0.00  0.00    +0.000 C 
BRANCH   8   9
ATOM      9  O   UNL     1      44.829   4.329  10.018  0.00  0.00    +0.000 OA
BRANCH   9  10
ATOM     10  C   UNL     1      44.475   3.992   8.680  0.00  0.00    +0.000 C 
BRANCH  10  11
ATOM     11  C   UNL     1      45.520   3.080   8.102  0.00  0.00    +0.000 A 
ATOM     12  C   UNL     1      46.472   3.514   7.174  0.00  0.00    +0.000 A 
ATOM     13  C   UNL     1      47.433   2.627   6.697  0.00  0.00    +0.000 A 
ATOM     14  C   UNL     1      47.420   1.328   7.175  0.00  0.00    +0.000 A 
ATOM     15  N   UNL     1      46.526   0.870   8.078  0.00  0.00    +0.000 NA
ATOM     16  C   UNL     1      45.604   1.755   8.521  0.00  0.00    +0.000 A 
ENDBRANCH  10  11
ENDBRANCH   9  10
ENDBRANCH   8   9
ENDBRANCH   6   8
ENDBRANCH   1   2
BRANCH   1  19
ATOM     17  O   UNL     1      46.591   3.265  17.415  0.00  0.00    +0.000 OA
ATOM     18  C   UNL     1      47.608   3.761  16.933  0.00  0.00    +0.000 C 
ATOM     19  N   UNL     1      47.725   4.067  15.604  0.00  0.00    +0.000 N 
ATOM     20  H   UNL     1      48.570   4.506  15.260  0.00  0.00    +0.000 HD
BRANCH  18  21
ATOM     21  C   UNL     1      48.786   4.033  17.750  0.00  0.00    +0.000 A 
ATOM     22  C   UNL     1      48.798   5.076  18.665  0.00  0.00    +0.000 A 
ATOM     23  S   UNL     1      50.287   5.236  19.485  0.00  0.00    +0.000 S 
ATOM     24  C   UNL     1      50.962   3.923  18.636  0.00  0.00    +0.000 A 
ATOM     25  N   UNL     1      52.245   3.526  18.853  0.00  0.00    +0.000 NA
ATOM     26  C   UNL     1      52.609   2.501  18.158  0.00  0.00    +0.000 A 
ATOM     27  N   UNL     1      51.812   1.832  17.266  0.00  0.00    +0.000 N 
ATOM     28  C   UNL     1      50.522   2.212  16.990  0.00  0.00    +0.000 A 
ATOM     29  O   UNL     1      49.843   1.588  16.188  0.00  0.00    +0.000 OA
ATOM     30  C   UNL     1      50.058   3.358  17.758  0.00  0.00    +0.000 A 
ATOM     31  H   UNL     1      52.149   1.025  16.765  0.00  0.00    +0.000 HD
ENDBRANCH  18  21
ENDBRANCH   1  19
TORSDOF 7
ENDMDL
MODEL 3
REMARK VINA RESULT:    -8.213      2.070      3.201
REMARK INTER + INTRA:         -12.759
REMARK INTER:                 -11.726
REMARK INTRA:                  -1.033
REMARK UNBOUND:                -1.185
REMARK  Name = 
REMARK  7 active torsions:
REMARK  status: ('A' for Active; 'I' for Inactive)
REMARK    1  A    between atoms: C_2  and  C_20
REMARK    2  A    between atoms: N_3  and  C_4
REMARK    3  A    between atoms: C_4  and  C_5
REMARK    4  A    between atoms: C_9  and  C_10
REMARK    5  A    between atoms: C_10  and  O_11
REMARK    6  A    between atoms: O_11  and  C_12
REMARK    7  A    between atoms: C_12  and  C_13
REMARK                            x       y       z     vdW  Elec       q    Type
REMARK                         _______ _______ _______ _____ _____    ______ ____
ROOT
ATOM      1  C   UNL     1      46.982   3.746  14.598  0.00  0.00    +0.000 C 
ENDROOT
BRANCH   1   2
ATOM      2  C   UNL     1      46.478   4.696  13.549  0.00  0.00    +0.000 A 
ATOM      3  C   UNL     1      47.055   5.957  13.391  0.00  0.00    +0.000 A 
ATOM      4  C   UNL     1      46.568   6.786  12.396  0.00  0.00    +0.000 A 
ATOM      5  N   UNL     1      45.555   6.453  11.566  0.00  0.00    +0.000 NA
ATOM      6  C   UNL     1      44.979   5.238  11.743  0.00  0.00    +0.000 A 
ATOM      7  C   UNL     1      45.409   4.342  12.721  0.00  0.00    +0.000 A 
BRANCH   6   8
ATOM      8  C   UNL     1      43.852   4.861  10.811  0.00  0.00    +0.000 C 
BRANCH   8   9
ATOM      9  O   UNL     1      44.243   3.737  10.021  0.00  0.00    +0.000 OA
BRANCH   9  10
ATOM     10  C   UNL     1      44.572   4.110   8.686  0.00  0.00    +0.000 C 
BRANCH  10  11
ATOM     11  C   UNL     1      45.548   3.120   8.117  0.00  0.00    +0.000 A 
ATOM     12  C   UNL     1      46.495   3.465   7.147  0.00  0.00    +0.000 A 
ATOM     13  C   UNL     1      47.392   2.508   6.680  0.00  0.00    +0.000 A 
ATOM     14  C   UNL     1      47.321   1.231   7.209  0.00  0.00    +0.000 A 
ATOM     15  N   UNL     1      46.431   0.858   8.153  0.00  0.00    +0.000 NA
ATOM     16  C   UNL     1      45.571   1.809   8.585  0.00  0.00    +0.000 A 
ENDBRANCH  10  11
ENDBRANCH   9  10
ENDBRANCH   8   9
ENDBRANCH   6   8
ENDBRANCH   1   2
BRANCH   1  19
ATOM     17  O   UNL     1      46.594   3.094  17.310  0.00  0.00    +0.000 OA
ATOM     18  C   UNL     1      47.230   4.106  17.019  0.00  0.00    +0.000 C 
ATOM     19  N   UNL     1      47.514   4.457  15.728  0.00  0.00    +0.000 N 
ATOM     20  H   UNL     1      48.011   5.318  15.536  0.00  0.00    +0.000 HD
BRANCH  18  21
ATOM     21  C   UNL     1      47.758   4.998  18.047  0.00  0.00    +0.000 A 
ATOM     22  C   UNL     1      46.909   5.732  18.863  0.00  0.00    +0.000 A 
ATOM     23  S   UNL     1      47.738   6.735  19.969  0.00  0.00    +0.000 S 
ATOM     24  C   UNL     1      49.254   6.226  19.383  0.00  0.00    +0.000 A 
ATOM     25  N   UNL     1      50.412   6.720  19.897  0.00  0.00    +0.000 NA
ATOM     26  C   UNL     1      51.482   6.221  19.375  0.00  0.00    +0.000 A 
ATOM     27  N   UNL     1      51.505   5.274  18.385  0.00  0.00    +0.000 N 
ATOM     28  C   UNL     1      50.365   4.767  17.813  0.00  0.00    +0.000 A 
ATOM     29  O   UNL     1      50.428   3.921  16.932  0.00  0.00    +0.000 OA
ATOM     30  C   UNL     1      49.129   5.288  18.376  0.00  0.00    +0.000 A 
ATOM     31  H   UNL     1      52.375   4.910  18.029  0.00  0.00    +0.000 HD
ENDBRANCH  18  21
ENDBRANCH   1  19
TORSDOF 7
ENDMDL
MODEL 4
REMARK VINA RESULT:    -7.767      1.717      2.219
REMARK INTER + INTRA:         -12.131
REMARK INTER:                 -11.203
REMARK INTRA:                  -0.928
REMARK UNBOUND:                -1.185
REMARK  Name = 
REMARK  7 active torsions:
REMARK  status: ('A' for Active; 'I' for Inactive)
REMARK    1  A    between atoms: C_2  and  C_20
REMARK    2  A    between atoms: N_3  and  C_4
REMARK    3  A    between atoms: C_4  and  C_5
REMARK    4  A    between atoms: C_9  and  C_10
REMARK    5  A    between atoms: C_10  and  O_11
REMARK    6  A    between atoms: O_11  and  C_12
REMARK    7  A    between atoms: C_12  and  C_13
REMARK                            x       y       z     vdW  Elec       q    Type
REMARK                         _______ _______ _______ _____ _____    ______ ____
ROOT
ATOM      1  C   UNL     1      47.325   4.463  14.145  0.00  0.00    +0.000 C 
ENDROOT
BRANCH   1   2
ATOM      2  C   UNL     1      46.314   5.148  13.272  0.00  0.00    +0.000 A 
ATOM      3  C   UNL     1      46.215   6.540  13.249  0.00  0.00    +0.000 A 
ATOM      4  C   UNL     1      45.281   7.124  12.412  0.00  0.00    +0.000 A 
ATOM      5  N   UNL     1      44.444   6.425  11.613  0.00  0.00    +0.000 NA
ATOM      6  C   UNL     1      44.523   5.071  11.661  0.00  0.00    +0.000 A 
ATOM      7  C   UNL     1      45.437   4.404  12.476  0.00  0.00    +0.000 A 
BRANCH   6   8
ATOM      8  C   UNL     1      43.595   4.289  10.764  0.00  0.00    +0.000 C 
BRANCH   8   9
ATOM      9  O   UNL     1      44.261   3.987   9.537  0.00  0.00    +0.000 OA
BRANCH   9  10
ATOM     10  C   UNL     1      44.683   2.627   9.478  0.00  0.00    +0.000 C 
BRANCH  10  11
ATOM     11  C   UNL     1      45.628   2.447   8.324  0.00  0.00    +0.000 A 
ATOM     12  C   UNL     1      45.947   3.483   7.441  0.00  0.00    +0.000 A 
ATOM     13  C   UNL     1      46.853   3.261   6.407  0.00  0.00    +0.000 A 
ATOM     14  C   UNL     1      47.423   2.004   6.295  0.00  0.00    +0.000 A 
ATOM     15  N   UNL     1      47.152   0.980   7.131  0.00  0.00    +0.000 NA
ATOM     16  C   UNL     1      46.266   1.226   8.124  0.00  0.00    +0.000 A 
ENDBRANCH  10  11
ENDBRANCH   9  10
ENDBRANCH   8   9
ENDBRANCH   6   8
ENDBRANCH   1   2
BRANCH   1  19
ATOM     17  O   UNL     1      49.383   6.146  15.074  0.00  0.00    +0.000 OA
ATOM     18  C   UNL     1      48.464   5.842  15.834  0.00  0.00    +0.000 C 
ATOM     19  N   UNL     1      47.397   5.082  15.439  0.00  0.00    +0.000 N 
ATOM     20  H   UNL     1      46.682   4.830  16.109  0.00  0.00    +0.000 HD
BRANCH  18  21
ATOM     21  C   UNL     1      48.433   6.305  17.218  0.00  0.00    +0.000 A 
ATOM     22  C   UNL     1      48.384   7.657  17.521  0.00  0.00    +0.000 A 
ATOM     23  S   UNL     1      48.392   7.973  19.199  0.00  0.00    +0.000 S 
ATOM     24  C   UNL     1      48.472   6.312  19.570  0.00  0.00    +0.000 A 
ATOM     25  N   UNL     1      48.521   5.878  20.857  0.00  0.00    +0.000 NA
ATOM     26  C   UNL     1      48.550   4.594  20.985  0.00  0.00    +0.000 A 
ATOM     27  N   UNL     1      48.534   3.700  19.946  0.00  0.00    +0.000 N 
ATOM     28  C   UNL     1      48.514   4.089  18.630  0.00  0.00    +0.000 A 
ATOM     29  O   UNL     1      48.498   3.260  17.732  0.00  0.00    +0.000 OA
ATOM     30  C   UNL     1      48.468   5.529  18.431  0.00  0.00    +0.000 A 
ATOM     31  H   UNL     1      48.540   2.706  20.111  0.00  0.00    +0.000 HD
ENDBRANCH  18  21
ENDBRANCH   1  19
TORSDOF 7
ENDMDL
MODEL 5
REMARK VINA RESULT:    -7.455      1.940      2.559
REMARK INTER + INTRA:         -11.691
REMARK INTER:                 -10.761
REMARK INTRA:                  -0.929
REMARK UNBOUND:                -1.185
REMARK  Name = 
REMARK  7 active torsions:
REMARK  status: ('A' for Active; 'I' for Inactive)
REMARK    1  A    between atoms: C_2  and  C_20
REMARK    2  A    between atoms: N_3  and  C_4
REMARK    3  A    between atoms: C_4  and  C_5
REMARK    4  A    between atoms: C_9  and  C_10
REMARK    5  A    between atoms: C_10  and  O_11
REMARK    6  A    between atoms: O_11  and  C_12
REMARK    7  A    between atoms: C_12  and  C_13
REMARK                            x       y       z     vdW  Elec       q    Type
REMARK                         _______ _______ _______ _____ _____    ______ ____
ROOT
ATOM      1  C   UNL     1      46.922   4.567  14.048  0.00  0.00    +0.000 C 
ENDROOT
BRANCH   1   2
ATOM      2  C   UNL     1      45.822   4.781  13.048  0.00  0.00    +0.000 A 
ATOM      3  C   UNL     1      45.268   6.048  12.856  0.00  0.00    +0.000 A 
ATOM      4  C   UNL     1      44.272   6.197  11.908  0.00  0.00    +0.000 A 
ATOM      5  N   UNL     1      43.791   5.184  11.154  0.00  0.00    +0.000 NA
ATOM      6  C   UNL     1      44.312   3.949  11.366  0.00  0.00    +0.000 A 
ATOM      7  C   UNL     1      45.319   3.713  12.301  0.00  0.00    +0.000 A 
BRANCH   6   8
ATOM      8  C   UNL     1      43.782   2.817  10.519  0.00  0.00    +0.000 C 
BRANCH   8   9
ATOM      9  O   UNL     1      44.387   2.865   9.226  0.00  0.00    +0.000 OA
BRANCH   9  10
ATOM     10  C   UNL     1      45.275   1.771   9.011  0.00  0.00    +0.000 C 
BRANCH  10  11
ATOM     11  C   UNL     1      46.127   2.050   7.805  0.00  0.00    +0.000 A 
ATOM     12  C   UNL     1      45.997   3.215   7.041  0.00  0.00    +0.000 A 
ATOM     13  C   UNL     1      46.836   3.428   5.951  0.00  0.00    +0.000 A 
ATOM     14  C   UNL     1      47.793   2.470   5.664  0.00  0.00    +0.000 A 
ATOM     15  N   UNL     1      47.960   1.337   6.380  0.00  0.00    +0.000 NA
ATOM     16  C   UNL     1      47.128   1.158   7.431  0.00  0.00    +0.000 A 
ENDBRANCH  10  11
ENDBRANCH   9  10
ENDBRANCH   8   9
ENDBRANCH   6   8
ENDBRANCH   1   2
BRANCH   1  19
ATOM     17  O   UNL     1      48.978   6.335  13.290  0.00  0.00    +0.000 OA
ATOM     18  C   UNL     1      48.325   6.570  14.306  0.00  0.00    +0.000 C 
ATOM     19  N   UNL     1      47.272   5.795  14.706  0.00  0.00    +0.000 N 
ATOM     20  H   UNL     1      46.786   6.008  15.568  0.00  0.00    +0.000 HD
BRANCH  18  21
ATOM     21  C   UNL     1      48.616   7.726  15.149  0.00  0.00    +0.000 A 
ATOM     22  C   UNL     1      48.615   9.011  14.628  0.00  0.00    +0.000 A 
ATOM     23  S   UNL     1      49.015  10.206  15.781  0.00  0.00    +0.000 S 
ATOM     24  C   UNL     1      49.211   9.040  17.007  0.00  0.00    +0.000 A 
ATOM     25  N   UNL     1      49.573   9.396  18.268  0.00  0.00    +0.000 NA
ATOM     26  C   UNL     1      49.655   8.410  19.096  0.00  0.00    +0.000 A 
ATOM     27  N   UNL     1      49.409   7.098  18.784  0.00  0.00    +0.000 N 
ATOM     28  C   UNL     1      49.071   6.686  17.520  0.00  0.00    +0.000 A 
ATOM     29  O   UNL     1      48.857   5.505  17.281  0.00  0.00    +0.000 OA
ATOM     30  C   UNL     1      48.952   7.763  16.549  0.00  0.00    +0.000 A 
ATOM     31  H   UNL     1      49.473   6.373  19.481  0.00  0.00    +0.000 HD
ENDBRANCH  18  21
ENDBRANCH   1  19
TORSDOF 7
ENDMDL
MODEL 6
REMARK VINA RESULT:    -7.278      3.031      4.797
REMARK INTER + INTRA:         -11.441
REMARK INTER:                 -11.004
REMARK INTRA:                  -0.438
REMARK UNBOUND:                -1.185
REMARK  Name = 
REMARK  7 active torsions:
REMARK  status: ('A' for Active; 'I' for Inactive)
REMARK    1  A    between atoms: C_2  and  C_20
REMARK    2  A    between atoms: N_3  and  C_4
REMARK    3  A    between atoms: C_4  and  C_5
REMARK    4  A    between atoms: C_9  and  C_10
REMARK    5  A    between atoms: C_10  and  O_11
REMARK    6  A    between atoms: O_11  and  C_12
REMARK    7  A    between atoms: C_12  and  C_13
REMARK                            x       y       z     vdW  Elec       q    Type
REMARK                         _______ _______ _______ _____ _____    ______ ____
ROOT
ATOM      1  C   UNL     1      46.324   5.925  13.269  0.00  0.00    +0.000 C 
ENDROOT
BRANCH   1   2
ATOM      2  C   UNL     1      45.135   5.526  12.444  0.00  0.00    +0.000 A 
ATOM      3  C   UNL     1      43.842   5.610  12.964  0.00  0.00    +0.000 A 
ATOM      4  C   UNL     1      42.779   5.249  12.155  0.00  0.00    +0.000 A 
ATOM      5  N   UNL     1      42.914   4.810  10.885  0.00  0.00    +0.000 NA
ATOM      6  C   UNL     1      44.174   4.702  10.393  0.00  0.00    +0.000 A 
ATOM      7  C   UNL     1      45.300   5.045  11.141  0.00  0.00    +0.000 A 
BRANCH   6   8
ATOM      8  C   UNL     1      44.326   4.219   8.971  0.00  0.00    +0.000 C 
BRANCH   8   9
ATOM      9  O   UNL     1      44.243   2.793   8.941  0.00  0.00    +0.000 OA
BRANCH   9  10
ATOM     10  C   UNL     1      45.519   2.180   9.101  0.00  0.00    +0.000 C 
BRANCH  10  11
ATOM     11  C   UNL     1      46.272   2.244   7.803  0.00  0.00    +0.000 A 
ATOM     12  C   UNL     1      46.071   3.261   6.863  0.00  0.00    +0.000 A 
ATOM     13  C   UNL     1      46.820   3.282   5.690  0.00  0.00    +0.000 A 
ATOM     14  C   UNL     1      47.763   2.286   5.498  0.00  0.00    +0.000 A 
ATOM     15  N   UNL     1      47.996   1.293   6.382  0.00  0.00    +0.000 NA
ATOM     16  C   UNL     1      47.250   1.298   7.511  0.00  0.00    +0.000 A 
ENDBRANCH  10  11
ENDBRANCH   9  10
ENDBRANCH   8   9
ENDBRANCH   6   8
ENDBRANCH   1   2
BRANCH   1  19
ATOM     17  O   UNL     1      48.036   7.098  11.366  0.00  0.00    +0.000 OA
ATOM     18  C   UNL     1      47.497   7.811  12.211  0.00  0.00    +0.000 C 
ATOM     19  N   UNL     1      46.605   7.327  13.128  0.00  0.00    +0.000 N 
ATOM     20  H   UNL     1      46.213   7.946  13.827  0.00  0.00    +0.000 HD
BRANCH  18  21
ATOM     21  C   UNL     1      47.753   9.247  12.274  0.00  0.00    +0.000 A 
ATOM     22  C   UNL     1      49.018   9.737  12.561  0.00  0.00    +0.000 A 
ATOM     23  S   UNL     1      49.083  11.442  12.619  0.00  0.00    +0.000 S 
ATOM     24  C   UNL     1      47.420  11.575  12.273  0.00  0.00    +0.000 A 
ATOM     25  N   UNL     1      46.811  12.788  12.190  0.00  0.00    +0.000 NA
ATOM     26  C   UNL     1      45.556  12.733  11.893  0.00  0.00    +0.000 A 
ATOM     27  N   UNL     1      44.850  11.580  11.670  0.00  0.00    +0.000 N 
ATOM     28  C   UNL     1      45.412  10.332  11.771  0.00  0.00    +0.000 A 
ATOM     29  O   UNL     1      44.749   9.327  11.563  0.00  0.00    +0.000 OA
ATOM     30  C   UNL     1      46.831  10.338  12.092  0.00  0.00    +0.000 A 
ATOM     31  H   UNL     1      43.873  11.604  11.424  0.00  0.00    +0.000 HD
ENDBRANCH  18  21
ENDBRANCH   1  19
TORSDOF 7
ENDMDL
MODEL 7
REMARK VINA RESULT:    -7.124      2.212      2.979
REMARK INTER + INTRA:         -11.224
REMARK INTER:                 -10.062
REMARK INTRA:                  -1.162
REMARK UNBOUND:                -1.185
REMARK  Name = 
REMARK  7 active torsions:
REMARK  status: ('A' for Active; 'I' for Inactive)
REMARK    1  A    between atoms: C_2  and  C_20
REMARK    2  A    between atoms: N_3  and  C_4
REMARK    3  A    between atoms: C_4  and  C_5
REMARK    4  A    between atoms: C_9  and  C_10
REMARK    5  A    between atoms: C_10  and  O_11
REMARK    6  A    between atoms: O_11  and  C_12
REMARK    7  A    between atoms: C_12  and  C_13
REMARK                            x       y       z     vdW  Elec       q    Type
REMARK                         _______ _______ _______ _____ _____    ______ ____
ROOT
ATOM      1  C   UNL     1      47.637   7.950  13.528  0.00  0.00    +0.000 C 
ENDROOT
BRANCH   1   2
ATOM      2  C   UNL     1      46.377   7.446  12.884  0.00  0.00    +0.000 A 
ATOM      3  C   UNL     1      45.652   8.252  12.005  0.00  0.00    +0.000 A 
ATOM      4  C   UNL     1      44.509   7.733  11.423  0.00  0.00    +0.000 A 
ATOM      5  N   UNL     1      44.042   6.487  11.659  0.00  0.00    +0.000 NA
ATOM      6  C   UNL     1      44.734   5.719  12.536  0.00  0.00    +0.000 A 
ATOM      7  C   UNL     1      45.895   6.165  13.166  0.00  0.00    +0.000 A 
BRANCH   6   8
ATOM      8  C   UNL     1      44.218   4.323  12.795  0.00  0.00    +0.000 C 
BRANCH   8   9
ATOM      9  O   UNL     1      44.875   3.403  11.923  0.00  0.00    +0.000 OA
BRANCH   9  10
ATOM     10  C   UNL     1      44.094   3.110  10.768  0.00  0.00    +0.000 C 
BRANCH  10  11
ATOM     11  C   UNL     1      44.965   3.177   9.546  0.00  0.00    +0.000 A 
ATOM     12  C   UNL     1      45.480   2.036   8.923  0.00  0.00    +0.000 A 
ATOM     13  C   UNL     1      46.258   2.162   7.775  0.00  0.00    +0.000 A 
ATOM     14  C   UNL     1      46.488   3.433   7.276  0.00  0.00    +0.000 A 
ATOM     15  N   UNL     1      46.002   4.560   7.840  0.00  0.00    +0.000 NA
ATOM     16  C   UNL     1      45.251   4.404   8.955  0.00  0.00    +0.000 A 
ENDBRANCH  10  11
ENDBRANCH   9  10
ENDBRANCH   8   9
ENDBRANCH   6   8
ENDBRANCH   1   2
BRANCH   1  19
ATOM     17  O   UNL     1      49.929   6.843  14.731  0.00  0.00    +0.000 OA
ATOM     18  C   UNL     1      48.883   6.909  15.376  0.00  0.00    +0.000 C 
ATOM     19  N   UNL     1      47.746   7.490  14.884  0.00  0.00    +0.000 N 
ATOM     20  H   UNL     1      46.899   7.491  15.438  0.00  0.00    +0.000 HD
BRANCH  18  21
ATOM     21  C   UNL     1      48.791   6.394  16.739  0.00  0.00    +0.000 A 
ATOM     22  C   UNL     1      49.052   5.061  17.019  0.00  0.00    +0.000 A 
ATOM     23  S   UNL     1      48.851   4.668  18.669  0.00  0.00    +0.000 S 
ATOM     24  C   UNL     1      48.399   6.265  19.054  0.00  0.00    +0.000 A 
ATOM     25  N   UNL     1      48.073   6.619  20.326  0.00  0.00    +0.000 NA
ATOM     26  C   UNL     1      47.780   7.867  20.471  0.00  0.00    +0.000 A 
ATOM     27  N   UNL     1      47.782   8.798  19.466  0.00  0.00    +0.000 N 
ATOM     28  C   UNL     1      48.075   8.484  18.162  0.00  0.00    +0.000 A 
ATOM     29  O   UNL     1      48.068   9.345  17.293  0.00  0.00    +0.000 OA
ATOM     30  C   UNL     1      48.425   7.089  17.945  0.00  0.00    +0.000 A 
ATOM     31  H   UNL     1      47.560   9.765  19.646  0.00  0.00    +0.000 HD
ENDBRANCH  18  21
ENDBRANCH   1  19
TORSDOF 7
ENDMDL
MODEL 8
REMARK VINA RESULT:    -7.055      3.218      7.802
REMARK INTER + INTRA:         -11.127
REMARK INTER:                  -9.888
REMARK INTRA:                  -1.239
REMARK UNBOUND:                -1.185
REMARK  Name = 
REMARK  7 active torsions:
REMARK  status: ('A' for Active; 'I' for Inactive)
REMARK    1  A    between atoms: C_2  and  C_20
REMARK    2  A    between atoms: N_3  and  C_4
REMARK    3  A    between atoms: C_4  and  C_5
REMARK    4  A    between atoms: C_9  and  C_10
REMARK    5  A    between atoms: C_10  and  O_11
REMARK    6  A    between atoms: O_11  and  C_12
REMARK    7  A    between atoms: C_12  and  C_13
REMARK                            x       y       z     vdW  Elec       q    Type
REMARK                         _______ _______ _______ _____ _____    ______ ____
ROOT
ATOM      1  C   UNL     1      48.385   7.242  13.198  0.00  0.00    +0.000 C 
ENDROOT
BRANCH   1   2
ATOM      2  C   UNL     1      48.426   6.719  14.605  0.00  0.00    +0.000 A 
ATOM      3  C   UNL     1      48.936   7.500  15.644  0.00  0.00    +0.000 A 
ATOM      4  C   UNL     1      48.932   6.980  16.926  0.00  0.00    +0.000 A 
ATOM      5  N   UNL     1      48.468   5.750  17.239  0.00  0.00    +0.000 NA
ATOM      6  C   UNL     1      48.000   4.983  16.222  0.00  0.00    +0.000 A 
ATOM      7  C   UNL     1      47.969   5.432  14.902  0.00  0.00    +0.000 A 
BRANCH   6   8
ATOM      8  C   UNL     1      47.475   3.612  16.571  0.00  0.00    +0.000 C 
BRANCH   8   9
ATOM      9  O   UNL     1      48.399   2.954  17.439  0.00  0.00    +0.000 OA
BRANCH   9  10
ATOM     10  C   UNL     1      49.307   2.123  16.722  0.00  0.00    +0.000 C 
BRANCH  10  11
ATOM     11  C   UNL     1      50.680   2.255  17.316  0.00  0.00    +0.000 A 
ATOM     12  C   UNL     1      51.211   3.482  17.727  0.00  0.00    +0.000 A 
ATOM     13  C   UNL     1      52.479   3.535  18.298  0.00  0.00    +0.000 A 
ATOM     14  C   UNL     1      53.178   2.350  18.452  0.00  0.00    +0.000 A 
ATOM     15  N   UNL     1      52.700   1.143  18.080  0.00  0.00    +0.000 NA
ATOM     16  C   UNL     1      51.466   1.125  17.526  0.00  0.00    +0.000 A 
ENDBRANCH  10  11
ENDBRANCH   9  10
ENDBRANCH   8   9
ENDBRANCH   6   8
ENDBRANCH   1   2
BRANCH   1  19
ATOM     17  O   UNL     1      45.978   7.832  11.861  0.00  0.00    +0.000 OA
ATOM     18  C   UNL     1      46.456   6.703  11.770  0.00  0.00    +0.000 C 
ATOM     19  N   UNL     1      47.652   6.356  12.337  0.00  0.00    +0.000 N 
ATOM     20  H   UNL     1      47.989   5.404  12.264  0.00  0.00    +0.000 HD
BRANCH  18  21
ATOM     21  C   UNL     1      45.786   5.648  11.014  0.00  0.00    +0.000 A 
ATOM     22  C   UNL     1      45.861   5.601   9.630  0.00  0.00    +0.000 A 
ATOM     23  S   UNL     1      44.976   4.308   8.951  0.00  0.00    +0.000 S 
ATOM     24  C   UNL     1      44.459   3.781  10.485  0.00  0.00    +0.000 A 
ATOM     25  N   UNL     1      43.642   2.701  10.623  0.00  0.00    +0.000 NA
ATOM     26  C   UNL     1      43.357   2.402  11.845  0.00  0.00    +0.000 A 
ATOM     27  N   UNL     1      43.811   3.080  12.947  0.00  0.00    +0.000 N 
ATOM     28  C   UNL     1      44.611   4.191  12.859  0.00  0.00    +0.000 A 
ATOM     29  O   UNL     1      44.996   4.768  13.867  0.00  0.00    +0.000 OA
ATOM     30  C   UNL     1      44.973   4.564  11.501  0.00  0.00    +0.000 A 
ATOM     31  H   UNL     1      43.566   2.786  13.880  0.00  0.00    +0.000 HD
ENDBRANCH  18  21
ENDBRANCH   1  19
TORSDOF 7
ENDMDL
MODEL 9
REMARK VINA RESULT:    -6.874      2.252      3.005
REMARK INTER + INTRA:         -10.873
REMARK INTER:                  -9.884
REMARK INTRA:                  -0.989
REMARK UNBOUND:                -1.185
REMARK  Name = 
REMARK  7 active torsions:
REMARK  status: ('A' for Active; 'I' for Inactive)
REMARK    1  A    between atoms: C_2  and  C_20
REMARK    2  A    between atoms: N_3  and  C_4
REMARK    3  A    between atoms: C_4  and  C_5
REMARK    4  A    between atoms: C_9  and  C_10
REMARK    5  A    between atoms: C_10  and  O_11
REMARK    6  A    between atoms: O_11  and  C_12
REMARK    7  A    between atoms: C_12  and  C_13
REMARK                            x       y       z     vdW  Elec       q    Type
REMARK                         _______ _______ _______ _____ _____    ______ ____
ROOT
ATOM      1  C   UNL     1      47.962   7.371  13.378  0.00  0.00    +0.000 C 
ENDROOT
BRANCH   1   2
ATOM      2  C   UNL     1      46.607   7.102  12.791  0.00  0.00    +0.000 A 
ATOM      3  C   UNL     1      45.943   8.078  12.046  0.00  0.00    +0.000 A 
ATOM      4  C   UNL     1      44.705   7.772  11.509  0.00  0.00    +0.000 A 
ATOM      5  N   UNL     1      44.088   6.580  11.668  0.00  0.00    +0.000 NA
ATOM      6  C   UNL     1      44.724   5.645  12.418  0.00  0.00    +0.000 A 
ATOM      7  C   UNL     1      45.973   5.872  12.993  0.00  0.00    +0.000 A 
BRANCH   6   8
ATOM      8  C   UNL     1      44.039   4.310  12.590  0.00  0.00    +0.000 C 
BRANCH   8   9
ATOM      9  O   UNL     1      44.769   3.307  11.882  0.00  0.00    +0.000 OA
BRANCH   9  10
ATOM     10  C   UNL     1      44.086   2.878  10.707  0.00  0.00    +0.000 C 
BRANCH  10  11
ATOM     11  C   UNL     1      44.979   3.066   9.514  0.00  0.00    +0.000 A 
ATOM     12  C   UNL     1      45.520   1.992   8.799  0.00  0.00    +0.000 A 
ATOM     13  C   UNL     1      46.318   2.231   7.684  0.00  0.00    +0.000 A 
ATOM     14  C   UNL     1      46.542   3.545   7.308  0.00  0.00    +0.000 A 
ATOM     15  N   UNL     1      46.031   4.610   7.962  0.00  0.00    +0.000 NA
ATOM     16  C   UNL     1      45.262   4.345   9.043  0.00  0.00    +0.000 A 
ENDBRANCH  10  11
ENDBRANCH   9  10
ENDBRANCH   8   9
ENDBRANCH   6   8
ENDBRANCH   1   2
BRANCH   1  19
ATOM     17  O   UNL     1      48.783   8.053  15.984  0.00  0.00    +0.000 OA
ATOM     18  C   UNL     1      48.708   6.867  15.667  0.00  0.00    +0.000 C 
ATOM     19  N   UNL     1      48.258   6.454  14.443  0.00  0.00    +0.000 N 
ATOM     20  H   UNL     1      48.246   5.468  14.215  0.00  0.00    +0.000 HD
BRANCH  18  21
ATOM     21  C   UNL     1      49.069   5.803  16.599  0.00  0.00    +0.000 A 
ATOM     22  C   UNL     1      48.100   4.995  17.174  0.00  0.00    +0.000 A 
ATOM     23  S   UNL     1      48.741   3.842  18.259  0.00  0.00    +0.000 S 
ATOM     24  C   UNL     1      50.330   4.395  17.999  0.00  0.00    +0.000 A 
ATOM     25  N   UNL     1      51.388   3.836  18.646  0.00  0.00    +0.000 NA
ATOM     26  C   UNL     1      52.533   4.339  18.328  0.00  0.00    +0.000 A 
ATOM     27  N   UNL     1      52.723   5.350  17.423  0.00  0.00    +0.000 N 
ATOM     28  C   UNL     1      51.687   5.967  16.768  0.00  0.00    +0.000 A 
ATOM     29  O   UNL     1      51.899   6.866  15.966  0.00  0.00    +0.000 OA
ATOM     30  C   UNL     1      50.373   5.428  17.082  0.00  0.00    +0.000 A 
ATOM     31  H   UNL     1      53.647   5.689  17.204  0.00  0.00    +0.000 HD
ENDBRANCH  18  21
ENDBRANCH   1  19
TORSDOF 7
ENDMDL
