MODEL 1
REMARK VINA RESULT:    -7.939      0.000      0.000
REMARK INTER + INTRA:         -11.138
REMARK INTER:                 -10.259
REMARK INTRA:                  -0.879
REMARK UNBOUND:                -0.879
REMARK  Name = 
REMARK  5 active torsions:
REMARK  status: ('A' for Active; 'I' for Inactive)
REMARK    1  A    between atoms: C_2  and  C_3
REMARK    2  A    between atoms: C_8  and  O_9
REMARK    3  A    between atoms: O_9  and  C_10
REMARK    4  A    between atoms: C_10  and  C_11
REMARK    5  A    between atoms: C_16  and  C_17
REMARK                            x       y       z     vdW  Elec       q    Type
REMARK                         _______ _______ _______ _____ _____    ______ ____
ROOT
ATOM      1  C   UNL     1      43.872   4.754  10.585  0.00  0.00    +0.000 A 
ATOM      2  C   UNL     1      43.274   3.745  11.344  0.00  0.00    +0.000 A 
ATOM      3  C   UNL     1      43.503   2.415  11.022  0.00  0.00    +0.000 A 
ATOM      4  F   UNL     1      42.908   1.451  11.739  0.00  0.00    +0.000 F 
ATOM      5  C   UNL     1      44.336   2.059   9.965  0.00  0.00    +0.000 A 
ATOM      6  C   UNL     1      44.969   3.044   9.190  0.00  0.00    +0.000 A 
ATOM      7  C   UNL     1      44.715   4.392   9.521  0.00  0.00    +0.000 A 
ENDROOT
BRANCH   6   8
ATOM      8  C   UNL     1      45.862   2.689   8.068  0.00  0.00    +0.000 A 
ATOM      9  C   UNL     1      46.125   3.569   7.008  0.00  0.00    +0.000 A 
ATOM     10  C   UNL     1      46.986   3.199   5.976  0.00  0.00    +0.000 A 
ATOM     11  C   UNL     1      47.578   1.950   6.029  0.00  0.00    +0.000 A 
ATOM     12  N   UNL     1      47.358   1.063   7.017  0.00  0.00    +0.000 NA
ATOM     13  C   UNL     1      46.507   1.450   7.998  0.00  0.00    +0.000 A 
ENDBRANCH   6   8
BRANCH   1  14
ATOM     14  C   UNL     1      43.617   6.208  10.891  0.00  0.00    +0.000 C 
BRANCH  14  15
ATOM     15  O   UNL     1      43.937   6.477  12.257  0.00  0.00    +0.000 OA
BRANCH  15  21
ATOM     16  C   UNL     1      46.977   5.042  13.848  0.00  0.00    +0.000 A 
ATOM     17  C   UNL     1      47.942   5.873  13.282  0.00  0.00    +0.000 A 
ATOM     18  C   UNL     1      47.546   6.875  12.401  0.00  0.00    +0.000 A 
ATOM     19 CL   UNL     1      48.734   7.906  11.705  0.00  0.00    +0.000 Cl
ATOM     20  C   UNL     1      46.198   7.047  12.080  0.00  0.00    +0.000 A 
ATOM     21  C   UNL     1      45.225   6.218  12.647  0.00  0.00    +0.000 A 
ATOM     22  C   UNL     1      45.621   5.216  13.537  0.00  0.00    +0.000 A 
BRANCH  16  24
ATOM     23  N   UNL     1      47.695   3.146  15.466  0.00  0.00    +0.000 NA
ATOM     24  C   UNL     1      47.370   3.999  14.748  0.00  0.00    +0.000 C 
ENDBRANCH  16  24
ENDBRANCH  15  21
ENDBRANCH  14  15
ENDBRANCH   1  14
TORSDOF 5
ENDMDL
MODEL 2
REMARK VINA RESULT:    -7.539      1.823      2.279
REMARK INTER + INTRA:         -10.622
REMARK INTER:                  -9.708
REMARK INTRA:                  -0.915
REMARK UNBOUND:                -0.879
REMARK  Name = 
REMARK  5 active torsions:
REMARK  status: ('A' for Active; 'I' for Inactive)
REMARK    1  A    between atoms: C_2  and  C_3
REMARK    2  A    between atoms: C_8  and  O_9
REMARK    3  A    between atoms: O_9  and  C_10
REMARK    4  A    between atoms: C_10  and  C_11
REMARK    5  A    between atoms: C_16  and  C_17
REMARK                            x       y       z     vdW  Elec       q    Type
REMARK                         _______ _______ _______ _____ _____    ______ ____
ROOT
ATOM      1  C   UNL     1      43.910   4.904  10.647  0.00  0.00    +0.000 A 
ATOM      2  C   UNL     1      43.292   3.915  11.417  0.00  0.00    +0.000 A 
ATOM      3  C   UNL     1      43.488   2.577  11.104  0.00  0.00    +0.000 A 
ATOM      4  F   UNL     1      42.873   1.633  11.830  0.00  0.00    +0.000 F 
ATOM      5  C   UNL     1      44.308   2.194  10.046  0.00  0.00    +0.000 A 
ATOM      6  C   UNL     1      44.960   3.158   9.261  0.00  0.00    +0.000 A 
ATOM      7  C   UNL     1      44.740   4.514   9.583  0.00  0.00    +0.000 A 
ENDROOT
BRANCH   6   8
ATOM      8  C   UNL     1      45.840   2.773   8.139  0.00  0.00    +0.000 A 
ATOM      9  C   UNL     1      46.179   3.663   7.109  0.00  0.00    +0.000 A 
ATOM     10  C   UNL     1      47.025   3.263   6.075  0.00  0.00    +0.000 A 
ATOM     11  C   UNL     1      47.526   1.974   6.096  0.00  0.00    +0.000 A 
ATOM     12  N   UNL     1      47.230   1.076   7.055  0.00  0.00    +0.000 NA
ATOM     13  C   UNL     1      46.396   1.494   8.037  0.00  0.00    +0.000 A 
ENDBRANCH   6   8
BRANCH   1  14
ATOM     14  C   UNL     1      43.691   6.366  10.943  0.00  0.00    +0.000 C 
BRANCH  14  15
ATOM     15  O   UNL     1      44.098   6.653  12.282  0.00  0.00    +0.000 OA
BRANCH  15  21
ATOM     16  C   UNL     1      47.802   6.960  12.403  0.00  0.00    +0.000 A 
ATOM     17  C   UNL     1      48.082   5.956  13.329  0.00  0.00    +0.000 A 
ATOM     18  C   UNL     1      47.033   5.218  13.871  0.00  0.00    +0.000 A 
ATOM     19 CL   UNL     1      47.376   3.975  15.010  0.00  0.00    +0.000 Cl
ATOM     20  C   UNL     1      45.714   5.479  13.499  0.00  0.00    +0.000 A 
ATOM     21  C   UNL     1      45.427   6.483  12.569  0.00  0.00    +0.000 A 
ATOM     22  C   UNL     1      46.479   7.220  12.019  0.00  0.00    +0.000 A 
BRANCH  16  24
ATOM     23  N   UNL     1      49.744   8.353  11.397  0.00  0.00    +0.000 NA
ATOM     24  C   UNL     1      48.869   7.735  11.845  0.00  0.00    +0.000 C 
ENDBRANCH  16  24
ENDBRANCH  15  21
ENDBRANCH  14  15
ENDBRANCH   1  14
TORSDOF 5
ENDMDL
MODEL 3
REMARK VINA RESULT:    -7.416      2.543      3.173
REMARK INTER + INTRA:         -10.463
REMARK INTER:                  -9.687
REMARK INTRA:                  -0.775
REMARK UNBOUND:                -0.879
REMARK  Name = 
REMARK  5 active torsions:
REMARK  status: ('A' for Active; 'I' for Inactive)
REMARK    1  A    between atoms: C_2  and  C_3
REMARK    2  A    between atoms: C_8  and  O_9
REMARK    3  A    between atoms: O_9  and  C_10
REMARK    4  A    between atoms: C_10  and  C_11
REMARK    5  A    between atoms: C_16  and  C_17
REMARK                            x       y       z     vdW  Elec       q    Type
REMARK                         _______ _______ _______ _____ _____    ______ ____
ROOT
ATOM      1  C   UNL     1      44.484   5.110  10.862  0.00  0.00    +0.000 A 
ATOM      2  C   UNL     1      43.700   4.191  11.566  0.00  0.00    +0.000 A 
ATOM      3  C   UNL     1      43.632   2.874  11.136  0.00  0.00    +0.000 A 
ATOM      4  F   UNL     1      42.860   2.002  11.800  0.00  0.00    +0.000 F 
ATOM      5  C   UNL     1      44.347   2.437  10.025  0.00  0.00    +0.000 A 
ATOM      6  C   UNL     1      45.160   3.326   9.303  0.00  0.00    +0.000 A 
ATOM      7  C   UNL     1      45.207   4.665   9.743  0.00  0.00    +0.000 A 
ENDROOT
BRANCH   6   8
ATOM      8  C   UNL     1      45.933   2.882   8.125  0.00  0.00    +0.000 A 
ATOM      9  C   UNL     1      46.234   3.738   7.056  0.00  0.00    +0.000 A 
ATOM     10  C   UNL     1      46.979   3.283   5.969  0.00  0.00    +0.000 A 
ATOM     11  C   UNL     1      47.419   1.972   5.976  0.00  0.00    +0.000 A 
ATOM     12  N   UNL     1      47.156   1.104   6.971  0.00  0.00    +0.000 NA
ATOM     13  C   UNL     1      46.419   1.576   8.006  0.00  0.00    +0.000 A 
ENDBRANCH   6   8
BRANCH   1  14
ATOM     14  C   UNL     1      44.552   6.555  11.286  0.00  0.00    +0.000 C 
BRANCH  14  15
ATOM     15  O   UNL     1      45.531   6.710  12.315  0.00  0.00    +0.000 OA
BRANCH  15  21
ATOM     16  C   UNL     1      47.314   9.955  11.967  0.00  0.00    +0.000 A 
ATOM     17  C   UNL     1      48.596   9.480  11.692  0.00  0.00    +0.000 A 
ATOM     18  C   UNL     1      48.814   8.106  11.631  0.00  0.00    +0.000 A 
ATOM     19 CL   UNL     1      50.394   7.517  11.289  0.00  0.00    +0.000 Cl
ATOM     20  C   UNL     1      47.767   7.209  11.846  0.00  0.00    +0.000 A 
ATOM     21  C   UNL     1      46.478   7.680  12.119  0.00  0.00    +0.000 A 
ATOM     22  C   UNL     1      46.256   9.058  12.174  0.00  0.00    +0.000 A 
BRANCH  16  24
ATOM     23  N   UNL     1      46.889  12.510  12.093  0.00  0.00    +0.000 NA
ATOM     24  C   UNL     1      47.076  11.364  12.044  0.00  0.00    +0.000 C 
ENDBRANCH  16  24
ENDBRANCH  15  21
ENDBRANCH  14  15
ENDBRANCH   1  14
TORSDOF 5
ENDMDL
MODEL 4
REMARK VINA RESULT:    -7.391      2.209      2.655
REMARK INTER + INTRA:         -10.430
REMARK INTER:                  -9.637
REMARK INTRA:                  -0.793
REMARK UNBOUND:                -0.879
REMARK  Name = 
REMARK  5 active torsions:
REMARK  status: ('A' for Active; 'I' for Inactive)
REMARK    1  A    between atoms: C_2  and  C_3
REMARK    2  A    between atoms: C_8  and  O_9
REMARK    3  A    between atoms: O_9  and  C_10
REMARK    4  A    between atoms: C_10  and  C_11
REMARK    5  A    between atoms: C_16  and  C_17
REMARK                            x       y       z     vdW  Elec       q    Type
REMARK                         _______ _______ _______ _____ _____    ______ ____
ROOT
ATOM      1  C   UNL     1      44.384   5.061  10.822  0.00  0.00    +0.000 A 
ATOM      2  C   UNL     1      43.628   4.126  11.534  0.00  0.00    +0.000 A 
ATOM      3  C   UNL     1      43.606   2.801  11.123  0.00  0.00    +0.000 A 
ATOM      4  F   UNL     1      42.860   1.913  11.795  0.00  0.00    +0.000 F 
ATOM      5  C   UNL     1      44.341   2.374  10.021  0.00  0.00    +0.000 A 
ATOM      6  C   UNL     1      45.126   3.279   9.289  0.00  0.00    +0.000 A 
ATOM      7  C   UNL     1      45.127   4.625   9.712  0.00  0.00    +0.000 A 
ENDROOT
BRANCH   6   8
ATOM      8  C   UNL     1      45.919   2.845   8.121  0.00  0.00    +0.000 A 
ATOM      9  C   UNL     1      46.212   3.703   7.050  0.00  0.00    +0.000 A 
ATOM     10  C   UNL     1      46.977   3.258   5.972  0.00  0.00    +0.000 A 
ATOM     11  C   UNL     1      47.444   1.956   5.991  0.00  0.00    +0.000 A 
ATOM     12  N   UNL     1      47.189   1.087   6.988  0.00  0.00    +0.000 NA
ATOM     13  C   UNL     1      46.433   1.550   8.013  0.00  0.00    +0.000 A 
ENDBRANCH   6   8
BRANCH   1  14
ATOM     14  C   UNL     1      44.401   6.513  11.225  0.00  0.00    +0.000 C 
BRANCH  14  15
ATOM     15  O   UNL     1      45.304   6.699  12.316  0.00  0.00    +0.000 OA
BRANCH  15  21
ATOM     16  C   UNL     1      48.607   8.295  11.703  0.00  0.00    +0.000 A 
ATOM     17  C   UNL     1      48.222   9.634  11.746  0.00  0.00    +0.000 A 
ATOM     18  C   UNL     1      46.887   9.952  11.979  0.00  0.00    +0.000 A 
ATOM     19 CL   UNL     1      46.410  11.603  12.037  0.00  0.00    +0.000 Cl
ATOM     20  C   UNL     1      45.939   8.945  12.164  0.00  0.00    +0.000 A 
ATOM     21  C   UNL     1      46.319   7.599  12.125  0.00  0.00    +0.000 A 
ATOM     22  C   UNL     1      47.660   7.279  11.898  0.00  0.00    +0.000 A 
BRANCH  16  24
ATOM     23  N   UNL     1      51.086   7.669  11.265  0.00  0.00    +0.000 NA
ATOM     24  C   UNL     1      49.974   7.952  11.453  0.00  0.00    +0.000 C 
ENDBRANCH  16  24
ENDBRANCH  15  21
ENDBRANCH  14  15
ENDBRANCH   1  14
TORSDOF 5
ENDMDL
MODEL 5
REMARK VINA RESULT:    -7.355      2.107      2.800
REMARK INTER + INTRA:         -10.384
REMARK INTER:                  -9.545
REMARK INTRA:                  -0.839
REMARK UNBOUND:                -0.879
REMARK  Name = 
REMARK  5 active torsions:
REMARK  status: ('A' for Active; 'I' for Inactive)
REMARK    1  A    between atoms: C_2  and  C_3
REMARK    2  A    between atoms: C_8  and  O_9
REMARK    3  A    between atoms: O_9  and  C_10
REMARK    4  A    between atoms: C_10  and  C_11
REMARK    5  A    between atoms: C_16  and  C_17
REMARK                            x       y       z     vdW  Elec       q    Type
REMARK                         _______ _______ _______ _____ _____    ______ ____
ROOT
ATOM      1  C   UNL     1      45.337   6.495  11.726  0.00  0.00    +0.000 A 
ATOM      2  C   UNL     1      43.978   6.503  12.056  0.00  0.00    +0.000 A 
ATOM      3  C   UNL     1      43.113   5.617  11.432  0.00  0.00    +0.000 A 
ATOM      4  F   UNL     1      41.808   5.646  11.734  0.00  0.00    +0.000 F 
ATOM      5  C   UNL     1      43.572   4.698  10.492  0.00  0.00    +0.000 A 
ATOM      6  C   UNL     1      44.932   4.647  10.147  0.00  0.00    +0.000 A 
ATOM      7  C   UNL     1      45.797   5.564  10.780  0.00  0.00    +0.000 A 
ENDROOT
BRANCH   6   8
ATOM      8  C   UNL     1      45.442   3.675   9.158  0.00  0.00    +0.000 A 
ATOM      9  C   UNL     1      46.079   4.072   7.973  0.00  0.00    +0.000 A 
ATOM     10  C   UNL     1      46.558   3.122   7.071  0.00  0.00    +0.000 A 
ATOM     11  C   UNL     1      46.397   1.783   7.380  0.00  0.00    +0.000 A 
ATOM     12  N   UNL     1      45.790   1.345   8.499  0.00  0.00    +0.000 NA
ATOM     13  C   UNL     1      45.325   2.295   9.346  0.00  0.00    +0.000 A 
ENDBRANCH   6   8
BRANCH   1  14
ATOM     14  C   UNL     1      46.295   7.468  12.364  0.00  0.00    +0.000 C 
BRANCH  14  15
ATOM     15  O   UNL     1      47.577   6.855  12.513  0.00  0.00    +0.000 OA
BRANCH  15  21
ATOM     16  C   UNL     1      47.817   5.156  15.813  0.00  0.00    +0.000 A 
ATOM     17  C   UNL     1      48.856   5.897  16.373  0.00  0.00    +0.000 A 
ATOM     18  C   UNL     1      49.431   6.929  15.637  0.00  0.00    +0.000 A 
ATOM     19 CL   UNL     1      50.710   7.849  16.328  0.00  0.00    +0.000 Cl
ATOM     20  C   UNL     1      48.979   7.221  14.349  0.00  0.00    +0.000 A 
ATOM     21  C   UNL     1      47.934   6.483  13.782  0.00  0.00    +0.000 A 
ATOM     22  C   UNL     1      47.352   5.450  14.523  0.00  0.00    +0.000 A 
BRANCH  16  24
ATOM     23  N   UNL     1      46.734   3.224  17.163  0.00  0.00    +0.000 NA
ATOM     24  C   UNL     1      47.223   4.084  16.553  0.00  0.00    +0.000 C 
ENDBRANCH  16  24
ENDBRANCH  15  21
ENDBRANCH  14  15
ENDBRANCH   1  14
TORSDOF 5
ENDMDL
MODEL 6
REMARK VINA RESULT:    -7.059      2.925      3.986
REMARK INTER + INTRA:         -10.001
REMARK INTER:                  -9.405
REMARK INTRA:                  -0.596
REMARK UNBOUND:                -0.879
REMARK  Name = 
REMARK  5 active torsions:
REMARK  status: ('A' for Active; 'I' for Inactive)
REMARK    1  A    between atoms: C_2  and  C_3
REMARK    2  A    between atoms: C_8  and  O_9
REMARK    3  A    between atoms: O_9  and  C_10
REMARK    4  A    between atoms: C_10  and  C_11
REMARK    5  A    between atoms: C_16  and  C_17
REMARK                            x       y       z     vdW  Elec       q    Type
REMARK                         _______ _______ _______ _____ _____    ______ ____
ROOT
ATOM      1  C   UNL     1      45.205   4.892  12.909  0.00  0.00    +0.000 A 
ATOM      2  C   UNL     1      43.879   5.333  12.955  0.00  0.00    +0.000 A 
ATOM      3  C   UNL     1      43.085   5.243  11.821  0.00  0.00    +0.000 A 
ATOM      4  F   UNL     1      41.822   5.690  11.863  0.00  0.00    +0.000 F 
ATOM      5  C   UNL     1      43.574   4.702  10.636  0.00  0.00    +0.000 A 
ATOM      6  C   UNL     1      44.895   4.232  10.555  0.00  0.00    +0.000 A 
ATOM      7  C   UNL     1      45.694   4.343  11.712  0.00  0.00    +0.000 A 
ENDROOT
BRANCH   6   8
ATOM      8  C   UNL     1      45.432   3.648   9.309  0.00  0.00    +0.000 A 
ATOM      9  C   UNL     1      45.545   2.263   9.115  0.00  0.00    +0.000 A 
ATOM     10  C   UNL     1      46.044   1.752   7.918  0.00  0.00    +0.000 A 
ATOM     11  C   UNL     1      46.417   2.643   6.927  0.00  0.00    +0.000 A 
ATOM     12  N   UNL     1      46.337   3.981   7.060  0.00  0.00    +0.000 NA
ATOM     13  C   UNL     1      45.858   4.443   8.241  0.00  0.00    +0.000 A 
ENDBRANCH   6   8
BRANCH   1  14
ATOM     14  C   UNL     1      46.101   5.006  14.115  0.00  0.00    +0.000 C 
BRANCH  14  15
ATOM     15  O   UNL     1      46.559   3.709  14.500  0.00  0.00    +0.000 OA
BRANCH  15  21
ATOM     16  C   UNL     1      49.139   2.806  17.022  0.00  0.00    +0.000 A 
ATOM     17  C   UNL     1      48.796   3.707  18.029  0.00  0.00    +0.000 A 
ATOM     18  C   UNL     1      47.724   4.572  17.832  0.00  0.00    +0.000 A 
ATOM     19 CL   UNL     1      47.296   5.682  19.074  0.00  0.00    +0.000 Cl
ATOM     20  C   UNL     1      46.999   4.546  16.639  0.00  0.00    +0.000 A 
ATOM     21  C   UNL     1      47.337   3.642  15.626  0.00  0.00    +0.000 A 
ATOM     22  C   UNL     1      48.409   2.768  15.825  0.00  0.00    +0.000 A 
BRANCH  16  24
ATOM     23  N   UNL     1      51.152   1.206  17.362  0.00  0.00    +0.000 NA
ATOM     24  C   UNL     1      50.246   1.917  17.205  0.00  0.00    +0.000 C 
ENDBRANCH  16  24
ENDBRANCH  15  21
ENDBRANCH  14  15
ENDBRANCH   1  14
TORSDOF 5
ENDMDL
MODEL 7
REMARK VINA RESULT:    -6.696      3.668      4.598
REMARK INTER + INTRA:          -9.532
REMARK INTER:                  -8.674
REMARK INTRA:                  -0.857
REMARK UNBOUND:                -0.879
REMARK  Name = 
REMARK  5 active torsions:
REMARK  status: ('A' for Active; 'I' for Inactive)
REMARK    1  A    between atoms: C_2  and  C_3
REMARK    2  A    between atoms: C_8  and  O_9
REMARK    3  A    between atoms: O_9  and  C_10
REMARK    4  A    between atoms: C_10  and  C_11
REMARK    5  A    between atoms: C_16  and  C_17
REMARK                            x       y       z     vdW  Elec       q    Type
REMARK                         _______ _______ _______ _____ _____    ______ ____
ROOT
ATOM      1  C   UNL     1      45.279   6.316  11.948  0.00  0.00    +0.000 A 
ATOM      2  C   UNL     1      43.905   6.312  12.206  0.00  0.00    +0.000 A 
ATOM      3  C   UNL     1      43.065   5.509  11.448  0.00  0.00    +0.000 A 
ATOM      4  F   UNL     1      41.746   5.527  11.684  0.00  0.00    +0.000 F 
ATOM      5  C   UNL     1      43.563   4.686  10.443  0.00  0.00    +0.000 A 
ATOM      6  C   UNL     1      44.939   4.648  10.165  0.00  0.00    +0.000 A 
ATOM      7  C   UNL     1      45.779   5.481  10.934  0.00  0.00    +0.000 A 
ENDROOT
BRANCH   6   8
ATOM      8  C   UNL     1      45.490   3.777   9.107  0.00  0.00    +0.000 A 
ATOM      9  C   UNL     1      46.094   4.289   7.949  0.00  0.00    +0.000 A 
ATOM     10  C   UNL     1      46.614   3.431   6.981  0.00  0.00    +0.000 A 
ATOM     11  C   UNL     1      46.528   2.067   7.196  0.00  0.00    +0.000 A 
ATOM     12  N   UNL     1      45.954   1.520   8.284  0.00  0.00    +0.000 NA
ATOM     13  C   UNL     1      45.448   2.382   9.199  0.00  0.00    +0.000 A 
ENDBRANCH   6   8
BRANCH   1  14
ATOM     14  C   UNL     1      46.213   7.201  12.733  0.00  0.00    +0.000 C 
BRANCH  14  15
ATOM     15  O   UNL     1      45.522   8.379  13.152  0.00  0.00    +0.000 OA
BRANCH  15  21
ATOM     16  C   UNL     1      44.923  11.396  11.062  0.00  0.00    +0.000 A 
ATOM     17  C   UNL     1      46.243  11.744  10.782  0.00  0.00    +0.000 A 
ATOM     18  C   UNL     1      47.276  10.963  11.295  0.00  0.00    +0.000 A 
ATOM     19 CL   UNL     1      48.906  11.387  10.948  0.00  0.00    +0.000 Cl
ATOM     20  C   UNL     1      46.998   9.846  12.084  0.00  0.00    +0.000 A 
ATOM     21  C   UNL     1      45.675   9.491  12.365  0.00  0.00    +0.000 A 
ATOM     22  C   UNL     1      44.637  10.270  11.846  0.00  0.00    +0.000 A 
BRANCH  16  24
ATOM     23  N   UNL     1      42.971  12.832  10.137  0.00  0.00    +0.000 NA
ATOM     24  C   UNL     1      43.850  12.196  10.551  0.00  0.00    +0.000 C 
ENDBRANCH  16  24
ENDBRANCH  15  21
ENDBRANCH  14  15
ENDBRANCH   1  14
TORSDOF 5
ENDMDL
MODEL 8
REMARK VINA RESULT:    -6.659      2.702      3.366
REMARK INTER + INTRA:          -9.484
REMARK INTER:                  -8.679
REMARK INTRA:                  -0.805
REMARK UNBOUND:                -0.879
REMARK  Name = 
REMARK  5 active torsions:
REMARK  status: ('A' for Active; 'I' for Inactive)
REMARK    1  A    between atoms: C_2  and  C_3
REMARK    2  A    between atoms: C_8  and  O_9
REMARK    3  A    between atoms: O_9  and  C_10
REMARK    4  A    between atoms: C_10  and  C_11
REMARK    5  A    between atoms: C_16  and  C_17
REMARK                            x       y       z     vdW  Elec       q    Type
REMARK                         _______ _______ _______ _____ _____    ______ ____
ROOT
ATOM      1  C   UNL     1      45.310   6.521  11.585  0.00  0.00    +0.000 A 
ATOM      2  C   UNL     1      43.952   6.487  11.915  0.00  0.00    +0.000 A 
ATOM      3  C   UNL     1      43.117   5.564  11.302  0.00  0.00    +0.000 A 
ATOM      4  F   UNL     1      41.812   5.552  11.604  0.00  0.00    +0.000 F 
ATOM      5  C   UNL     1      43.607   4.650  10.374  0.00  0.00    +0.000 A 
ATOM      6  C   UNL     1      44.968   4.640  10.029  0.00  0.00    +0.000 A 
ATOM      7  C   UNL     1      45.801   5.595  10.650  0.00  0.00    +0.000 A 
ENDROOT
BRANCH   6   8
ATOM      8  C   UNL     1      45.511   3.674   9.052  0.00  0.00    +0.000 A 
ATOM      9  C   UNL     1      46.138   4.078   7.864  0.00  0.00    +0.000 A 
ATOM     10  C   UNL     1      46.649   3.133   6.974  0.00  0.00    +0.000 A 
ATOM     11  C   UNL     1      46.529   1.794   7.297  0.00  0.00    +0.000 A 
ATOM     12  N   UNL     1      45.932   1.349   8.419  0.00  0.00    +0.000 NA
ATOM     13  C   UNL     1      45.436   2.293   9.255  0.00  0.00    +0.000 A 
ENDBRANCH   6   8
BRANCH   1  14
ATOM     14  C   UNL     1      46.235   7.533  12.210  0.00  0.00    +0.000 C 
BRANCH  14  15
ATOM     15  O   UNL     1      47.519   6.946  12.424  0.00  0.00    +0.000 OA
BRANCH  15  21
ATOM     16  C   UNL     1      48.827   7.227  15.894  0.00  0.00    +0.000 A 
ATOM     17  C   UNL     1      48.473   5.966  16.372  0.00  0.00    +0.000 A 
ATOM     18  C   UNL     1      47.820   5.075  15.525  0.00  0.00    +0.000 A 
ATOM     19 CL   UNL     1      47.386   3.517  16.110  0.00  0.00    +0.000 Cl
ATOM     20  C   UNL     1      47.515   5.437  14.212  0.00  0.00    +0.000 A 
ATOM     21  C   UNL     1      47.870   6.699  13.726  0.00  0.00    +0.000 A 
ATOM     22  C   UNL     1      48.532   7.592  14.573  0.00  0.00    +0.000 A 
BRANCH  16  24
ATOM     23  N   UNL     1      50.019   8.925  17.451  0.00  0.00    +0.000 NA
ATOM     24  C   UNL     1      49.490   8.158  16.757  0.00  0.00    +0.000 C 
ENDBRANCH  16  24
ENDBRANCH  15  21
ENDBRANCH  14  15
ENDBRANCH   1  14
TORSDOF 5
ENDMDL
MODEL 9
REMARK VINA RESULT:    -6.653      2.266      2.911
REMARK INTER + INTRA:          -9.477
REMARK INTER:                  -8.737
REMARK INTRA:                  -0.740
REMARK UNBOUND:                -0.879
REMARK  Name = 
REMARK  5 active torsions:
REMARK  status: ('A' for Active; 'I' for Inactive)
REMARK    1  A    between atoms: C_2  and  C_3
REMARK    2  A    between atoms: C_8  and  O_9
REMARK    3  A    between atoms: O_9  and  C_10
REMARK    4  A    between atoms: C_10  and  C_11
REMARK    5  A    between atoms: C_16  and  C_17
REMARK                            x       y       z     vdW  Elec       q    Type
REMARK                         _______ _______ _______ _____ _____    ______ ____
ROOT
ATOM      1  C   UNL     1      45.134   6.711  11.385  0.00  0.00    +0.000 A 
ATOM      2  C   UNL     1      43.815   6.560  11.823  0.00  0.00    +0.000 A 
ATOM      3  C   UNL     1      43.049   5.504  11.350  0.00  0.00    +0.000 A 
ATOM      4  F   UNL     1      41.778   5.378  11.755  0.00  0.00    +0.000 F 
ATOM      5  C   UNL     1      43.573   4.573  10.458  0.00  0.00    +0.000 A 
ATOM      6  C   UNL     1      44.899   4.680  10.008  0.00  0.00    +0.000 A 
ATOM      7  C   UNL     1      45.660   5.767  10.488  0.00  0.00    +0.000 A 
ENDROOT
BRANCH   6   8
ATOM      8  C   UNL     1      45.478   3.700   9.067  0.00  0.00    +0.000 A 
ATOM      9  C   UNL     1      46.169   4.085   7.909  0.00  0.00    +0.000 A 
ATOM     10  C   UNL     1      46.712   3.127   7.054  0.00  0.00    +0.000 A 
ATOM     11  C   UNL     1      46.559   1.792   7.381  0.00  0.00    +0.000 A 
ATOM     12  N   UNL     1      45.901   1.364   8.475  0.00  0.00    +0.000 NA
ATOM     13  C   UNL     1      45.376   2.321   9.277  0.00  0.00    +0.000 A 
ENDBRANCH   6   8
BRANCH   1  14
ATOM     14  C   UNL     1      45.980   7.865  11.857  0.00  0.00    +0.000 C 
BRANCH  14  15
ATOM     15  O   UNL     1      46.438   7.616  13.187  0.00  0.00    +0.000 OA
BRANCH  15  21
ATOM     16  C   UNL     1      49.866   7.419  14.616  0.00  0.00    +0.000 A 
ATOM     17  C   UNL     1      50.568   8.081  13.610  0.00  0.00    +0.000 A 
ATOM     18  C   UNL     1      49.878   8.566  12.504  0.00  0.00    +0.000 A 
ATOM     19 CL   UNL     1      50.741   9.387  11.263  0.00  0.00    +0.000 Cl
ATOM     20  C   UNL     1      48.497   8.391  12.394  0.00  0.00    +0.000 A 
ATOM     21  C   UNL     1      47.786   7.731  13.402  0.00  0.00    +0.000 A 
ATOM     22  C   UNL     1      48.478   7.249  14.517  0.00  0.00    +0.000 A 
BRANCH  16  24
ATOM     23  N   UNL     1      51.124   6.472  16.677  0.00  0.00    +0.000 NA
ATOM     24  C   UNL     1      50.564   6.904  15.755  0.00  0.00    +0.000 C 
ENDBRANCH  16  24
ENDBRANCH  15  21
ENDBRANCH  14  15
ENDBRANCH   1  14
TORSDOF 5
ENDMDL
