MODEL 1
REMARK VINA RESULT:    -7.190      0.000      0.000
REMARK INTER + INTRA:         -10.219
REMARK INTER:                  -9.502
REMARK INTRA:                  -0.717
REMARK UNBOUND:                -0.717
REMARK  Name = 
REMARK  7 active torsions:
REMARK  status: ('A' for Active; 'I' for Inactive)
REMARK    1  A    between atoms: C_1  and  C_2
REMARK    2  A    between atoms: C_7  and  C_8
REMARK    3  A    between atoms: C_8  and  C_9
REMARK    4  A    between atoms: C_9  and  O_10
REMARK    5  A    between atoms: O_10  and  C_11
REMARK    6  A    between atoms: C_15  and  C_16
REMARK    7  A    between atoms: C_16  and  N_17
REMARK                            x       y       z     vdW  Elec       q    Type
REMARK                         _______ _______ _______ _____ _____    ______ ____
ROOT
ATOM      1  O   UNL     1      43.728   2.649  10.664  0.00  0.00    +0.000 OA
ENDROOT
BRANCH   1   2
ATOM      2  C   UNL     1      44.581   2.982   9.635  0.00  0.00    +0.000 A 
ATOM      3  C   UNL     1      44.823   4.283   9.183  0.00  0.00    +0.000 A 
ATOM      4  C   UNL     1      45.739   4.527   8.162  0.00  0.00    +0.000 A 
ATOM      5  C   UNL     1      46.426   3.469   7.576  0.00  0.00    +0.000 A 
ATOM      6  C   UNL     1      46.185   2.148   7.979  0.00  0.00    +0.000 A 
ATOM      7  C   UNL     1      45.258   1.919   9.016  0.00  0.00    +0.000 A 
BRANCH   6   8
ATOM      8  C   UNL     1      46.979   1.000   7.397  0.00  0.00    +0.000 C 
BRANCH   8   9
ATOM      9  N   UNL     1      48.098   1.430   6.557  0.00  0.00    +0.000 NA
ATOM     10  H   UNL     1      48.692   2.055   7.101  0.00  0.00    +0.000 HD
ATOM     11  H   UNL     1      47.741   1.976   5.776  0.00  0.00    +0.000 HD
ENDBRANCH   8   9
ENDBRANCH   6   8
ENDBRANCH   1   2
BRANCH   1  12
ATOM     12  C   UNL     1      43.207   3.772  11.394  0.00  0.00    +0.000 C 
BRANCH  12  13
ATOM     13  C   UNL     1      43.832   3.906  12.785  0.00  0.00    +0.000 C 
BRANCH  13  20
ATOM     14  C   UNL     1      46.783   3.558  13.537  0.00  0.00    +0.000 C 
ATOM     15  C   UNL     1      46.197   4.868  13.109  0.00  0.00    +0.000 A 
ATOM     16  C   UNL     1      47.035   5.992  13.021  0.00  0.00    +0.000 A 
ATOM     17  C   UNL     1      46.527   7.220  12.618  0.00  0.00    +0.000 A 
ATOM     18  C   UNL     1      45.183   7.293  12.319  0.00  0.00    +0.000 A 
ATOM     19  N   UNL     1      44.344   6.239  12.394  0.00  0.00    +0.000 NA
ATOM     20  C   UNL     1      44.846   5.033  12.777  0.00  0.00    +0.000 A 
ENDBRANCH  13  20
ENDBRANCH  12  13
ENDBRANCH   1  12
TORSDOF 6
ENDMDL
MODEL 2
REMARK VINA RESULT:    -6.503      1.292      2.381
REMARK INTER + INTRA:          -9.311
REMARK INTER:                  -8.750
REMARK INTRA:                  -0.561
REMARK UNBOUND:                -0.717
REMARK  Name = 
REMARK  7 active torsions:
REMARK  status: ('A' for Active; 'I' for Inactive)
REMARK    1  A    between atoms: C_1  and  C_2
REMARK    2  A    between atoms: C_7  and  C_8
REMARK    3  A    between atoms: C_8  and  C_9
REMARK    4  A    between atoms: C_9  and  O_10
REMARK    5  A    between atoms: O_10  and  C_11
REMARK    6  A    between atoms: C_15  and  C_16
REMARK    7  A    between atoms: C_16  and  N_17
REMARK                            x       y       z     vdW  Elec       q    Type
REMARK                         _______ _______ _______ _____ _____    ______ ____
ROOT
ATOM      1  O   UNL     1      44.550   4.636   9.246  0.00  0.00    +0.000 OA
ENDROOT
BRANCH   1   2
ATOM      2  C   UNL     1      45.194   3.534   8.727  0.00  0.00    +0.000 A 
ATOM      3  C   UNL     1      45.057   2.227   9.205  0.00  0.00    +0.000 A 
ATOM      4  C   UNL     1      45.715   1.167   8.587  0.00  0.00    +0.000 A 
ATOM      5  C   UNL     1      46.527   1.400   7.482  0.00  0.00    +0.000 A 
ATOM      6  C   UNL     1      46.716   2.702   6.995  0.00  0.00    +0.000 A 
ATOM      7  C   UNL     1      46.038   3.763   7.629  0.00  0.00    +0.000 A 
BRANCH   6   8
ATOM      8  C   UNL     1      47.538   2.955   5.751  0.00  0.00    +0.000 C 
BRANCH   8   9
ATOM      9  N   UNL     1      48.505   1.895   5.465  0.00  0.00    +0.000 NA
ATOM     10  H   UNL     1      49.002   2.131   4.607  0.00  0.00    +0.000 HD
ATOM     11  H   UNL     1      48.008   1.027   5.282  0.00  0.00    +0.000 HD
ENDBRANCH   8   9
ENDBRANCH   6   8
ENDBRANCH   1   2
BRANCH   1  12
ATOM     12  C   UNL     1      43.597   4.339  10.278  0.00  0.00    +0.000 C 
BRANCH  12  13
ATOM     13  C   UNL     1      43.551   5.421  11.360  0.00  0.00    +0.000 C 
BRANCH  13  20
ATOM     14  C   UNL     1      45.293   7.905  11.792  0.00  0.00    +0.000 C 
ATOM     15  C   UNL     1      45.640   6.556  12.343  0.00  0.00    +0.000 A 
ATOM     16  C   UNL     1      46.805   6.416  13.115  0.00  0.00    +0.000 A 
ATOM     17  C   UNL     1      47.151   5.182  13.650  0.00  0.00    +0.000 A 
ATOM     18  C   UNL     1      46.323   4.112  13.389  0.00  0.00    +0.000 A 
ATOM     19  N   UNL     1      45.199   4.203  12.648  0.00  0.00    +0.000 NA
ATOM     20  C   UNL     1      44.853   5.416  12.136  0.00  0.00    +0.000 A 
ENDBRANCH  13  20
ENDBRANCH  12  13
ENDBRANCH   1  12
TORSDOF 6
ENDMDL
MODEL 3
REMARK VINA RESULT:    -6.358      1.688      5.793
REMARK INTER + INTRA:          -9.119
REMARK INTER:                  -8.468
REMARK INTRA:                  -0.651
REMARK UNBOUND:                -0.717
REMARK  Name = 
REMARK  7 active torsions:
REMARK  status: ('A' for Active; 'I' for Inactive)
REMARK    1  A    between atoms: C_1  and  C_2
REMARK    2  A    between atoms: C_7  and  C_8
REMARK    3  A    between atoms: C_8  and  C_9
REMARK    4  A    between atoms: C_9  and  O_10
REMARK    5  A    between atoms: O_10  and  C_11
REMARK    6  A    between atoms: C_15  and  C_16
REMARK    7  A    between atoms: C_16  and  N_17
REMARK                            x       y       z     vdW  Elec       q    Type
REMARK                         _______ _______ _______ _____ _____    ______ ____
ROOT
ATOM      1  O   UNL     1      44.182   3.736  11.726  0.00  0.00    +0.000 OA
ENDROOT
BRANCH   1   2
ATOM      2  C   UNL     1      44.765   4.975  11.879  0.00  0.00    +0.000 A 
ATOM      3  C   UNL     1      44.247   6.172  11.377  0.00  0.00    +0.000 A 
ATOM      4  C   UNL     1      44.886   7.386  11.621  0.00  0.00    +0.000 A 
ATOM      5  C   UNL     1      46.057   7.418  12.370  0.00  0.00    +0.000 A 
ATOM      6  C   UNL     1      46.625   6.234  12.862  0.00  0.00    +0.000 A 
ATOM      7  C   UNL     1      45.964   5.015  12.609  0.00  0.00    +0.000 A 
BRANCH   6   8
ATOM      8  C   UNL     1      47.858   6.268  13.737  0.00  0.00    +0.000 C 
BRANCH   8   9
ATOM      9  N   UNL     1      49.102   6.444  12.988  0.00  0.00    +0.000 NA
ATOM     10  H   UNL     1      49.169   5.705  12.289  0.00  0.00    +0.000 HD
ATOM     11  H   UNL     1      49.893   6.322  13.616  0.00  0.00    +0.000 HD
ENDBRANCH   8   9
ENDBRANCH   6   8
ENDBRANCH   1   2
BRANCH   1  12
ATOM     12  C   UNL     1      44.983   2.785  11.005  0.00  0.00    +0.000 C 
BRANCH  12  13
ATOM     13  C   UNL     1      44.396   2.450   9.631  0.00  0.00    +0.000 C 
BRANCH  13  20
ATOM     14  C   UNL     1      45.856   4.755   8.234  0.00  0.00    +0.000 C 
ATOM     15  C   UNL     1      46.196   3.313   8.007  0.00  0.00    +0.000 A 
ATOM     16  C   UNL     1      47.246   2.992   7.133  0.00  0.00    +0.000 A 
ATOM     17  C   UNL     1      47.596   1.667   6.907  0.00  0.00    +0.000 A 
ATOM     18  C   UNL     1      46.873   0.691   7.560  0.00  0.00    +0.000 A 
ATOM     19  N   UNL     1      45.853   0.957   8.403  0.00  0.00    +0.000 NA
ATOM     20  C   UNL     1      45.522   2.257   8.634  0.00  0.00    +0.000 A 
ENDBRANCH  13  20
ENDBRANCH  12  13
ENDBRANCH   1  12
TORSDOF 6
ENDMDL
MODEL 4
REMARK VINA RESULT:    -6.048      2.754      6.528
REMARK INTER + INTRA:          -8.710
REMARK INTER:                  -8.242
REMARK INTRA:                  -0.467
REMARK UNBOUND:                -0.717
REMARK  Name = 
REMARK  7 active torsions:
REMARK  status: ('A' for Active; 'I' for Inactive)
REMARK    1  A    between atoms: C_1  and  C_2
REMARK    2  A    between atoms: C_7  and  C_8
REMARK    3  A    between atoms: C_8  and  C_9
REMARK    4  A    between atoms: C_9  and  O_10
REMARK    5  A    between atoms: O_10  and  C_11
REMARK    6  A    between atoms: C_15  and  C_16
REMARK    7  A    between atoms: C_16  and  N_17
REMARK                            x       y       z     vdW  Elec       q    Type
REMARK                         _______ _______ _______ _____ _____    ______ ____
ROOT
ATOM      1  O   UNL     1      46.143   4.873  13.001  0.00  0.00    +0.000 OA
ENDROOT
BRANCH   1   2
ATOM      2  C   UNL     1      47.003   5.234  14.015  0.00  0.00    +0.000 A 
ATOM      3  C   UNL     1      47.843   6.352  13.994  0.00  0.00    +0.000 A 
ATOM      4  C   UNL     1      48.647   6.662  15.088  0.00  0.00    +0.000 A 
ATOM      5  C   UNL     1      48.627   5.853  16.219  0.00  0.00    +0.000 A 
ATOM      6  C   UNL     1      47.823   4.705  16.264  0.00  0.00    +0.000 A 
ATOM      7  C   UNL     1      47.012   4.408  15.150  0.00  0.00    +0.000 A 
BRANCH   6   8
ATOM      8  C   UNL     1      47.741   3.861  17.516  0.00  0.00    +0.000 C 
BRANCH   8   9
ATOM      9  N   UNL     1      46.569   2.986  17.555  0.00  0.00    +0.000 NA
ATOM     10  H   UNL     1      45.745   3.553  17.747  0.00  0.00    +0.000 HD
ATOM     11  H   UNL     1      46.661   2.335  18.332  0.00  0.00    +0.000 HD
ENDBRANCH   8   9
ENDBRANCH   6   8
ENDBRANCH   1   2
BRANCH   1  12
ATOM     12  C   UNL     1      46.045   5.829  11.933  0.00  0.00    +0.000 C 
BRANCH  12  13
ATOM     13  C   UNL     1      44.758   5.669  11.121  0.00  0.00    +0.000 C 
BRANCH  13  20
ATOM     14  C   UNL     1      43.597   2.849  11.430  0.00  0.00    +0.000 C 
ATOM     15  C   UNL     1      44.397   3.279  10.238  0.00  0.00    +0.000 A 
ATOM     16  C   UNL     1      44.610   2.362   9.196  0.00  0.00    +0.000 A 
ATOM     17  C   UNL     1      45.337   2.730   8.072  0.00  0.00    +0.000 A 
ATOM     18  C   UNL     1      45.843   4.012   8.023  0.00  0.00    +0.000 A 
ATOM     19  N   UNL     1      45.665   4.921   9.005  0.00  0.00    +0.000 NA
ATOM     20  C   UNL     1      44.939   4.563  10.100  0.00  0.00    +0.000 A 
ENDBRANCH  13  20
ENDBRANCH  12  13
ENDBRANCH   1  12
TORSDOF 6
ENDMDL
MODEL 5
REMARK VINA RESULT:    -5.999      1.716      2.565
REMARK INTER + INTRA:          -8.645
REMARK INTER:                  -8.203
REMARK INTRA:                  -0.442
REMARK UNBOUND:                -0.717
REMARK  Name = 
REMARK  7 active torsions:
REMARK  status: ('A' for Active; 'I' for Inactive)
REMARK    1  A    between atoms: C_1  and  C_2
REMARK    2  A    between atoms: C_7  and  C_8
REMARK    3  A    between atoms: C_8  and  C_9
REMARK    4  A    between atoms: C_9  and  O_10
REMARK    5  A    between atoms: O_10  and  C_11
REMARK    6  A    between atoms: C_15  and  C_16
REMARK    7  A    between atoms: C_16  and  N_17
REMARK                            x       y       z     vdW  Elec       q    Type
REMARK                         _______ _______ _______ _____ _____    ______ ____
ROOT
ATOM      1  O   UNL     1      45.187   5.323   9.226  0.00  0.00    +0.000 OA
ENDROOT
BRANCH   1   2
ATOM      2  C   UNL     1      45.526   4.069   8.767  0.00  0.00    +0.000 A 
ATOM      3  C   UNL     1      45.109   2.865   9.344  0.00  0.00    +0.000 A 
ATOM      4  C   UNL     1      45.467   1.642   8.782  0.00  0.00    +0.000 A 
ATOM      5  C   UNL     1      46.253   1.605   7.635  0.00  0.00    +0.000 A 
ATOM      6  C   UNL     1      46.718   2.791   7.048  0.00  0.00    +0.000 A 
ATOM      7  C   UNL     1      46.343   4.021   7.627  0.00  0.00    +0.000 A 
BRANCH   6   8
ATOM      8  C   UNL     1      47.511   2.762   5.761  0.00  0.00    +0.000 C 
BRANCH   8   9
ATOM      9  N   UNL     1      48.514   1.697   5.717  0.00  0.00    +0.000 NA
ATOM     10  H   UNL     1      48.949   1.621   6.635  0.00  0.00    +0.000 HD
ATOM     11  H   UNL     1      49.252   1.958   5.067  0.00  0.00    +0.000 HD
ENDBRANCH   8   9
ENDBRANCH   6   8
ENDBRANCH   1   2
BRANCH   1  12
ATOM     12  C   UNL     1      44.729   5.357  10.587  0.00  0.00    +0.000 C 
BRANCH  12  13
ATOM     13  C   UNL     1      45.861   5.645  11.577  0.00  0.00    +0.000 C 
BRANCH  13  20
ATOM     14  C   UNL     1      48.468   7.054  12.357  0.00  0.00    +0.000 C 
ATOM     15  C   UNL     1      47.181   7.784  12.126  0.00  0.00    +0.000 A 
ATOM     16  C   UNL     1      47.162   9.183  12.246  0.00  0.00    +0.000 A 
ATOM     17  C   UNL     1      45.988   9.893  12.029  0.00  0.00    +0.000 A 
ATOM     18  C   UNL     1      44.855   9.179  11.703  0.00  0.00    +0.000 A 
ATOM     19  N   UNL     1      44.830   7.835  11.582  0.00  0.00    +0.000 NA
ATOM     20  C   UNL     1      45.985   7.142  11.782  0.00  0.00    +0.000 A 
ENDBRANCH  13  20
ENDBRANCH  12  13
ENDBRANCH   1  12
TORSDOF 6
ENDMDL
MODEL 6
REMARK VINA RESULT:    -5.910      4.223      5.981
REMARK INTER + INTRA:          -8.527
REMARK INTER:                  -8.217
REMARK INTRA:                  -0.310
REMARK UNBOUND:                -0.717
REMARK  Name = 
REMARK  7 active torsions:
REMARK  status: ('A' for Active; 'I' for Inactive)
REMARK    1  A    between atoms: C_1  and  C_2
REMARK    2  A    between atoms: C_7  and  C_8
REMARK    3  A    between atoms: C_8  and  C_9
REMARK    4  A    between atoms: C_9  and  O_10
REMARK    5  A    between atoms: O_10  and  C_11
REMARK    6  A    between atoms: C_15  and  C_16
REMARK    7  A    between atoms: C_16  and  N_17
REMARK                            x       y       z     vdW  Elec       q    Type
REMARK                         _______ _______ _______ _____ _____    ______ ____
ROOT
ATOM      1  O   UNL     1      47.202   3.553  14.326  0.00  0.00    +0.000 OA
ENDROOT
BRANCH   1   2
ATOM      2  C   UNL     1      46.523   4.205  13.320  0.00  0.00    +0.000 A 
ATOM      3  C   UNL     1      46.754   5.525  12.921  0.00  0.00    +0.000 A 
ATOM      4  C   UNL     1      46.046   6.086  11.860  0.00  0.00    +0.000 A 
ATOM      5  C   UNL     1      45.092   5.333  11.184  0.00  0.00    +0.000 A 
ATOM      6  C   UNL     1      44.809   4.017  11.577  0.00  0.00    +0.000 A 
ATOM      7  C   UNL     1      45.538   3.463  12.650  0.00  0.00    +0.000 A 
BRANCH   6   8
ATOM      8  C   UNL     1      43.826   3.169  10.802  0.00  0.00    +0.000 C 
BRANCH   8   9
ATOM      9  N   UNL     1      43.063   2.245  11.642  0.00  0.00    +0.000 NA
ATOM     10  H   UNL     1      43.312   1.291  11.387  0.00  0.00    +0.000 HD
ATOM     11  H   UNL     1      42.071   2.349  11.440  0.00  0.00    +0.000 HD
ENDBRANCH   8   9
ENDBRANCH   6   8
ENDBRANCH   1   2
BRANCH   1  12
ATOM     12  C   UNL     1      47.321   4.301  15.546  0.00  0.00    +0.000 C 
BRANCH  12  13
ATOM     13  C   UNL     1      47.451   3.398  16.775  0.00  0.00    +0.000 C 
BRANCH  13  20
ATOM     14  C   UNL     1      49.098   5.414  18.394  0.00  0.00    +0.000 C 
ATOM     15  C   UNL     1      49.664   4.131  17.865  0.00  0.00    +0.000 A 
ATOM     16  C   UNL     1      51.004   3.816  18.139  0.00  0.00    +0.000 A 
ATOM     17  C   UNL     1      51.559   2.631  17.674  0.00  0.00    +0.000 A 
ATOM     18  C   UNL     1      50.754   1.790  16.935  0.00  0.00    +0.000 A 
ATOM     19  N   UNL     1      49.463   2.058  16.646  0.00  0.00    +0.000 NA
ATOM     20  C   UNL     1      48.917   3.214  17.115  0.00  0.00    +0.000 A 
ENDBRANCH  13  20
ENDBRANCH  12  13
ENDBRANCH   1  12
TORSDOF 6
ENDMDL
MODEL 7
REMARK VINA RESULT:    -5.612      4.265      5.833
REMARK INTER + INTRA:          -8.133
REMARK INTER:                  -7.797
REMARK INTRA:                  -0.336
REMARK UNBOUND:                -0.717
REMARK  Name = 
REMARK  7 active torsions:
REMARK  status: ('A' for Active; 'I' for Inactive)
REMARK    1  A    between atoms: C_1  and  C_2
REMARK    2  A    between atoms: C_7  and  C_8
REMARK    3  A    between atoms: C_8  and  C_9
REMARK    4  A    between atoms: C_9  and  O_10
REMARK    5  A    between atoms: O_10  and  C_11
REMARK    6  A    between atoms: C_15  and  C_16
REMARK    7  A    between atoms: C_16  and  N_17
REMARK                            x       y       z     vdW  Elec       q    Type
REMARK                         _______ _______ _______ _____ _____    ______ ____
ROOT
ATOM      1  O   UNL     1      47.318   3.305  14.444  0.00  0.00    +0.000 OA
ENDROOT
BRANCH   1   2
ATOM      2  C   UNL     1      46.674   4.007  13.449  0.00  0.00    +0.000 A 
ATOM      3  C   UNL     1      46.961   5.327  13.084  0.00  0.00    +0.000 A 
ATOM      4  C   UNL     1      46.286   5.941  12.032  0.00  0.00    +0.000 A 
ATOM      5  C   UNL     1      45.308   5.243  11.331  0.00  0.00    +0.000 A 
ATOM      6  C   UNL     1      44.969   3.931  11.689  0.00  0.00    +0.000 A 
ATOM      7  C   UNL     1      45.666   3.323  12.753  0.00  0.00    +0.000 A 
BRANCH   6   8
ATOM      8  C   UNL     1      43.959   3.142  10.887  0.00  0.00    +0.000 C 
BRANCH   8   9
ATOM      9  N   UNL     1      43.198   2.183  11.687  0.00  0.00    +0.000 NA
ATOM     10  H   UNL     1      43.802   1.820  12.423  0.00  0.00    +0.000 HD
ATOM     11  H   UNL     1      42.941   1.388  11.106  0.00  0.00    +0.000 HD
ENDBRANCH   8   9
ENDBRANCH   6   8
ENDBRANCH   1   2
BRANCH   1  12
ATOM     12  C   UNL     1      47.284   3.934  15.735  0.00  0.00    +0.000 C 
BRANCH  12  13
ATOM     13  C   UNL     1      47.957   3.086  16.817  0.00  0.00    +0.000 C 
BRANCH  13  20
ATOM     14  C   UNL     1      50.713   1.792  17.176  0.00  0.00    +0.000 C 
ATOM     15  C   UNL     1      50.433   3.228  17.502  0.00  0.00    +0.000 A 
ATOM     16  C   UNL     1      51.482   4.035  17.972  0.00  0.00    +0.000 A 
ATOM     17  C   UNL     1      51.261   5.372  18.274  0.00  0.00    +0.000 A 
ATOM     18  C   UNL     1      49.986   5.868  18.104  0.00  0.00    +0.000 A 
ATOM     19  N   UNL     1      48.950   5.126  17.659  0.00  0.00    +0.000 NA
ATOM     20  C   UNL     1      49.172   3.818  17.351  0.00  0.00    +0.000 A 
ENDBRANCH  13  20
ENDBRANCH  12  13
ENDBRANCH   1  12
TORSDOF 6
ENDMDL
MODEL 8
REMARK VINA RESULT:    -5.408      4.406      7.359
REMARK INTER + INTRA:          -7.864
REMARK INTER:                  -7.433
REMARK INTRA:                  -0.431
REMARK UNBOUND:                -0.717
REMARK  Name = 
REMARK  7 active torsions:
REMARK  status: ('A' for Active; 'I' for Inactive)
REMARK    1  A    between atoms: C_1  and  C_2
REMARK    2  A    between atoms: C_7  and  C_8
REMARK    3  A    between atoms: C_8  and  C_9
REMARK    4  A    between atoms: C_9  and  O_10
REMARK    5  A    between atoms: O_10  and  C_11
REMARK    6  A    between atoms: C_15  and  C_16
REMARK    7  A    between atoms: C_16  and  N_17
REMARK                            x       y       z     vdW  Elec       q    Type
REMARK                         _______ _______ _______ _____ _____    ______ ____
ROOT
ATOM      1  O   UNL     1      46.968   3.510  15.786  0.00  0.00    +0.000 OA
ENDROOT
BRANCH   1   2
ATOM      2  C   UNL     1      48.127   3.665  16.515  0.00  0.00    +0.000 A 
ATOM      3  C   UNL     1      48.497   4.830  17.194  0.00  0.00    +0.000 A 
ATOM      4  C   UNL     1      49.670   4.878  17.944  0.00  0.00    +0.000 A 
ATOM      5  C   UNL     1      50.493   3.759  18.023  0.00  0.00    +0.000 A 
ATOM      6  C   UNL     1      50.171   2.584  17.329  0.00  0.00    +0.000 A 
ATOM      7  C   UNL     1      48.979   2.551  16.577  0.00  0.00    +0.000 A 
BRANCH   6   8
ATOM      8  C   UNL     1      51.022   1.342  17.467  0.00  0.00    +0.000 C 
BRANCH   8   9
ATOM      9  N   UNL     1      52.262   1.563  18.212  0.00  0.00    +0.000 NA
ATOM     10  H   UNL     1      52.966   0.907  17.876  0.00  0.00    +0.000 HD
ATOM     11  H   UNL     1      52.107   1.344  19.194  0.00  0.00    +0.000 HD
ENDBRANCH   8   9
ENDBRANCH   6   8
ENDBRANCH   1   2
BRANCH   1  12
ATOM     12  C   UNL     1      46.721   4.554  14.830  0.00  0.00    +0.000 C 
BRANCH  12  13
ATOM     13  C   UNL     1      46.919   4.084  13.387  0.00  0.00    +0.000 C 
BRANCH  13  20
ATOM     14  C   UNL     1      46.299   6.272  11.332  0.00  0.00    +0.000 C 
ATOM     15  C   UNL     1      45.330   5.185  11.688  0.00  0.00    +0.000 A 
ATOM     16  C   UNL     1      44.086   5.144  11.039  0.00  0.00    +0.000 A 
ATOM     17  C   UNL     1      43.169   4.145  11.337  0.00  0.00    +0.000 A 
ATOM     18  C   UNL     1      43.519   3.213  12.290  0.00  0.00    +0.000 A 
ATOM     19  N   UNL     1      44.702   3.220  12.940  0.00  0.00    +0.000 NA
ATOM     20  C   UNL     1      45.606   4.192  12.636  0.00  0.00    +0.000 A 
ENDBRANCH  13  20
ENDBRANCH  12  13
ENDBRANCH   1  12
TORSDOF 6
ENDMDL
MODEL 9
REMARK VINA RESULT:    -5.344      2.329      3.485
REMARK INTER + INTRA:          -7.780
REMARK INTER:                  -7.325
REMARK INTRA:                  -0.455
REMARK UNBOUND:                -0.717
REMARK  Name = 
REMARK  7 active torsions:
REMARK  status: ('A' for Active; 'I' for Inactive)
REMARK    1  A    between atoms: C_1  and  C_2
REMARK    2  A    between atoms: C_7  and  C_8
REMARK    3  A    between atoms: C_8  and  C_9
REMARK    4  A    between atoms: C_9  and  O_10
REMARK    5  A    between atoms: O_10  and  C_11
REMARK    6  A    between atoms: C_15  and  C_16
REMARK    7  A    between atoms: C_16  and  N_17
REMARK                            x       y       z     vdW  Elec       q    Type
REMARK                         _______ _______ _______ _____ _____    ______ ____
ROOT
ATOM      1  O   UNL     1      44.575   6.383  11.087  0.00  0.00    +0.000 OA
ENDROOT
BRANCH   1   2
ATOM      2  C   UNL     1      44.558   5.076  10.652  0.00  0.00    +0.000 A 
ATOM      3  C   UNL     1      43.879   4.030  11.284  0.00  0.00    +0.000 A 
ATOM      4  C   UNL     1      43.883   2.746  10.744  0.00  0.00    +0.000 A 
ATOM      5  C   UNL     1      44.572   2.489   9.564  0.00  0.00    +0.000 A 
ATOM      6  C   UNL     1      45.293   3.505   8.920  0.00  0.00    +0.000 A 
ATOM      7  C   UNL     1      45.274   4.800   9.477  0.00  0.00    +0.000 A 
BRANCH   6   8
ATOM      8  C   UNL     1      45.984   3.251   7.599  0.00  0.00    +0.000 C 
BRANCH   8   9
ATOM      9  N   UNL     1      46.807   4.372   7.146  0.00  0.00    +0.000 NA
ATOM     10  H   UNL     1      47.144   4.170   6.205  0.00  0.00    +0.000 HD
ATOM     11  H   UNL     1      47.630   4.446   7.739  0.00  0.00    +0.000 HD
ENDBRANCH   8   9
ENDBRANCH   6   8
ENDBRANCH   1   2
BRANCH   1  12
ATOM     12  C   UNL     1      45.139   6.569  12.395  0.00  0.00    +0.000 C 
BRANCH  12  13
ATOM     13  C   UNL     1      46.669   6.628  12.369  0.00  0.00    +0.000 C 
BRANCH  13  20
ATOM     14  C   UNL     1      49.577   7.453  11.859  0.00  0.00    +0.000 C 
ATOM     15  C   UNL     1      48.444   8.433  11.903  0.00  0.00    +0.000 A 
ATOM     16  C   UNL     1      48.712   9.792  11.679  0.00  0.00    +0.000 A 
ATOM     17  C   UNL     1      47.684  10.726  11.703  0.00  0.00    +0.000 A 
ATOM     18  C   UNL     1      46.408  10.273  11.961  0.00  0.00    +0.000 A 
ATOM     19  N   UNL     1      46.110   8.976  12.187  0.00  0.00    +0.000 NA
ATOM     20  C   UNL     1      47.116   8.060  12.149  0.00  0.00    +0.000 A 
ENDBRANCH  13  20
ENDBRANCH  12  13
ENDBRANCH   1  12
TORSDOF 6
ENDMDL
