MODEL 1
REMARK VINA RESULT:    -7.306      0.000      0.000
REMARK INTER + INTRA:         -11.449
REMARK INTER:                 -10.509
REMARK INTRA:                  -0.939
REMARK UNBOUND:                -0.939
REMARK  Name = 
REMARK  10 active torsions:
REMARK  status: ('A' for Active; 'I' for Inactive)
REMARK    1  A    between atoms: C_1  and  O_2
REMARK    2  A    between atoms: O_2  and  C_3
REMARK    3  A    between atoms: C_5  and  C_6
REMARK    4  A    between atoms: C_11  and  C_12
REMARK    5  A    between atoms: C_12  and  O_13
REMARK    6  A    between atoms: O_13  and  C_14
REMARK    7  A    between atoms: C_18  and  C_19
REMARK    8  A    between atoms: C_19  and  C_20
REMARK    9  A    between atoms: C_20  and  O_21
REMARK   10  A    between atoms: C_25  and  C_26
REMARK                            x       y       z     vdW  Elec       q    Type
REMARK                         _______ _______ _______ _____ _____    ______ ____
ROOT
ATOM      1  C   UNL     1      47.918   7.087  13.377  0.00  0.00    +0.000 A 
ATOM      2  C   UNL     1      47.350   8.333  13.644  0.00  0.00    +0.000 A 
ATOM      3  C   UNL     1      46.230   8.751  12.925  0.00  0.00    +0.000 A 
ATOM      4  C   UNL     1      45.671   7.924  11.949  0.00  0.00    +0.000 A 
ATOM      5  C   UNL     1      46.225   6.665  11.681  0.00  0.00    +0.000 A 
ATOM      6  C   UNL     1      47.344   6.253  12.416  0.00  0.00    +0.000 A 
ENDROOT
BRANCH   1   7
ATOM      7  O   UNL     1      49.016   6.583  14.010  0.00  0.00    +0.000 OA
BRANCH   7   8
ATOM      8  C   UNL     1      49.365   7.256  15.224  0.00  0.00    +0.000 C 
BRANCH   8  13
ATOM      9  C   UNL     1      48.082   6.401  18.547  0.00  0.00    +0.000 A 
ATOM     10  C   UNL     1      47.949   5.034  18.519  0.00  0.00    +0.000 A 
ATOM     11  C   UNL     1      48.311   4.411  17.339  0.00  0.00    +0.000 A 
ATOM     12  N   UNL     1      48.775   5.119  16.279  0.00  0.00    +0.000 NA
ATOM     13  C   UNL     1      48.850   6.459  16.400  0.00  0.00    +0.000 A 
ATOM     14  N   UNL     1      48.530   7.131  17.515  0.00  0.00    +0.000 NA
BRANCH  11  15
ATOM     15  C   UNL     1      48.193   2.903  17.206  0.00  0.00    +0.000 C 
ATOM     16  F   UNL     1      48.167   2.472  15.909  0.00  0.00    +0.000 F 
ATOM     17  F   UNL     1      49.230   2.235  17.787  0.00  0.00    +0.000 F 
ATOM     18  F   UNL     1      47.059   2.405  17.779  0.00  0.00    +0.000 F 
ENDBRANCH  11  15
BRANCH   9  20
ATOM     19  C   UNL     1      47.493   6.123  20.791  0.00  0.00    +0.000 C 
ATOM     20  O   UNL     1      47.729   7.036  19.721  0.00  0.00    +0.000 OA
ENDBRANCH   9  20
ENDBRANCH   8  13
ENDBRANCH   7   8
ENDBRANCH   1   7
BRANCH   5  21
ATOM     21  C   UNL     1      45.662   5.790  10.581  0.00  0.00    +0.000 C 
BRANCH  21  22
ATOM     22  C   UNL     1      44.387   4.996  10.930  0.00  0.00    +0.000 C 
ATOM     23  C   UNL     1      43.881   5.174  12.359  0.00  0.00    +0.000 C 
ATOM     24  C   UNL     1      43.551   3.774  12.850  0.00  0.00    +0.000 C 
ATOM     25  O   UNL     1      43.726   2.867  11.763  0.00  0.00    +0.000 OA
ATOM     26  C   UNL     1      44.658   3.479  10.856  0.00  0.00    +0.000 C 
ATOM     27  C   UNL     1      44.487   2.842   9.486  0.00  0.00    +0.000 C 
BRANCH  22  28
ATOM     28  O   UNL     1      43.337   5.355  10.021  0.00  0.00    +0.000 OA
ATOM     29  H   UNL     1      43.124   6.293  10.172  0.00  0.00    +0.000 HD
ENDBRANCH  22  28
ENDBRANCH  21  22
ENDBRANCH   5  21
TORSDOF 8
ENDMDL
MODEL 2
REMARK VINA RESULT:    -7.176      2.339      3.904
REMARK INTER + INTRA:         -11.262
REMARK INTER:                 -10.419
REMARK INTRA:                  -0.843
REMARK UNBOUND:                -0.939
REMARK  Name = 
REMARK  10 active torsions:
REMARK  status: ('A' for Active; 'I' for Inactive)
REMARK    1  A    between atoms: C_1  and  O_2
REMARK    2  A    between atoms: O_2  and  C_3
REMARK    3  A    between atoms: C_5  and  C_6
REMARK    4  A    between atoms: C_11  and  C_12
REMARK    5  A    between atoms: C_12  and  O_13
REMARK    6  A    between atoms: O_13  and  C_14
REMARK    7  A    between atoms: C_18  and  C_19
REMARK    8  A    between atoms: C_19  and  C_20
REMARK    9  A    between atoms: C_20  and  O_21
REMARK   10  A    between atoms: C_25  and  C_26
REMARK                            x       y       z     vdW  Elec       q    Type
REMARK                         _______ _______ _______ _____ _____    ______ ____
ROOT
ATOM      1  C   UNL     1      44.657   4.549  12.901  0.00  0.00    +0.000 A 
ATOM      2  C   UNL     1      43.308   4.902  12.889  0.00  0.00    +0.000 A 
ATOM      3  C   UNL     1      42.670   5.159  11.676  0.00  0.00    +0.000 A 
ATOM      4  C   UNL     1      43.375   5.054  10.474  0.00  0.00    +0.000 A 
ATOM      5  C   UNL     1      44.727   4.687  10.473  0.00  0.00    +0.000 A 
ATOM      6  C   UNL     1      45.353   4.422  11.698  0.00  0.00    +0.000 A 
ENDROOT
BRANCH   1   7
ATOM      7  O   UNL     1      45.381   4.285  14.027  0.00  0.00    +0.000 OA
BRANCH   7   8
ATOM      8  C   UNL     1      46.775   4.049  13.798  0.00  0.00    +0.000 C 
BRANCH   8  13
ATOM      9  C   UNL     1      48.813   6.536  15.554  0.00  0.00    +0.000 A 
ATOM     10  C   UNL     1      49.043   5.977  16.787  0.00  0.00    +0.000 A 
ATOM     11  C   UNL     1      48.488   4.729  17.004  0.00  0.00    +0.000 A 
ATOM     12  N   UNL     1      47.764   4.101  16.044  0.00  0.00    +0.000 NA
ATOM     13  C   UNL     1      47.579   4.741  14.873  0.00  0.00    +0.000 A 
ATOM     14  N   UNL     1      48.096   5.944  14.586  0.00  0.00    +0.000 NA
BRANCH  11  15
ATOM     15  C   UNL     1      48.680   4.032  18.339  0.00  0.00    +0.000 C 
ATOM     16  F   UNL     1      48.203   4.749  19.400  0.00  0.00    +0.000 F 
ATOM     17  F   UNL     1      48.045   2.827  18.406  0.00  0.00    +0.000 F 
ATOM     18  F   UNL     1      49.990   3.781  18.626  0.00  0.00    +0.000 F 
ENDBRANCH  11  15
BRANCH   9  20
ATOM     19  C   UNL     1      50.048   7.853  14.071  0.00  0.00    +0.000 C 
ATOM     20  O   UNL     1      49.364   7.780  15.321  0.00  0.00    +0.000 OA
ENDBRANCH   9  20
ENDBRANCH   8  13
ENDBRANCH   7   8
ENDBRANCH   1   7
BRANCH   5  21
ATOM     21  C   UNL     1      45.512   4.632   9.179  0.00  0.00    +0.000 C 
BRANCH  21  22
ATOM     22  C   UNL     1      45.300   3.377   8.309  0.00  0.00    +0.000 C 
ATOM     23  C   UNL     1      45.047   2.085   9.081  0.00  0.00    +0.000 C 
ATOM     24  C   UNL     1      45.927   1.037   8.419  0.00  0.00    +0.000 C 
ATOM     25  O   UNL     1      46.545   1.631   7.278  0.00  0.00    +0.000 OA
ATOM     26  C   UNL     1      46.580   3.048   7.513  0.00  0.00    +0.000 C 
ATOM     27  C   UNL     1      46.728   3.755   6.175  0.00  0.00    +0.000 C 
BRANCH  22  28
ATOM     28  O   UNL     1      44.203   3.599   7.410  0.00  0.00    +0.000 OA
ATOM     29  H   UNL     1      43.545   4.143   7.877  0.00  0.00    +0.000 HD
ENDBRANCH  22  28
ENDBRANCH  21  22
ENDBRANCH   5  21
TORSDOF 8
ENDMDL
MODEL 3
REMARK VINA RESULT:    -6.804      1.569      1.903
REMARK INTER + INTRA:         -10.726
REMARK INTER:                  -9.951
REMARK INTRA:                  -0.775
REMARK UNBOUND:                -0.939
REMARK  Name = 
REMARK  10 active torsions:
REMARK  status: ('A' for Active; 'I' for Inactive)
REMARK    1  A    between atoms: C_1  and  O_2
REMARK    2  A    between atoms: O_2  and  C_3
REMARK    3  A    between atoms: C_5  and  C_6
REMARK    4  A    between atoms: C_11  and  C_12
REMARK    5  A    between atoms: C_12  and  O_13
REMARK    6  A    between atoms: O_13  and  C_14
REMARK    7  A    between atoms: C_18  and  C_19
REMARK    8  A    between atoms: C_19  and  C_20
REMARK    9  A    between atoms: C_20  and  O_21
REMARK   10  A    between atoms: C_25  and  C_26
REMARK                            x       y       z     vdW  Elec       q    Type
REMARK                         _______ _______ _______ _____ _____    ______ ____
ROOT
ATOM      1  C   UNL     1      47.404   7.252  13.111  0.00  0.00    +0.000 A 
ATOM      2  C   UNL     1      46.603   8.373  13.326  0.00  0.00    +0.000 A 
ATOM      3  C   UNL     1      45.462   8.568  12.548  0.00  0.00    +0.000 A 
ATOM      4  C   UNL     1      45.113   7.640  11.564  0.00  0.00    +0.000 A 
ATOM      5  C   UNL     1      45.903   6.503  11.348  0.00  0.00    +0.000 A 
ATOM      6  C   UNL     1      47.042   6.314  12.142  0.00  0.00    +0.000 A 
ENDROOT
BRANCH   1   7
ATOM      7  O   UNL     1      48.544   6.967  13.804  0.00  0.00    +0.000 OA
BRANCH   7   8
ATOM      8  C   UNL     1      48.575   7.489  15.138  0.00  0.00    +0.000 C 
BRANCH   8  13
ATOM      9  C   UNL     1      50.812   5.710  17.430  0.00  0.00    +0.000 A 
ATOM     10  C   UNL     1      50.147   4.543  17.717  0.00  0.00    +0.000 A 
ATOM     11  C   UNL     1      48.918   4.376  17.107  0.00  0.00    +0.000 A 
ATOM     12  N   UNL     1      48.410   5.317  16.270  0.00  0.00    +0.000 NA
ATOM     13  C   UNL     1      49.132   6.436  16.068  0.00  0.00    +0.000 A 
ATOM     14  N   UNL     1      50.335   6.662  16.614  0.00  0.00    +0.000 NA
BRANCH  11  15
ATOM     15  C   UNL     1      48.101   3.123  17.367  0.00  0.00    +0.000 C 
ATOM     16  F   UNL     1      46.774   3.268  17.075  0.00  0.00    +0.000 F 
ATOM     17  F   UNL     1      48.517   2.055  16.628  0.00  0.00    +0.000 F 
ATOM     18  F   UNL     1      48.148   2.717  18.669  0.00  0.00    +0.000 F 
ENDBRANCH  11  15
BRANCH   9  20
ATOM     19  C   UNL     1      53.066   5.093  17.432  0.00  0.00    +0.000 C 
ATOM     20  O   UNL     1      52.043   5.889  18.029  0.00  0.00    +0.000 OA
ENDBRANCH   9  20
ENDBRANCH   8  13
ENDBRANCH   7   8
ENDBRANCH   1   7
BRANCH   5  21
ATOM     21  C   UNL     1      45.566   5.526  10.241  0.00  0.00    +0.000 C 
BRANCH  21  22
ATOM     22  C   UNL     1      44.311   4.658  10.461  0.00  0.00    +0.000 C 
ATOM     23  C   UNL     1      43.720   4.713  11.866  0.00  0.00    +0.000 C 
ATOM     24  C   UNL     1      43.425   3.269  12.240  0.00  0.00    +0.000 C 
ATOM     25  O   UNL     1      43.699   2.451  11.104  0.00  0.00    +0.000 OA
ATOM     26  C   UNL     1      44.652   3.162  10.297  0.00  0.00    +0.000 C 
ATOM     27  C   UNL     1      44.584   2.619   8.879  0.00  0.00    +0.000 C 
BRANCH  22  28
ATOM     28  O   UNL     1      43.297   5.039   9.519  0.00  0.00    +0.000 OA
ATOM     29  H   UNL     1      42.860   4.226   9.210  0.00  0.00    +0.000 HD
ENDBRANCH  22  28
ENDBRANCH  21  22
ENDBRANCH   5  21
TORSDOF 8
ENDMDL
MODEL 4
REMARK VINA RESULT:    -6.713      1.912      2.565
REMARK INTER + INTRA:         -10.596
REMARK INTER:                  -9.812
REMARK INTRA:                  -0.784
REMARK UNBOUND:                -0.939
REMARK  Name = 
REMARK  10 active torsions:
REMARK  status: ('A' for Active; 'I' for Inactive)
REMARK    1  A    between atoms: C_1  and  O_2
REMARK    2  A    between atoms: O_2  and  C_3
REMARK    3  A    between atoms: C_5  and  C_6
REMARK    4  A    between atoms: C_11  and  C_12
REMARK    5  A    between atoms: C_12  and  O_13
REMARK    6  A    between atoms: O_13  and  C_14
REMARK    7  A    between atoms: C_18  and  C_19
REMARK    8  A    between atoms: C_19  and  C_20
REMARK    9  A    between atoms: C_20  and  O_21
REMARK   10  A    between atoms: C_25  and  C_26
REMARK                            x       y       z     vdW  Elec       q    Type
REMARK                         _______ _______ _______ _____ _____    ______ ____
ROOT
ATOM      1  C   UNL     1      48.043   7.126  13.390  0.00  0.00    +0.000 A 
ATOM      2  C   UNL     1      47.412   8.317  13.750  0.00  0.00    +0.000 A 
ATOM      3  C   UNL     1      46.225   8.689  13.120  0.00  0.00    +0.000 A 
ATOM      4  C   UNL     1      45.661   7.868  12.139  0.00  0.00    +0.000 A 
ATOM      5  C   UNL     1      46.280   6.664  11.779  0.00  0.00    +0.000 A 
ATOM      6  C   UNL     1      47.467   6.297  12.427  0.00  0.00    +0.000 A 
ENDROOT
BRANCH   1   7
ATOM      7  O   UNL     1      49.210   6.671  13.933  0.00  0.00    +0.000 OA
BRANCH   7   8
ATOM      8  C   UNL     1      49.628   7.365  15.113  0.00  0.00    +0.000 C 
BRANCH   8  13
ATOM      9  C   UNL     1      50.103   4.605  17.475  0.00  0.00    +0.000 A 
ATOM     10  C   UNL     1      49.144   4.811  18.437  0.00  0.00    +0.000 A 
ATOM     11  C   UNL     1      48.329   5.914  18.258  0.00  0.00    +0.000 A 
ATOM     12  N   UNL     1      48.475   6.735  17.187  0.00  0.00    +0.000 NA
ATOM     13  C   UNL     1      49.459   6.457  16.309  0.00  0.00    +0.000 A 
ATOM     14  N   UNL     1      50.278   5.401  16.409  0.00  0.00    +0.000 NA
BRANCH  11  15
ATOM     15  C   UNL     1      47.244   6.232  19.271  0.00  0.00    +0.000 C 
ATOM     16  F   UNL     1      46.905   7.556  19.307  0.00  0.00    +0.000 F 
ATOM     17  F   UNL     1      46.079   5.568  19.028  0.00  0.00    +0.000 F 
ATOM     18  F   UNL     1      47.598   5.911  20.549  0.00  0.00    +0.000 F 
ENDBRANCH  11  15
BRANCH   9  20
ATOM     19  C   UNL     1      50.268   2.280  17.308  0.00  0.00    +0.000 C 
ATOM     20  O   UNL     1      50.921   3.505  17.638  0.00  0.00    +0.000 OA
ENDBRANCH   9  20
ENDBRANCH   8  13
ENDBRANCH   7   8
ENDBRANCH   1   7
BRANCH   5  21
ATOM     21  C   UNL     1      45.708   5.802  10.674  0.00  0.00    +0.000 C 
BRANCH  21  22
ATOM     22  C   UNL     1      44.419   5.027  11.014  0.00  0.00    +0.000 C 
ATOM     23  C   UNL     1      43.916   5.199  12.444  0.00  0.00    +0.000 C 
ATOM     24  C   UNL     1      43.559   3.799  12.920  0.00  0.00    +0.000 C 
ATOM     25  O   UNL     1      43.719   2.902  11.823  0.00  0.00    +0.000 OA
ATOM     26  C   UNL     1      44.662   3.506  10.923  0.00  0.00    +0.000 C 
ATOM     27  C   UNL     1      44.480   2.887   9.546  0.00  0.00    +0.000 C 
BRANCH  22  28
ATOM     28  O   UNL     1      43.376   5.415  10.108  0.00  0.00    +0.000 OA
ATOM     29  H   UNL     1      42.562   4.956  10.381  0.00  0.00    +0.000 HD
ENDBRANCH  22  28
ENDBRANCH  21  22
ENDBRANCH   5  21
TORSDOF 8
ENDMDL
MODEL 5
REMARK VINA RESULT:    -6.582      1.671      2.021
REMARK INTER + INTRA:         -10.407
REMARK INTER:                  -9.631
REMARK INTRA:                  -0.776
REMARK UNBOUND:                -0.939
REMARK  Name = 
REMARK  10 active torsions:
REMARK  status: ('A' for Active; 'I' for Inactive)
REMARK    1  A    between atoms: C_1  and  O_2
REMARK    2  A    between atoms: O_2  and  C_3
REMARK    3  A    between atoms: C_5  and  C_6
REMARK    4  A    between atoms: C_11  and  C_12
REMARK    5  A    between atoms: C_12  and  O_13
REMARK    6  A    between atoms: O_13  and  C_14
REMARK    7  A    between atoms: C_18  and  C_19
REMARK    8  A    between atoms: C_19  and  C_20
REMARK    9  A    between atoms: C_20  and  O_21
REMARK   10  A    between atoms: C_25  and  C_26
REMARK                            x       y       z     vdW  Elec       q    Type
REMARK                         _______ _______ _______ _____ _____    ______ ____
ROOT
ATOM      1  C   UNL     1      47.703   6.575  13.790  0.00  0.00    +0.000 A 
ATOM      2  C   UNL     1      47.577   7.960  13.888  0.00  0.00    +0.000 A 
ATOM      3  C   UNL     1      46.800   8.652  12.959  0.00  0.00    +0.000 A 
ATOM      4  C   UNL     1      46.140   7.960  11.939  0.00  0.00    +0.000 A 
ATOM      5  C   UNL     1      46.250   6.567  11.840  0.00  0.00    +0.000 A 
ATOM      6  C   UNL     1      47.026   5.884  12.785  0.00  0.00    +0.000 A 
ENDROOT
BRANCH   1   7
ATOM      7  O   UNL     1      48.443   5.801  14.636  0.00  0.00    +0.000 OA
BRANCH   7   8
ATOM      8  C   UNL     1      47.673   4.978  15.519  0.00  0.00    +0.000 C 
BRANCH   8  13
ATOM      9  C   UNL     1      48.464   5.058  19.095  0.00  0.00    +0.000 A 
ATOM     10  C   UNL     1      49.747   4.570  19.170  0.00  0.00    +0.000 A 
ATOM     11  C   UNL     1      50.335   4.217  17.970  0.00  0.00    +0.000 A 
ATOM     12  N   UNL     1      49.676   4.353  16.792  0.00  0.00    +0.000 NA
ATOM     13  C   UNL     1      48.414   4.823  16.826  0.00  0.00    +0.000 A 
ATOM     14  N   UNL     1      47.783   5.197  17.948  0.00  0.00    +0.000 NA
BRANCH  11  15
ATOM     15  C   UNL     1      51.748   3.660  17.950  0.00  0.00    +0.000 C 
ATOM     16  F   UNL     1      51.840   2.432  17.357  0.00  0.00    +0.000 F 
ATOM     17  F   UNL     1      52.623   4.455  17.269  0.00  0.00    +0.000 F 
ATOM     18  F   UNL     1      52.278   3.505  19.198  0.00  0.00    +0.000 F 
ENDBRANCH  11  15
BRANCH   9  20
ATOM     19  C   UNL     1      48.553   4.906  21.425  0.00  0.00    +0.000 C 
ATOM     20  O   UNL     1      47.865   5.419  20.285  0.00  0.00    +0.000 OA
ENDBRANCH   9  20
ENDBRANCH   8  13
ENDBRANCH   7   8
ENDBRANCH   1   7
BRANCH   5  21
ATOM     21  C   UNL     1      45.589   5.819  10.701  0.00  0.00    +0.000 C 
BRANCH  21  22
ATOM     22  C   UNL     1      44.290   5.064  11.047  0.00  0.00    +0.000 C 
ATOM     23  C   UNL     1      43.667   5.426  12.392  0.00  0.00    +0.000 C 
ATOM     24  C   UNL     1      43.296   4.100  13.038  0.00  0.00    +0.000 C 
ATOM     25  O   UNL     1      43.562   3.059  12.100  0.00  0.00    +0.000 OA
ATOM     26  C   UNL     1      44.566   3.554  11.200  0.00  0.00    +0.000 C 
ATOM     27  C   UNL     1      44.510   2.738   9.919  0.00  0.00    +0.000 C 
BRANCH  22  28
ATOM     28  O   UNL     1      43.319   5.287  10.014  0.00  0.00    +0.000 OA
ATOM     29  H   UNL     1      42.827   6.096  10.240  0.00  0.00    +0.000 HD
ENDBRANCH  22  28
ENDBRANCH  21  22
ENDBRANCH   5  21
TORSDOF 8
ENDMDL
MODEL 6
REMARK VINA RESULT:    -6.352      3.510      8.275
REMARK INTER + INTRA:         -10.076
REMARK INTER:                  -9.293
REMARK INTRA:                  -0.783
REMARK UNBOUND:                -0.939
REMARK  Name = 
REMARK  10 active torsions:
REMARK  status: ('A' for Active; 'I' for Inactive)
REMARK    1  A    between atoms: C_1  and  O_2
REMARK    2  A    between atoms: O_2  and  C_3
REMARK    3  A    between atoms: C_5  and  C_6
REMARK    4  A    between atoms: C_11  and  C_12
REMARK    5  A    between atoms: C_12  and  O_13
REMARK    6  A    between atoms: O_13  and  C_14
REMARK    7  A    between atoms: C_18  and  C_19
REMARK    8  A    between atoms: C_19  and  C_20
REMARK    9  A    between atoms: C_20  and  O_21
REMARK   10  A    between atoms: C_25  and  C_26
REMARK                            x       y       z     vdW  Elec       q    Type
REMARK                         _______ _______ _______ _____ _____    ______ ____
ROOT
ATOM      1  C   UNL     1      47.597   3.804  16.356  0.00  0.00    +0.000 A 
ATOM      2  C   UNL     1      48.387   2.687  16.626  0.00  0.00    +0.000 A 
ATOM      3  C   UNL     1      49.365   2.754  17.619  0.00  0.00    +0.000 A 
ATOM      4  C   UNL     1      49.548   3.932  18.348  0.00  0.00    +0.000 A 
ATOM      5  C   UNL     1      48.751   5.056  18.093  0.00  0.00    +0.000 A 
ATOM      6  C   UNL     1      47.766   4.972  17.100  0.00  0.00    +0.000 A 
ENDROOT
BRANCH   1   7
ATOM      7  O   UNL     1      46.621   3.852  15.403  0.00  0.00    +0.000 OA
BRANCH   7   8
ATOM      8  C   UNL     1      47.105   3.942  14.059  0.00  0.00    +0.000 C 
BRANCH   8  13
ATOM      9  C   UNL     1      45.865   7.062  12.592  0.00  0.00    +0.000 A 
ATOM     10  C   UNL     1      44.716   6.695  11.935  0.00  0.00    +0.000 A 
ATOM     11  C   UNL     1      44.373   5.358  12.007  0.00  0.00    +0.000 A 
ATOM     12  N   UNL     1      45.133   4.469  12.695  0.00  0.00    +0.000 NA
ATOM     13  C   UNL     1      46.253   4.925  13.290  0.00  0.00    +0.000 A 
ATOM     14  N   UNL     1      46.642   6.207  13.274  0.00  0.00    +0.000 NA
BRANCH  11  15
ATOM     15  C   UNL     1      43.124   4.853  11.306  0.00  0.00    +0.000 C 
ATOM     16  F   UNL     1      42.820   3.555  11.606  0.00  0.00    +0.000 F 
ATOM     17  F   UNL     1      42.008   5.568  11.627  0.00  0.00    +0.000 F 
ATOM     18  F   UNL     1      43.220   4.901   9.946  0.00  0.00    +0.000 F 
ENDBRANCH  11  15
BRANCH   9  20
ATOM     19  C   UNL     1      45.134   9.234  12.134  0.00  0.00    +0.000 C 
ATOM     20  O   UNL     1      46.218   8.395  12.533  0.00  0.00    +0.000 OA
ENDBRANCH   9  20
ENDBRANCH   8  13
ENDBRANCH   7   8
ENDBRANCH   1   7
BRANCH   5  21
ATOM     21  C   UNL     1      48.986   6.354  18.836  0.00  0.00    +0.000 C 
BRANCH  21  22
ATOM     22  C   UNL     1      48.058   6.628  20.037  0.00  0.00    +0.000 C 
ATOM     23  C   UNL     1      47.429   8.017  20.069  0.00  0.00    +0.000 C 
ATOM     24  C   UNL     1      47.587   8.501  21.502  0.00  0.00    +0.000 C 
ATOM     25  O   UNL     1      48.145   7.438  22.272  0.00  0.00    +0.000 OA
ATOM     26  C   UNL     1      48.856   6.588  21.357  0.00  0.00    +0.000 C 
ATOM     27  C   UNL     1      49.013   5.218  21.995  0.00  0.00    +0.000 C 
BRANCH  22  28
ATOM     28  O   UNL     1      47.011   5.646  20.063  0.00  0.00    +0.000 OA
ATOM     29  H   UNL     1      47.395   4.797  19.782  0.00  0.00    +0.000 HD
ENDBRANCH  22  28
ENDBRANCH  21  22
ENDBRANCH   5  21
TORSDOF 8
ENDMDL
MODEL 7
REMARK VINA RESULT:    -6.216      3.186      4.918
REMARK INTER + INTRA:          -9.881
REMARK INTER:                  -9.297
REMARK INTRA:                  -0.584
REMARK UNBOUND:                -0.939
REMARK  Name = 
REMARK  10 active torsions:
REMARK  status: ('A' for Active; 'I' for Inactive)
REMARK    1  A    between atoms: C_1  and  O_2
REMARK    2  A    between atoms: O_2  and  C_3
REMARK    3  A    between atoms: C_5  and  C_6
REMARK    4  A    between atoms: C_11  and  C_12
REMARK    5  A    between atoms: C_12  and  O_13
REMARK    6  A    between atoms: O_13  and  C_14
REMARK    7  A    between atoms: C_18  and  C_19
REMARK    8  A    between atoms: C_19  and  C_20
REMARK    9  A    between atoms: C_20  and  O_21
REMARK   10  A    between atoms: C_25  and  C_26
REMARK                            x       y       z     vdW  Elec       q    Type
REMARK                         _______ _______ _______ _____ _____    ______ ____
ROOT
ATOM      1  C   UNL     1      44.980   5.610  12.475  0.00  0.00    +0.000 A 
ATOM      2  C   UNL     1      43.609   5.368  12.563  0.00  0.00    +0.000 A 
ATOM      3  C   UNL     1      42.917   4.895  11.448  0.00  0.00    +0.000 A 
ATOM      4  C   UNL     1      43.594   4.653  10.249  0.00  0.00    +0.000 A 
ATOM      5  C   UNL     1      44.974   4.881  10.154  0.00  0.00    +0.000 A 
ATOM      6  C   UNL     1      45.658   5.347  11.284  0.00  0.00    +0.000 A 
ENDROOT
BRANCH   1   7
ATOM      7  O   UNL     1      45.752   6.081  13.497  0.00  0.00    +0.000 OA
BRANCH   7   8
ATOM      8  C   UNL     1      46.922   5.302  13.767  0.00  0.00    +0.000 C 
BRANCH   8  13
ATOM      9  C   UNL     1      49.482   7.781  12.919  0.00  0.00    +0.000 A 
ATOM     10  C   UNL     1      50.272   7.852  14.040  0.00  0.00    +0.000 A 
ATOM     11  C   UNL     1      49.912   7.031  15.092  0.00  0.00    +0.000 A 
ATOM     12  N   UNL     1      48.840   6.203  15.008  0.00  0.00    +0.000 NA
ATOM     13  C   UNL     1      48.117   6.221  13.871  0.00  0.00    +0.000 A 
ATOM     14  N   UNL     1      48.413   6.979  12.806  0.00  0.00    +0.000 NA
BRANCH  11  15
ATOM     15  C   UNL     1      50.718   7.042  16.379  0.00  0.00    +0.000 C 
ATOM     16  F   UNL     1      50.210   7.881  17.331  0.00  0.00    +0.000 F 
ATOM     17  F   UNL     1      50.785   5.818  16.976  0.00  0.00    +0.000 F 
ATOM     18  F   UNL     1      52.010   7.439  16.194  0.00  0.00    +0.000 F 
ENDBRANCH  11  15
BRANCH   9  20
ATOM     19  C   UNL     1      48.951   9.704  11.702  0.00  0.00    +0.000 C 
ATOM     20  O   UNL     1      49.833   8.592  11.858  0.00  0.00    +0.000 OA
ENDBRANCH   9  20
ENDBRANCH   8  13
ENDBRANCH   7   8
ENDBRANCH   1   7
BRANCH   5  21
ATOM     21  C   UNL     1      45.701   4.682   8.842  0.00  0.00    +0.000 C 
BRANCH  21  22
ATOM     22  C   UNL     1      45.439   3.347   8.116  0.00  0.00    +0.000 C 
ATOM     23  C   UNL     1      45.257   2.137   9.026  0.00  0.00    +0.000 C 
ATOM     24  C   UNL     1      46.096   1.031   8.406  0.00  0.00    +0.000 C 
ATOM     25  O   UNL     1      46.622   1.512   7.171  0.00  0.00    +0.000 OA
ATOM     26  C   UNL     1      46.660   2.945   7.263  0.00  0.00    +0.000 C 
ATOM     27  C   UNL     1      46.702   3.518   5.856  0.00  0.00    +0.000 C 
BRANCH  22  28
ATOM     28  O   UNL     1      44.277   3.476   7.283  0.00  0.00    +0.000 OA
ATOM     29  H   UNL     1      43.517   3.663   7.864  0.00  0.00    +0.000 HD
ENDBRANCH  22  28
ENDBRANCH  21  22
ENDBRANCH   5  21
TORSDOF 8
ENDMDL
MODEL 8
REMARK VINA RESULT:    -6.093      3.289      7.640
REMARK INTER + INTRA:          -9.704
REMARK INTER:                  -8.514
REMARK INTRA:                  -1.189
REMARK UNBOUND:                -0.939
REMARK  Name = 
REMARK  10 active torsions:
REMARK  status: ('A' for Active; 'I' for Inactive)
REMARK    1  A    between atoms: C_1  and  O_2
REMARK    2  A    between atoms: O_2  and  C_3
REMARK    3  A    between atoms: C_5  and  C_6
REMARK    4  A    between atoms: C_11  and  C_12
REMARK    5  A    between atoms: C_12  and  O_13
REMARK    6  A    between atoms: O_13  and  C_14
REMARK    7  A    between atoms: C_18  and  C_19
REMARK    8  A    between atoms: C_19  and  C_20
REMARK    9  A    between atoms: C_20  and  O_21
REMARK   10  A    between atoms: C_25  and  C_26
REMARK                            x       y       z     vdW  Elec       q    Type
REMARK                         _______ _______ _______ _____ _____    ______ ____
ROOT
ATOM      1  C   UNL     1      47.831   3.956  16.511  0.00  0.00    +0.000 A 
ATOM      2  C   UNL     1      48.613   2.913  17.006  0.00  0.00    +0.000 A 
ATOM      3  C   UNL     1      49.705   3.197  17.827  0.00  0.00    +0.000 A 
ATOM      4  C   UNL     1      50.010   4.518  18.162  0.00  0.00    +0.000 A 
ATOM      5  C   UNL     1      49.223   5.573  17.680  0.00  0.00    +0.000 A 
ATOM      6  C   UNL     1      48.124   5.274  16.865  0.00  0.00    +0.000 A 
ENDROOT
BRANCH   1   7
ATOM      7  O   UNL     1      46.749   3.795  15.695  0.00  0.00    +0.000 OA
BRANCH   7   8
ATOM      8  C   UNL     1      47.066   3.646  14.307  0.00  0.00    +0.000 C 
BRANCH   8  13
ATOM      9  C   UNL     1      44.281   4.689  12.167  0.00  0.00    +0.000 A 
ATOM     10  C   UNL     1      44.467   6.040  12.001  0.00  0.00    +0.000 A 
ATOM     11  C   UNL     1      45.567   6.586  12.636  0.00  0.00    +0.000 A 
ATOM     12  N   UNL     1      46.411   5.820  13.372  0.00  0.00    +0.000 NA
ATOM     13  C   UNL     1      46.131   4.507  13.489  0.00  0.00    +0.000 A 
ATOM     14  N   UNL     1      45.092   3.905  12.894  0.00  0.00    +0.000 NA
BRANCH  11  15
ATOM     15  C   UNL     1      45.853   8.073  12.520  0.00  0.00    +0.000 C 
ATOM     16  F   UNL     1      45.950   8.703  13.728  0.00  0.00    +0.000 F 
ATOM     17  F   UNL     1      47.027   8.340  11.879  0.00  0.00    +0.000 F 
ATOM     18  F   UNL     1      44.889   8.749  11.831  0.00  0.00    +0.000 F 
ENDBRANCH  11  15
BRANCH   9  20
ATOM     19  C   UNL     1      43.213   2.702  11.559  0.00  0.00    +0.000 C 
ATOM     20  O   UNL     1      43.189   4.128  11.536  0.00  0.00    +0.000 OA
ENDBRANCH   9  20
ENDBRANCH   8  13
ENDBRANCH   7   8
ENDBRANCH   1   7
BRANCH   5  21
ATOM     21  C   UNL     1      49.585   7.010  17.987  0.00  0.00    +0.000 C 
BRANCH  21  22
ATOM     22  C   UNL     1      49.953   7.892  16.776  0.00  0.00    +0.000 C 
ATOM     23  C   UNL     1      48.770   8.394  15.955  0.00  0.00    +0.000 C 
ATOM     24  C   UNL     1      49.161   8.172  14.502  0.00  0.00    +0.000 C 
ATOM     25  O   UNL     1      50.506   7.699  14.471  0.00  0.00    +0.000 OA
ATOM     26  C   UNL     1      50.762   7.081  15.743  0.00  0.00    +0.000 C 
ATOM     27  C   UNL     1      52.265   7.037  15.965  0.00  0.00    +0.000 C 
BRANCH  22  28
ATOM     28  O   UNL     1      50.716   9.022  17.224  0.00  0.00    +0.000 OA
ATOM     29  H   UNL     1      50.593   9.099  18.186  0.00  0.00    +0.000 HD
ENDBRANCH  22  28
ENDBRANCH  21  22
ENDBRANCH   5  21
TORSDOF 8
ENDMDL
MODEL 9
REMARK VINA RESULT:    -6.043      3.146      7.204
REMARK INTER + INTRA:          -9.632
REMARK INTER:                  -8.837
REMARK INTRA:                  -0.795
REMARK UNBOUND:                -0.939
REMARK  Name = 
REMARK  10 active torsions:
REMARK  status: ('A' for Active; 'I' for Inactive)
REMARK    1  A    between atoms: C_1  and  O_2
REMARK    2  A    between atoms: O_2  and  C_3
REMARK    3  A    between atoms: C_5  and  C_6
REMARK    4  A    between atoms: C_11  and  C_12
REMARK    5  A    between atoms: C_12  and  O_13
REMARK    6  A    between atoms: O_13  and  C_14
REMARK    7  A    between atoms: C_18  and  C_19
REMARK    8  A    between atoms: C_19  and  C_20
REMARK    9  A    between atoms: C_20  and  O_21
REMARK   10  A    between atoms: C_25  and  C_26
REMARK                            x       y       z     vdW  Elec       q    Type
REMARK                         _______ _______ _______ _____ _____    ______ ____
ROOT
ATOM      1  C   UNL     1      49.113   7.174  14.740  0.00  0.00    +0.000 A 
ATOM      2  C   UNL     1      50.406   7.677  14.601  0.00  0.00    +0.000 A 
ATOM      3  C   UNL     1      51.324   7.521  15.640  0.00  0.00    +0.000 A 
ATOM      4  C   UNL     1      50.955   6.856  16.812  0.00  0.00    +0.000 A 
ATOM      5  C   UNL     1      49.662   6.335  16.956  0.00  0.00    +0.000 A 
ATOM      6  C   UNL     1      48.753   6.490  15.902  0.00  0.00    +0.000 A 
ENDROOT
BRANCH   1   7
ATOM      7  O   UNL     1      48.134   7.278  13.794  0.00  0.00    +0.000 OA
BRANCH   7   8
ATOM      8  C   UNL     1      47.967   6.111  12.980  0.00  0.00    +0.000 C 
BRANCH   8  13
ATOM      9  C   UNL     1      44.791   7.277  11.574  0.00  0.00    +0.000 A 
ATOM     10  C   UNL     1      44.073   6.126  11.356  0.00  0.00    +0.000 A 
ATOM     11  C   UNL     1      44.698   4.943  11.704  0.00  0.00    +0.000 A 
ATOM     12  N   UNL     1      45.947   4.932  12.233  0.00  0.00    +0.000 NA
ATOM     13  C   UNL     1      46.576   6.114  12.390  0.00  0.00    +0.000 A 
ATOM     14  N   UNL     1      46.030   7.300  12.089  0.00  0.00    +0.000 NA
BRANCH  11  15
ATOM     15  C   UNL     1      43.989   3.617  11.493  0.00  0.00    +0.000 C 
ATOM     16  F   UNL     1      42.631   3.735  11.400  0.00  0.00    +0.000 F 
ATOM     17  F   UNL     1      44.374   2.984  10.349  0.00  0.00    +0.000 F 
ATOM     18  F   UNL     1      44.210   2.728  12.505  0.00  0.00    +0.000 F 
ENDBRANCH  11  15
BRANCH   9  20
ATOM     19  C   UNL     1      44.829   9.602  11.807  0.00  0.00    +0.000 C 
ATOM     20  O   UNL     1      44.178   8.467  11.236  0.00  0.00    +0.000 OA
ENDBRANCH   9  20
ENDBRANCH   8  13
ENDBRANCH   7   8
ENDBRANCH   1   7
BRANCH   5  21
ATOM     21  C   UNL     1      49.237   5.668  18.247  0.00  0.00    +0.000 C 
BRANCH  21  22
ATOM     22  C   UNL     1      49.474   4.147  18.336  0.00  0.00    +0.000 C 
ATOM     23  C   UNL     1      50.930   3.708  18.214  0.00  0.00    +0.000 C 
ATOM     24  C   UNL     1      50.919   2.528  17.254  0.00  0.00    +0.000 C 
ATOM     25  O   UNL     1      49.562   2.222  16.941  0.00  0.00    +0.000 OA
ATOM     26  C   UNL     1      48.803   3.424  17.150  0.00  0.00    +0.000 C 
ATOM     27  C   UNL     1      47.344   3.047  17.343  0.00  0.00    +0.000 C 
BRANCH  22  28
ATOM     28  O   UNL     1      48.947   3.654  19.577  0.00  0.00    +0.000 OA
ATOM     29  H   UNL     1      48.013   3.925  19.629  0.00  0.00    +0.000 HD
ENDBRANCH  22  28
ENDBRANCH  21  22
ENDBRANCH   5  21
TORSDOF 8
ENDMDL
