MODEL 1
REMARK VINA RESULT:    -8.631      0.000      0.000
REMARK INTER + INTRA:         -11.807
REMARK INTER:                 -11.659
REMARK INTRA:                  -0.149
REMARK UNBOUND:                -0.149
REMARK  Name = 
REMARK  8 active torsions:
REMARK  status: ('A' for Active; 'I' for Inactive)
REMARK    1  A    between atoms: C_1  and  C_2
REMARK    2  A    between atoms: C_2  and  N_3
REMARK    3  A    between atoms: C_2  and  C_19
REMARK    4  A    between atoms: N_3  and  C_4
REMARK    5  A    between atoms: C_7  and  C_8
REMARK    6  A    between atoms: C_8  and  N_9
REMARK    7  A    between atoms: N_9  and  C_10
REMARK    8  A    between atoms: C_19  and  C_21
REMARK                            x       y       z     vdW  Elec       q    Type
REMARK                         _______ _______ _______ _____ _____    ______ ____
ROOT
ATOM      1  N   UNL     1      46.420   5.452  14.453  0.00  0.00    +0.000 N 
ATOM      2  H   UNL     1      45.657   5.347  15.126  0.00  0.00    +0.000 HD
ENDROOT
BRANCH   1   3
ATOM      3  C   UNL     1      46.046   5.132  13.151  0.00  0.00    +0.000 A 
ATOM      4  C   UNL     1      45.446   3.897  12.919  0.00  0.00    +0.000 A 
ATOM      5  C   UNL     1      44.980   3.558  11.648  0.00  0.00    +0.000 A 
ATOM      6  C   UNL     1      45.141   4.464  10.601  0.00  0.00    +0.000 A 
ATOM      7  N   UNL     1      45.808   5.635  10.768  0.00  0.00    +0.000 NA
ATOM      8  C   UNL     1      46.247   5.924  12.022  0.00  0.00    +0.000 A 
BRANCH   6   9
ATOM      9  C   UNL     1      44.550   4.168   9.228  0.00  0.00    +0.000 C 
BRANCH   9  10
ATOM     10  N   UNL     1      44.782   2.776   8.825  0.00  0.00    +0.000 N 
ATOM     11  C   UNL     1      44.085   1.732   9.561  0.00  0.00    +0.000 C 
ATOM     12  C   UNL     1      45.912   2.386   8.117  0.00  0.00    +0.000 A 
ATOM     13  C   UNL     1      46.706   3.284   7.423  0.00  0.00    +0.000 A 
ATOM     14  C   UNL     1      47.789   2.778   6.726  0.00  0.00    +0.000 A 
ATOM     15  N   UNL     1      48.102   1.475   6.682  0.00  0.00    +0.000 NA
ATOM     16  C   UNL     1      47.283   0.681   7.370  0.00  0.00    +0.000 A 
ATOM     17  N   UNL     1      46.211   1.067   8.086  0.00  0.00    +0.000 NA
ENDBRANCH   9  10
ENDBRANCH   6   9
ENDBRANCH   1   3
BRANCH   1  19
ATOM     18  C   UNL     1      48.584   6.250  15.220  0.00  0.00    +0.000 C 
ATOM     19  C   UNL     1      47.718   5.010  15.005  0.00  0.00    +0.000 C 
BRANCH  19  20
ATOM     20  C   UNL     1      47.515   4.304  16.362  0.00  0.00    +0.000 C 
ATOM     21  O   UNL     1      46.536   3.574  16.528  0.00  0.00    +0.000 OA
BRANCH  20  22
ATOM     22  C   UNL     1      48.527   4.436  17.422  0.00  0.00    +0.000 A 
ATOM     23  C   UNL     1      48.512   5.419  18.398  0.00  0.00    +0.000 A 
ATOM     24  S   UNL     1      49.962   5.484  19.306  0.00  0.00    +0.000 S 
ATOM     25  C   UNL     1      50.621   4.166  18.457  0.00  0.00    +0.000 A 
ATOM     26  N   UNL     1      51.887   3.733  18.693  0.00  0.00    +0.000 NA
ATOM     27  C   UNL     1      52.236   2.707  17.989  0.00  0.00    +0.000 A 
ATOM     28  N   UNL     1      51.423   2.054  17.097  0.00  0.00    +0.000 N 
ATOM     29  C   UNL     1      50.103   2.399  16.901  0.00  0.00    +0.000 A 
ATOM     30  O   UNL     1      49.331   1.655  16.306  0.00  0.00    +0.000 OA
ATOM     31  C   UNL     1      49.714   3.629  17.563  0.00  0.00    +0.000 A 
ATOM     32  H   UNL     1      51.721   1.193  16.665  0.00  0.00    +0.000 HD
ENDBRANCH  20  22
ENDBRANCH  19  20
ENDBRANCH   1  19
TORSDOF 6
ENDMDL
MODEL 2
REMARK VINA RESULT:    -8.522      1.828      2.431
REMARK INTER + INTRA:         -11.659
REMARK INTER:                 -10.713
REMARK INTRA:                  -0.946
REMARK UNBOUND:                -0.149
REMARK  Name = 
REMARK  8 active torsions:
REMARK  status: ('A' for Active; 'I' for Inactive)
REMARK    1  A    between atoms: C_1  and  C_2
REMARK    2  A    between atoms: C_2  and  N_3
REMARK    3  A    between atoms: C_2  and  C_19
REMARK    4  A    between atoms: N_3  and  C_4
REMARK    5  A    between atoms: C_7  and  C_8
REMARK    6  A    between atoms: C_8  and  N_9
REMARK    7  A    between atoms: N_9  and  C_10
REMARK    8  A    between atoms: C_19  and  C_21
REMARK                            x       y       z     vdW  Elec       q    Type
REMARK                         _______ _______ _______ _____ _____    ______ ____
ROOT
ATOM      1  N   UNL     1      46.608   6.402  13.729  0.00  0.00    +0.000 N 
ATOM      2  H   UNL     1      46.803   5.649  14.395  0.00  0.00    +0.000 HD
ENDROOT
BRANCH   1   3
ATOM      3  C   UNL     1      45.969   5.958  12.576  0.00  0.00    +0.000 A 
ATOM      4  C   UNL     1      46.548   6.251  11.343  0.00  0.00    +0.000 A 
ATOM      5  C   UNL     1      45.992   5.762  10.160  0.00  0.00    +0.000 A 
ATOM      6  C   UNL     1      44.832   4.990  10.222  0.00  0.00    +0.000 A 
ATOM      7  N   UNL     1      44.187   4.767  11.395  0.00  0.00    +0.000 NA
ATOM      8  C   UNL     1      44.762   5.263  12.522  0.00  0.00    +0.000 A 
BRANCH   6   9
ATOM      9  C   UNL     1      44.262   4.355   8.960  0.00  0.00    +0.000 C 
BRANCH   9  10
ATOM     10  N   UNL     1      44.642   2.942   8.843  0.00  0.00    +0.000 N 
ATOM     11  C   UNL     1      44.179   2.028   9.877  0.00  0.00    +0.000 C 
ATOM     12  C   UNL     1      45.734   2.526   8.092  0.00  0.00    +0.000 A 
ATOM     13  C   UNL     1      46.317   3.320   7.118  0.00  0.00    +0.000 A 
ATOM     14  C   UNL     1      47.380   2.790   6.409  0.00  0.00    +0.000 A 
ATOM     15  N   UNL     1      47.866   1.556   6.610  0.00  0.00    +0.000 NA
ATOM     16  C   UNL     1      47.243   0.859   7.558  0.00  0.00    +0.000 A 
ATOM     17  N   UNL     1      46.210   1.278   8.309  0.00  0.00    +0.000 NA
ENDBRANCH   9  10
ENDBRANCH   6   9
ENDBRANCH   1   3
BRANCH   1  19
ATOM     18  C   UNL     1      47.169   8.730  14.145  0.00  0.00    +0.000 C 
ATOM     19  C   UNL     1      47.709   7.387  13.661  0.00  0.00    +0.000 C 
BRANCH  19  20
ATOM     20  C   UNL     1      48.873   6.958  14.579  0.00  0.00    +0.000 C 
ATOM     21  O   UNL     1      50.016   6.882  14.121  0.00  0.00    +0.000 OA
BRANCH  20  22
ATOM     22  C   UNL     1      48.635   6.722  16.012  0.00  0.00    +0.000 A 
ATOM     23  C   UNL     1      48.720   7.699  16.990  0.00  0.00    +0.000 A 
ATOM     24  S   UNL     1      48.671   7.065  18.579  0.00  0.00    +0.000 S 
ATOM     25  C   UNL     1      48.477   5.477  18.000  0.00  0.00    +0.000 A 
ATOM     26  N   UNL     1      48.432   4.415  18.847  0.00  0.00    +0.000 NA
ATOM     27  C   UNL     1      48.255   3.277  18.262  0.00  0.00    +0.000 A 
ATOM     28  N   UNL     1      48.083   3.108  16.910  0.00  0.00    +0.000 N 
ATOM     29  C   UNL     1      48.023   4.166  16.029  0.00  0.00    +0.000 A 
ATOM     30  O   UNL     1      47.614   4.018  14.882  0.00  0.00    +0.000 OA
ATOM     31  C   UNL     1      48.358   5.445  16.624  0.00  0.00    +0.000 A 
ATOM     32  H   UNL     1      47.837   2.206  16.532  0.00  0.00    +0.000 HD
ENDBRANCH  20  22
ENDBRANCH  19  20
ENDBRANCH   1  19
TORSDOF 6
ENDMDL
MODEL 3
REMARK VINA RESULT:    -8.048      1.859      2.415
REMARK INTER + INTRA:         -11.020
REMARK INTER:                 -10.350
REMARK INTRA:                  -0.670
REMARK UNBOUND:                -0.149
REMARK  Name = 
REMARK  8 active torsions:
REMARK  status: ('A' for Active; 'I' for Inactive)
REMARK    1  A    between atoms: C_1  and  C_2
REMARK    2  A    between atoms: C_2  and  N_3
REMARK    3  A    between atoms: C_2  and  C_19
REMARK    4  A    between atoms: N_3  and  C_4
REMARK    5  A    between atoms: C_7  and  C_8
REMARK    6  A    between atoms: C_8  and  N_9
REMARK    7  A    between atoms: N_9  and  C_10
REMARK    8  A    between atoms: C_19  and  C_21
REMARK                            x       y       z     vdW  Elec       q    Type
REMARK                         _______ _______ _______ _____ _____    ______ ____
ROOT
ATOM      1  N   UNL     1      47.335   7.573  14.103  0.00  0.00    +0.000 N 
ATOM      2  H   UNL     1      46.873   7.980  14.921  0.00  0.00    +0.000 HD
ENDROOT
BRANCH   1   3
ATOM      3  C   UNL     1      46.445   6.973  13.218  0.00  0.00    +0.000 A 
ATOM      4  C   UNL     1      46.120   5.633  13.412  0.00  0.00    +0.000 A 
ATOM      5  C   UNL     1      45.172   5.004  12.602  0.00  0.00    +0.000 A 
ATOM      6  C   UNL     1      44.569   5.728  11.575  0.00  0.00    +0.000 A 
ATOM      7  N   UNL     1      44.933   7.005  11.294  0.00  0.00    +0.000 NA
ATOM      8  C   UNL     1      45.860   7.578  12.107  0.00  0.00    +0.000 A 
BRANCH   6   9
ATOM      9  C   UNL     1      43.457   5.102  10.742  0.00  0.00    +0.000 C 
BRANCH   9  10
ATOM     10  N   UNL     1      43.737   3.696  10.429  0.00  0.00    +0.000 N 
ATOM     11  C   UNL     1      43.440   2.702  11.450  0.00  0.00    +0.000 C 
ATOM     12  C   UNL     1      44.641   3.321   9.443  0.00  0.00    +0.000 A 
ATOM     13  C   UNL     1      45.063   4.185   8.447  0.00  0.00    +0.000 A 
ATOM     14  C   UNL     1      45.941   3.692   7.498  0.00  0.00    +0.000 A 
ATOM     15  N   UNL     1      46.396   2.431   7.490  0.00  0.00    +0.000 NA
ATOM     16  C   UNL     1      45.935   1.666   8.478  0.00  0.00    +0.000 A 
ATOM     17  N   UNL     1      45.089   2.043   9.453  0.00  0.00    +0.000 NA
ENDBRANCH   9  10
ENDBRANCH   6   9
ENDBRANCH   1   3
BRANCH   1  19
ATOM     18  C   UNL     1      49.696   7.502  13.533  0.00  0.00    +0.000 C 
ATOM     19  C   UNL     1      48.619   6.927  14.450  0.00  0.00    +0.000 C 
BRANCH  19  20
ATOM     20  C   UNL     1      48.998   7.234  15.915  0.00  0.00    +0.000 C 
ATOM     21  O   UNL     1      48.481   8.194  16.490  0.00  0.00    +0.000 OA
BRANCH  20  22
ATOM     22  C   UNL     1      49.907   6.336  16.645  0.00  0.00    +0.000 A 
ATOM     23  C   UNL     1      51.179   6.687  17.068  0.00  0.00    +0.000 A 
ATOM     24  S   UNL     1      52.091   5.352  17.631  0.00  0.00    +0.000 S 
ATOM     25  C   UNL     1      50.791   4.284  17.378  0.00  0.00    +0.000 A 
ATOM     26  N   UNL     1      50.919   2.950  17.598  0.00  0.00    +0.000 NA
ATOM     27  C   UNL     1      49.839   2.272  17.387  0.00  0.00    +0.000 A 
ATOM     28  N   UNL     1      48.634   2.813  17.010  0.00  0.00    +0.000 N 
ATOM     29  C   UNL     1      48.437   4.170  16.872  0.00  0.00    +0.000 A 
ATOM     30  O   UNL     1      47.310   4.645  16.791  0.00  0.00    +0.000 OA
ATOM     31  C   UNL     1      49.655   4.951  16.961  0.00  0.00    +0.000 A 
ATOM     32  H   UNL     1      47.804   2.241  16.971  0.00  0.00    +0.000 HD
ENDBRANCH  20  22
ENDBRANCH  19  20
ENDBRANCH   1  19
TORSDOF 6
ENDMDL
MODEL 4
REMARK VINA RESULT:    -7.856      2.415      3.193
REMARK INTER + INTRA:         -10.761
REMARK INTER:                 -10.013
REMARK INTRA:                  -0.747
REMARK UNBOUND:                -0.149
REMARK  Name = 
REMARK  8 active torsions:
REMARK  status: ('A' for Active; 'I' for Inactive)
REMARK    1  A    between atoms: C_1  and  C_2
REMARK    2  A    between atoms: C_2  and  N_3
REMARK    3  A    between atoms: C_2  and  C_19
REMARK    4  A    between atoms: N_3  and  C_4
REMARK    5  A    between atoms: C_7  and  C_8
REMARK    6  A    between atoms: C_8  and  N_9
REMARK    7  A    between atoms: N_9  and  C_10
REMARK    8  A    between atoms: C_19  and  C_21
REMARK                            x       y       z     vdW  Elec       q    Type
REMARK                         _______ _______ _______ _____ _____    ______ ____
ROOT
ATOM      1  N   UNL     1      47.581   7.488  13.863  0.00  0.00    +0.000 N 
ATOM      2  H   UNL     1      47.280   7.737  14.809  0.00  0.00    +0.000 HD
ENDROOT
BRANCH   1   3
ATOM      3  C   UNL     1      46.585   6.863  13.120  0.00  0.00    +0.000 A 
ATOM      4  C   UNL     1      46.265   5.542  13.421  0.00  0.00    +0.000 A 
ATOM      5  C   UNL     1      45.219   4.893  12.761  0.00  0.00    +0.000 A 
ATOM      6  C   UNL     1      44.509   5.578  11.776  0.00  0.00    +0.000 A 
ATOM      7  N   UNL     1      44.856   6.831  11.388  0.00  0.00    +0.000 NA
ATOM      8  C   UNL     1      45.881   7.424  12.056  0.00  0.00    +0.000 A 
BRANCH   6   9
ATOM      9  C   UNL     1      43.298   4.934  11.113  0.00  0.00    +0.000 C 
BRANCH   9  10
ATOM     10  N   UNL     1      43.588   3.570  10.654  0.00  0.00    +0.000 N 
ATOM     11  C   UNL     1      43.279   2.472  11.558  0.00  0.00    +0.000 C 
ATOM     12  C   UNL     1      44.509   3.305   9.648  0.00  0.00    +0.000 A 
ATOM     13  C   UNL     1      44.942   4.273   8.757  0.00  0.00    +0.000 A 
ATOM     14  C   UNL     1      45.836   3.887   7.775  0.00  0.00    +0.000 A 
ATOM     15  N   UNL     1      46.296   2.634   7.638  0.00  0.00    +0.000 NA
ATOM     16  C   UNL     1      45.824   1.767   8.531  0.00  0.00    +0.000 A 
ATOM     17  N   UNL     1      44.961   2.035   9.527  0.00  0.00    +0.000 NA
ENDBRANCH   9  10
ENDBRANCH   6   9
ENDBRANCH   1   3
BRANCH   1  19
ATOM     18  C   UNL     1      49.661   7.614  12.611  0.00  0.00    +0.000 C 
ATOM     19  C   UNL     1      48.977   7.000  13.831  0.00  0.00    +0.000 C 
BRANCH  19  20
ATOM     20  C   UNL     1      49.733   7.445  15.101  0.00  0.00    +0.000 C 
ATOM     21  O   UNL     1      50.951   7.631  15.052  0.00  0.00    +0.000 OA
BRANCH  20  22
ATOM     22  C   UNL     1      48.991   7.725  16.341  0.00  0.00    +0.000 A 
ATOM     23  C   UNL     1      48.613   8.991  16.756  0.00  0.00    +0.000 A 
ATOM     24  S   UNL     1      48.022   9.022  18.363  0.00  0.00    +0.000 S 
ATOM     25  C   UNL     1      48.204   7.338  18.523  0.00  0.00    +0.000 A 
ATOM     26  N   UNL     1      47.936   6.705  19.695  0.00  0.00    +0.000 NA
ATOM     27  C   UNL     1      48.096   5.423  19.653  0.00  0.00    +0.000 A 
ATOM     28  N   UNL     1      48.463   4.714  18.537  0.00  0.00    +0.000 N 
ATOM     29  C   UNL     1      48.648   5.305  17.306  0.00  0.00    +0.000 A 
ATOM     30  O   UNL     1      48.719   4.635  16.281  0.00  0.00    +0.000 OA
ATOM     31  C   UNL     1      48.618   6.754  17.341  0.00  0.00    +0.000 A 
ATOM     32  H   UNL     1      48.460   3.705  18.545  0.00  0.00    +0.000 HD
ENDBRANCH  20  22
ENDBRANCH  19  20
ENDBRANCH   1  19
TORSDOF 6
ENDMDL
MODEL 5
REMARK VINA RESULT:    -7.654      2.039      2.560
REMARK INTER + INTRA:         -10.487
REMARK INTER:                  -9.772
REMARK INTRA:                  -0.715
REMARK UNBOUND:                -0.149
REMARK  Name = 
REMARK  8 active torsions:
REMARK  status: ('A' for Active; 'I' for Inactive)
REMARK    1  A    between atoms: C_1  and  C_2
REMARK    2  A    between atoms: C_2  and  N_3
REMARK    3  A    between atoms: C_2  and  C_19
REMARK    4  A    between atoms: N_3  and  C_4
REMARK    5  A    between atoms: C_7  and  C_8
REMARK    6  A    between atoms: C_8  and  N_9
REMARK    7  A    between atoms: N_9  and  C_10
REMARK    8  A    between atoms: C_19  and  C_21
REMARK                            x       y       z     vdW  Elec       q    Type
REMARK                         _______ _______ _______ _____ _____    ______ ____
ROOT
ATOM      1  N   UNL     1      47.328   5.464  14.871  0.00  0.00    +0.000 N 
ATOM      2  H   UNL     1      47.431   6.429  15.197  0.00  0.00    +0.000 HD
ENDROOT
BRANCH   1   3
ATOM      3  C   UNL     1      46.505   5.351  13.755  0.00  0.00    +0.000 A 
ATOM      4  C   UNL     1      46.913   5.951  12.567  0.00  0.00    +0.000 A 
ATOM      5  C   UNL     1      46.165   5.800  11.398  0.00  0.00    +0.000 A 
ATOM      6  C   UNL     1      44.986   5.058  11.436  0.00  0.00    +0.000 A 
ATOM      7  N   UNL     1      44.507   4.542  12.597  0.00  0.00    +0.000 NA
ATOM      8  C   UNL     1      45.266   4.714  13.711  0.00  0.00    +0.000 A 
BRANCH   6   9
ATOM      9  C   UNL     1      44.204   4.788  10.157  0.00  0.00    +0.000 C 
BRANCH   9  10
ATOM     10  N   UNL     1      44.381   3.406   9.692  0.00  0.00    +0.000 N 
ATOM     11  C   UNL     1      43.862   2.338  10.532  0.00  0.00    +0.000 C 
ATOM     12  C   UNL     1      45.360   3.052   8.772  0.00  0.00    +0.000 A 
ATOM     13  C   UNL     1      45.985   3.976   7.953  0.00  0.00    +0.000 A 
ATOM     14  C   UNL     1      46.922   3.505   7.051  0.00  0.00    +0.000 A 
ATOM     15  N   UNL     1      47.247   2.209   6.925  0.00  0.00    +0.000 NA
ATOM     16  C   UNL     1      46.594   1.389   7.745  0.00  0.00    +0.000 A 
ATOM     17  N   UNL     1      45.674   1.740   8.661  0.00  0.00    +0.000 NA
ENDBRANCH   9  10
ENDBRANCH   6   9
ENDBRANCH   1   3
BRANCH   1  19
ATOM     18  C   UNL     1      47.808   3.171  15.516  0.00  0.00    +0.000 C 
ATOM     19  C   UNL     1      47.232   4.503  15.991  0.00  0.00    +0.000 C 
BRANCH  19  20
ATOM     20  C   UNL     1      48.056   4.998  17.198  0.00  0.00    +0.000 C 
ATOM     21  O   UNL     1      47.485   5.556  18.138  0.00  0.00    +0.000 OA
BRANCH  20  22
ATOM     22  C   UNL     1      49.502   4.733  17.265  0.00  0.00    +0.000 A 
ATOM     23  C   UNL     1      50.064   3.608  17.845  0.00  0.00    +0.000 A 
ATOM     24  S   UNL     1      51.763   3.721  18.020  0.00  0.00    +0.000 S 
ATOM     25  C   UNL     1      51.796   5.249  17.273  0.00  0.00    +0.000 A 
ATOM     26  N   UNL     1      52.951   5.955  17.157  0.00  0.00    +0.000 NA
ATOM     27  C   UNL     1      52.821   7.086  16.544  0.00  0.00    +0.000 A 
ATOM     28  N   UNL     1      51.649   7.557  16.007  0.00  0.00    +0.000 N 
ATOM     29  C   UNL     1      50.479   6.829  16.016  0.00  0.00    +0.000 A 
ATOM     30  O   UNL     1      49.525   7.146  15.314  0.00  0.00    +0.000 OA
ATOM     31  C   UNL     1      50.546   5.621  16.816  0.00  0.00    +0.000 A 
ATOM     32  H   UNL     1      51.642   8.394  15.444  0.00  0.00    +0.000 HD
ENDBRANCH  20  22
ENDBRANCH  19  20
ENDBRANCH   1  19
TORSDOF 6
ENDMDL
MODEL 6
REMARK VINA RESULT:    -7.461      4.254      8.701
REMARK INTER + INTRA:         -10.227
REMARK INTER:                  -8.779
REMARK INTRA:                  -1.447
REMARK UNBOUND:                -0.149
REMARK  Name = 
REMARK  8 active torsions:
REMARK  status: ('A' for Active; 'I' for Inactive)
REMARK    1  A    between atoms: C_1  and  C_2
REMARK    2  A    between atoms: C_2  and  N_3
REMARK    3  A    between atoms: C_2  and  C_19
REMARK    4  A    between atoms: N_3  and  C_4
REMARK    5  A    between atoms: C_7  and  C_8
REMARK    6  A    between atoms: C_8  and  N_9
REMARK    7  A    between atoms: N_9  and  C_10
REMARK    8  A    between atoms: C_19  and  C_21
REMARK                            x       y       z     vdW  Elec       q    Type
REMARK                         _______ _______ _______ _____ _____    ______ ____
ROOT
ATOM      1  N   UNL     1      49.245   9.213  14.162  0.00  0.00    +0.000 N 
ATOM      2  H   UNL     1      50.087   9.359  13.598  0.00  0.00    +0.000 HD
ENDROOT
BRANCH   1   3
ATOM      3  C   UNL     1      49.414   8.254  15.155  0.00  0.00    +0.000 A 
ATOM      4  C   UNL     1      48.573   8.295  16.265  0.00  0.00    +0.000 A 
ATOM      5  C   UNL     1      48.646   7.310  17.252  0.00  0.00    +0.000 A 
ATOM      6  C   UNL     1      49.589   6.291  17.127  0.00  0.00    +0.000 A 
ATOM      7  N   UNL     1      50.488   6.273  16.110  0.00  0.00    +0.000 NA
ATOM      8  C   UNL     1      50.383   7.252  15.173  0.00  0.00    +0.000 A 
BRANCH   6   9
ATOM      9  C   UNL     1      49.622   5.145  18.131  0.00  0.00    +0.000 C 
BRANCH   9  10
ATOM     10  N   UNL     1      49.758   3.843  17.466  0.00  0.00    +0.000 N 
ATOM     11  C   UNL     1      48.544   3.194  16.994  0.00  0.00    +0.000 C 
ATOM     12  C   UNL     1      50.865   3.026  17.653  0.00  0.00    +0.000 A 
ATOM     13  C   UNL     1      52.066   3.498  18.156  0.00  0.00    +0.000 A 
ATOM     14  C   UNL     1      53.112   2.600  18.268  0.00  0.00    +0.000 A 
ATOM     15  N   UNL     1      53.027   1.310  17.912  0.00  0.00    +0.000 NA
ATOM     16  C   UNL     1      51.840   0.942  17.433  0.00  0.00    +0.000 A 
ATOM     17  N   UNL     1      50.758   1.727  17.288  0.00  0.00    +0.000 NA
ENDBRANCH   9  10
ENDBRANCH   6   9
ENDBRANCH   1   3
BRANCH   1  19
ATOM     18  C   UNL     1      48.100  10.479  12.432  0.00  0.00    +0.000 C 
ATOM     19  C   UNL     1      48.012   9.259  13.347  0.00  0.00    +0.000 C 
BRANCH  19  20
ATOM     20  C   UNL     1      47.894   7.991  12.475  0.00  0.00    +0.000 C 
ATOM     21  O   UNL     1      48.651   7.840  11.514  0.00  0.00    +0.000 OA
BRANCH  20  22
ATOM     22  C   UNL     1      46.940   6.932  12.838  0.00  0.00    +0.000 A 
ATOM     23  C   UNL     1      47.250   5.838  13.629  0.00  0.00    +0.000 A 
ATOM     24  S   UNL     1      46.022   4.645  13.636  0.00  0.00    +0.000 S 
ATOM     25  C   UNL     1      45.022   5.586  12.632  0.00  0.00    +0.000 A 
ATOM     26  N   UNL     1      43.825   5.121  12.190  0.00  0.00    +0.000 NA
ATOM     27  C   UNL     1      43.169   5.960  11.457  0.00  0.00    +0.000 A 
ATOM     28  N   UNL     1      43.585   7.233  11.157  0.00  0.00    +0.000 N 
ATOM     29  C   UNL     1      44.744   7.777  11.667  0.00  0.00    +0.000 A 
ATOM     30  O   UNL     1      44.966   8.982  11.602  0.00  0.00    +0.000 OA
ATOM     31  C   UNL     1      45.578   6.825  12.374  0.00  0.00    +0.000 A 
ATOM     32  H   UNL     1      42.974   7.874  10.675  0.00  0.00    +0.000 HD
ENDBRANCH  20  22
ENDBRANCH  19  20
ENDBRANCH   1  19
TORSDOF 6
ENDMDL
MODEL 7
REMARK VINA RESULT:    -7.438      2.047      2.671
REMARK INTER + INTRA:         -10.195
REMARK INTER:                  -9.609
REMARK INTRA:                  -0.586
REMARK UNBOUND:                -0.149
REMARK  Name = 
REMARK  8 active torsions:
REMARK  status: ('A' for Active; 'I' for Inactive)
REMARK    1  A    between atoms: C_1  and  C_2
REMARK    2  A    between atoms: C_2  and  N_3
REMARK    3  A    between atoms: C_2  and  C_19
REMARK    4  A    between atoms: N_3  and  C_4
REMARK    5  A    between atoms: C_7  and  C_8
REMARK    6  A    between atoms: C_8  and  N_9
REMARK    7  A    between atoms: N_9  and  C_10
REMARK    8  A    between atoms: C_19  and  C_21
REMARK                            x       y       z     vdW  Elec       q    Type
REMARK                         _______ _______ _______ _____ _____    ______ ____
ROOT
ATOM      1  N   UNL     1      47.964   5.486  14.936  0.00  0.00    +0.000 N 
ATOM      2  H   UNL     1      48.538   6.332  14.883  0.00  0.00    +0.000 HD
ENDROOT
BRANCH   1   3
ATOM      3  C   UNL     1      46.968   5.441  13.966  0.00  0.00    +0.000 A 
ATOM      4  C   UNL     1      47.120   6.223  12.824  0.00  0.00    +0.000 A 
ATOM      5  C   UNL     1      46.191   6.154  11.784  0.00  0.00    +0.000 A 
ATOM      6  C   UNL     1      45.092   5.308  11.910  0.00  0.00    +0.000 A 
ATOM      7  N   UNL     1      44.860   4.606  13.048  0.00  0.00    +0.000 NA
ATOM      8  C   UNL     1      45.788   4.703  14.036  0.00  0.00    +0.000 A 
BRANCH   6   9
ATOM      9  C   UNL     1      44.118   5.132  10.751  0.00  0.00    +0.000 C 
BRANCH   9  10
ATOM     10  N   UNL     1      44.130   3.758  10.234  0.00  0.00    +0.000 N 
ATOM     11  C   UNL     1      43.542   2.717  11.065  0.00  0.00    +0.000 C 
ATOM     12  C   UNL     1      45.022   3.340   9.255  0.00  0.00    +0.000 A 
ATOM     13  C   UNL     1      45.702   4.225   8.435  0.00  0.00    +0.000 A 
ATOM     14  C   UNL     1      46.541   3.694   7.473  0.00  0.00    +0.000 A 
ATOM     15  N   UNL     1      46.725   2.378   7.290  0.00  0.00    +0.000 NA
ATOM     16  C   UNL     1      46.029   1.598   8.115  0.00  0.00    +0.000 A 
ATOM     17  N   UNL     1      45.194   2.008   9.087  0.00  0.00    +0.000 NA
ENDBRANCH   9  10
ENDBRANCH   6   9
ENDBRANCH   1   3
BRANCH   1  19
ATOM     18  C   UNL     1      48.050   3.608  16.476  0.00  0.00    +0.000 C 
ATOM     19  C   UNL     1      47.688   5.084  16.333  0.00  0.00    +0.000 C 
BRANCH  19  20
ATOM     20  C   UNL     1      48.554   5.906  17.311  0.00  0.00    +0.000 C 
ATOM     21  O   UNL     1      49.332   6.755  16.871  0.00  0.00    +0.000 OA
BRANCH  20  22
ATOM     22  C   UNL     1      48.391   5.734  18.764  0.00  0.00    +0.000 A 
ATOM     23  C   UNL     1      47.248   6.073  19.467  0.00  0.00    +0.000 A 
ATOM     24  S   UNL     1      47.465   6.024  21.165  0.00  0.00    +0.000 S 
ATOM     25  C   UNL     1      49.073   5.493  21.001  0.00  0.00    +0.000 A 
ATOM     26  N   UNL     1      49.872   5.313  22.085  0.00  0.00    +0.000 NA
ATOM     27  C   UNL     1      51.058   4.882  21.803  0.00  0.00    +0.000 A 
ATOM     28  N   UNL     1      51.504   4.582  20.540  0.00  0.00    +0.000 N 
ATOM     29  C   UNL     1      50.695   4.656  19.426  0.00  0.00    +0.000 A 
ATOM     30  O   UNL     1      51.025   4.143  18.363  0.00  0.00    +0.000 OA
ATOM     31  C   UNL     1      49.405   5.268  19.679  0.00  0.00    +0.000 A 
ATOM     32  H   UNL     1      52.402   4.144  20.402  0.00  0.00    +0.000 HD
ENDBRANCH  20  22
ENDBRANCH  19  20
ENDBRANCH   1  19
TORSDOF 6
ENDMDL
MODEL 8
REMARK VINA RESULT:    -7.356      2.738      4.023
REMARK INTER + INTRA:         -10.085
REMARK INTER:                  -9.678
REMARK INTRA:                  -0.407
REMARK UNBOUND:                -0.149
REMARK  Name = 
REMARK  8 active torsions:
REMARK  status: ('A' for Active; 'I' for Inactive)
REMARK    1  A    between atoms: C_1  and  C_2
REMARK    2  A    between atoms: C_2  and  N_3
REMARK    3  A    between atoms: C_2  and  C_19
REMARK    4  A    between atoms: N_3  and  C_4
REMARK    5  A    between atoms: C_7  and  C_8
REMARK    6  A    between atoms: C_8  and  N_9
REMARK    7  A    between atoms: N_9  and  C_10
REMARK    8  A    between atoms: C_19  and  C_21
REMARK                            x       y       z     vdW  Elec       q    Type
REMARK                         _______ _______ _______ _____ _____    ______ ____
ROOT
ATOM      1  N   UNL     1      48.030   5.723  14.861  0.00  0.00    +0.000 N 
ATOM      2  H   UNL     1      48.532   6.611  14.786  0.00  0.00    +0.000 HD
ENDROOT
BRANCH   1   3
ATOM      3  C   UNL     1      46.968   5.620  13.968  0.00  0.00    +0.000 A 
ATOM      4  C   UNL     1      46.877   6.552  12.937  0.00  0.00    +0.000 A 
ATOM      5  C   UNL     1      45.878   6.447  11.967  0.00  0.00    +0.000 A 
ATOM      6  C   UNL     1      44.954   5.407  12.053  0.00  0.00    +0.000 A 
ATOM      7  N   UNL     1      44.953   4.539  13.097  0.00  0.00    +0.000 NA
ATOM      8  C   UNL     1      45.941   4.679  14.019  0.00  0.00    +0.000 A 
BRANCH   6   9
ATOM      9  C   UNL     1      43.919   5.204  10.954  0.00  0.00    +0.000 C 
BRANCH   9  10
ATOM     10  N   UNL     1      43.940   3.832  10.432  0.00  0.00    +0.000 N 
ATOM     11  C   UNL     1      43.370   2.783  11.264  0.00  0.00    +0.000 C 
ATOM     12  C   UNL     1      44.829   3.426   9.445  0.00  0.00    +0.000 A 
ATOM     13  C   UNL     1      45.493   4.321   8.623  0.00  0.00    +0.000 A 
ATOM     14  C   UNL     1      46.331   3.802   7.653  0.00  0.00    +0.000 A 
ATOM     15  N   UNL     1      46.526   2.489   7.464  0.00  0.00    +0.000 NA
ATOM     16  C   UNL     1      45.845   1.699   8.292  0.00  0.00    +0.000 A 
ATOM     17  N   UNL     1      45.013   2.097   9.271  0.00  0.00    +0.000 NA
ENDBRANCH   9  10
ENDBRANCH   6   9
ENDBRANCH   1   3
BRANCH   1  19
ATOM     18  C   UNL     1      47.817   3.749  16.263  0.00  0.00    +0.000 C 
ATOM     19  C   UNL     1      47.893   5.274  16.264  0.00  0.00    +0.000 C 
BRANCH  19  20
ATOM     20  C   UNL     1      49.121   5.711  17.091  0.00  0.00    +0.000 C 
ATOM     21  O   UNL     1      50.226   5.222  16.847  0.00  0.00    +0.000 OA
BRANCH  20  22
ATOM     22  C   UNL     1      48.988   6.765  18.109  0.00  0.00    +0.000 A 
ATOM     23  C   UNL     1      49.090   6.552  19.473  0.00  0.00    +0.000 A 
ATOM     24  S   UNL     1      48.609   7.906  20.403  0.00  0.00    +0.000 S 
ATOM     25  C   UNL     1      48.307   8.829  19.007  0.00  0.00    +0.000 A 
ATOM     26  N   UNL     1      47.801  10.088  19.086  0.00  0.00    +0.000 NA
ATOM     27  C   UNL     1      47.651  10.671  17.943  0.00  0.00    +0.000 A 
ATOM     28  N   UNL     1      47.994  10.125  16.731  0.00  0.00    +0.000 N 
ATOM     29  C   UNL     1      48.601   8.893  16.615  0.00  0.00    +0.000 A 
ATOM     30  O   UNL     1      49.130   8.539  15.567  0.00  0.00    +0.000 OA
ATOM     31  C   UNL     1      48.657   8.147  17.857  0.00  0.00    +0.000 A 
ATOM     32  H   UNL     1      47.955  10.677  15.889  0.00  0.00    +0.000 HD
ENDBRANCH  20  22
ENDBRANCH  19  20
ENDBRANCH   1  19
TORSDOF 6
ENDMDL
MODEL 9
REMARK VINA RESULT:    -7.287      2.626      4.069
REMARK INTER + INTRA:          -9.991
REMARK INTER:                  -8.606
REMARK INTRA:                  -1.385
REMARK UNBOUND:                -0.149
REMARK  Name = 
REMARK  8 active torsions:
REMARK  status: ('A' for Active; 'I' for Inactive)
REMARK    1  A    between atoms: C_1  and  C_2
REMARK    2  A    between atoms: C_2  and  N_3
REMARK    3  A    between atoms: C_2  and  C_19
REMARK    4  A    between atoms: N_3  and  C_4
REMARK    5  A    between atoms: C_7  and  C_8
REMARK    6  A    between atoms: C_8  and  N_9
REMARK    7  A    between atoms: N_9  and  C_10
REMARK    8  A    between atoms: C_19  and  C_21
REMARK                            x       y       z     vdW  Elec       q    Type
REMARK                         _______ _______ _______ _____ _____    ______ ____
ROOT
ATOM      1  N   UNL     1      49.586   8.268  14.990  0.00  0.00    +0.000 N 
ATOM      2  H   UNL     1      49.261   8.528  15.925  0.00  0.00    +0.000 HD
ENDROOT
BRANCH   1   3
ATOM      3  C   UNL     1      48.549   7.923  14.129  0.00  0.00    +0.000 A 
ATOM      4  C   UNL     1      47.411   8.726  14.108  0.00  0.00    +0.000 A 
ATOM      5  C   UNL     1      46.376   8.471  13.206  0.00  0.00    +0.000 A 
ATOM      6  C   UNL     1      46.483   7.387  12.337  0.00  0.00    +0.000 A 
ATOM      7  N   UNL     1      47.531   6.527  12.396  0.00  0.00    +0.000 NA
ATOM      8  C   UNL     1      48.515   6.811  13.290  0.00  0.00    +0.000 A 
BRANCH   6   9
ATOM      9  C   UNL     1      45.420   7.146  11.272  0.00  0.00    +0.000 C 
BRANCH   9  10
ATOM     10  N   UNL     1      44.772   5.839  11.436  0.00  0.00    +0.000 N 
ATOM     11  C   UNL     1      44.332   5.464  12.771  0.00  0.00    +0.000 C 
ATOM     12  C   UNL     1      44.949   4.803  10.528  0.00  0.00    +0.000 A 
ATOM     13  C   UNL     1      45.423   5.008   9.242  0.00  0.00    +0.000 A 
ATOM     14  C   UNL     1      45.528   3.906   8.413  0.00  0.00    +0.000 A 
ATOM     15  N   UNL     1      45.192   2.662   8.784  0.00  0.00    +0.000 NA
ATOM     16  C   UNL     1      44.740   2.555  10.032  0.00  0.00    +0.000 A 
ATOM     17  N   UNL     1      44.605   3.555  10.921  0.00  0.00    +0.000 NA
ENDBRANCH   9  10
ENDBRANCH   6   9
ENDBRANCH   1   3
BRANCH   1  19
ATOM     18  C   UNL     1      51.941   8.320  14.393  0.00  0.00    +0.000 C 
ATOM     19  C   UNL     1      50.837   7.481  15.032  0.00  0.00    +0.000 C 
BRANCH  19  20
ATOM     20  C   UNL     1      51.230   7.169  16.492  0.00  0.00    +0.000 C 
ATOM     21  O   UNL     1      51.710   8.060  17.197  0.00  0.00    +0.000 OA
BRANCH  20  22
ATOM     22  C   UNL     1      50.956   5.841  17.062  0.00  0.00    +0.000 A 
ATOM     23  C   UNL     1      51.926   4.889  17.325  0.00  0.00    +0.000 A 
ATOM     24  S   UNL     1      51.273   3.355  17.714  0.00  0.00    +0.000 S 
ATOM     25  C   UNL     1      49.680   3.940  17.598  0.00  0.00    +0.000 A 
ATOM     26  N   UNL     1      48.611   3.116  17.752  0.00  0.00    +0.000 NA
ATOM     27  C   UNL     1      47.467   3.711  17.661  0.00  0.00    +0.000 A 
ATOM     28  N   UNL     1      47.296   5.059  17.467  0.00  0.00    +0.000 N 
ATOM     29  C   UNL     1      48.353   5.943  17.405  0.00  0.00    +0.000 A 
ATOM     30  O   UNL     1      48.177   7.153  17.492  0.00  0.00    +0.000 OA
ATOM     31  C   UNL     1      49.652   5.301  17.359  0.00  0.00    +0.000 A 
ATOM     32  H   UNL     1      46.379   5.474  17.519  0.00  0.00    +0.000 HD
ENDBRANCH  20  22
ENDBRANCH  19  20
ENDBRANCH   1  19
TORSDOF 6
ENDMDL
