MODEL 1
REMARK VINA RESULT:    -7.897      0.000      0.000
REMARK INTER + INTRA:         -11.548
REMARK INTER:                 -10.436
REMARK INTRA:                  -1.113
REMARK UNBOUND:                -1.113
REMARK  Name = 
REMARK  9 active torsions:
REMARK  status: ('A' for Active; 'I' for Inactive)
REMARK    1  A    between atoms: C_1  and  C_2
REMARK    2  A    between atoms: N_4  and  C_5
REMARK    3  A    between atoms: C_9  and  C_10
REMARK    4  A    between atoms: C_10  and  C_11
REMARK    5  A    between atoms: C_10  and  C_12
REMARK    6  A    between atoms: C_12  and  N_13
REMARK    7  A    between atoms: CA_17  and  C_18
REMARK    8  A    between atoms: C_18  and  OXT_20
REMARK    9  A    between atoms: C_25  and  C_26
REMARK                            x       y       z     vdW  Elec       q    Type
REMARK                         _______ _______ _______ _____ _____    ______ ____
ROOT
ATOM      1  C   UNL     1      43.382   4.668  12.316  0.00  0.00    +0.000 C 
ATOM      2  C   UNL     1      42.694   6.041  12.367  0.00  0.00    +0.000 C 
ENDROOT
BRANCH   1   7
ATOM      3  C   UNL     1      46.701   6.349  13.402  0.00  0.00    +0.000 A 
ATOM      4  C   UNL     1      47.441   5.201  13.713  0.00  0.00    +0.000 A 
ATOM      5  C   UNL     1      46.918   3.916  13.532  0.00  0.00    +0.000 A 
ATOM      6  C   UNL     1      45.624   3.749  13.048  0.00  0.00    +0.000 A 
ATOM      7  C   UNL     1      44.843   4.862  12.722  0.00  0.00    +0.000 A 
ATOM      8  C   UNL     1      45.411   6.143  12.891  0.00  0.00    +0.000 A 
BRANCH   3  12
ATOM      9  C   UNL     1      49.562   7.760  11.419  0.00  0.00    +0.000 C 
ATOM     10  C   UNL     1      49.313   8.626  12.653  0.00  0.00    +0.000 C 
ATOM     11  C   UNL     1      48.664   7.858  13.825  0.00  0.00    +0.000 C 
ATOM     12  N   UNL     1      47.234   7.610  13.589  0.00  0.00    +0.000 N 
ATOM     13  C   UNL     1      46.477   8.815  13.201  0.00  0.00    +0.000 C 
ATOM     14  C   UNL     1      47.181   9.532  12.026  0.00  0.00    +0.000 C 
ATOM     15  C   UNL     1      46.503  10.862  11.720  0.00  0.00    +0.000 C 
ATOM     16  O   UNL     1      48.565   9.811  12.316  0.00  0.00    +0.000 OA
ENDBRANCH   3  12
ENDBRANCH   1   7
BRANCH   1  17
ATOM     17  C   UNL     1      43.209   3.979  10.938  0.00  0.00    +0.000 C 
BRANCH  17  18
ATOM     18  N   UNL     1      43.974   4.648   9.872  0.00  0.00    +0.000 N 
ATOM     19  C   UNL     1      44.797   3.761   9.142  0.00  0.00    +0.000 A 
ATOM     20  C   UNL     1      45.651   4.264   8.149  0.00  0.00    +0.000 A 
ATOM     21  N   UNL     1      46.512   3.505   7.416  0.00  0.00    +0.000 NA
ATOM     22  CA  UNL     1      46.457   2.174   7.711  0.00  0.00    +0.000 A 
ATOM     23  C   UNL     1      45.602   1.649   8.661  0.00  0.00    +0.000 A 
ATOM     24  N   UNL     1      44.764   2.431   9.387  0.00  0.00    +0.000 NA
ATOM     25  H   UNL     1      44.573   5.380  10.245  0.00  0.00    +0.000 HD
BRANCH  22  26
ATOM     26  C   UNL     1      47.390   1.290   6.973  0.00  0.00    +0.000 C 
ATOM     27  O   UNL     1      48.334   1.681   6.309  0.00  0.00    +0.000 OA
BRANCH  26  28
ATOM     28  OXT UNL     1      47.041  -0.010   7.124  0.00  0.00    +0.000 OA
ATOM     29  HXT UNL     1      46.058  -0.089   7.099  0.00  0.00    +0.000 HD
ENDBRANCH  26  28
ENDBRANCH  22  26
ENDBRANCH  17  18
ENDBRANCH   1  17
TORSDOF 6
ENDMDL
MODEL 2
REMARK VINA RESULT:    -7.380      1.285      2.356
REMARK INTER + INTRA:         -10.866
REMARK INTER:                 -10.302
REMARK INTRA:                  -0.564
REMARK UNBOUND:                -1.113
REMARK  Name = 
REMARK  9 active torsions:
REMARK  status: ('A' for Active; 'I' for Inactive)
REMARK    1  A    between atoms: C_1  and  C_2
REMARK    2  A    between atoms: N_4  and  C_5
REMARK    3  A    between atoms: C_9  and  C_10
REMARK    4  A    between atoms: C_10  and  C_11
REMARK    5  A    between atoms: C_10  and  C_12
REMARK    6  A    between atoms: C_12  and  N_13
REMARK    7  A    between atoms: CA_17  and  C_18
REMARK    8  A    between atoms: C_18  and  OXT_20
REMARK    9  A    between atoms: C_25  and  C_26
REMARK                            x       y       z     vdW  Elec       q    Type
REMARK                         _______ _______ _______ _____ _____    ______ ____
ROOT
ATOM      1  C   UNL     1      44.191   4.733  12.104  0.00  0.00    +0.000 C 
ATOM      2  C   UNL     1      43.227   4.677  13.299  0.00  0.00    +0.000 C 
ENDROOT
BRANCH   1   7
ATOM      3  C   UNL     1      47.246   7.082  12.524  0.00  0.00    +0.000 A 
ATOM      4  C   UNL     1      46.624   8.307  12.246  0.00  0.00    +0.000 A 
ATOM      5  C   UNL     1      45.254   8.395  11.983  0.00  0.00    +0.000 A 
ATOM      6  C   UNL     1      44.467   7.246  11.975  0.00  0.00    +0.000 A 
ATOM      7  C   UNL     1      45.037   5.999  12.245  0.00  0.00    +0.000 A 
ATOM      8  C   UNL     1      46.418   5.948  12.533  0.00  0.00    +0.000 A 
BRANCH   3  12
ATOM      9  C   UNL     1      49.692   9.818  11.731  0.00  0.00    +0.000 C 
ATOM     10  C   UNL     1      50.446   8.528  12.047  0.00  0.00    +0.000 C 
ATOM     11  C   UNL     1      49.631   7.249  11.756  0.00  0.00    +0.000 C 
ATOM     12  N   UNL     1      48.602   7.014  12.780  0.00  0.00    +0.000 N 
ATOM     13  C   UNL     1      49.113   7.068  14.161  0.00  0.00    +0.000 C 
ATOM     14  C   UNL     1      49.917   8.371  14.382  0.00  0.00    +0.000 C 
ATOM     15  C   UNL     1      50.587   8.367  15.751  0.00  0.00    +0.000 C 
ATOM     16  O   UNL     1      50.954   8.538  13.396  0.00  0.00    +0.000 OA
ENDBRANCH   3  12
ENDBRANCH   1   7
BRANCH   1  17
ATOM     17  C   UNL     1      43.447   4.633  10.748  0.00  0.00    +0.000 C 
BRANCH  17  18
ATOM     18  N   UNL     1      44.275   5.082   9.616  0.00  0.00    +0.000 N 
ATOM     19  C   UNL     1      44.987   4.030   8.999  0.00  0.00    +0.000 A 
ATOM     20  C   UNL     1      45.885   4.313   7.959  0.00  0.00    +0.000 A 
ATOM     21  N   UNL     1      46.648   3.382   7.324  0.00  0.00    +0.000 NA
ATOM     22  CA  UNL     1      46.446   2.109   7.771  0.00  0.00    +0.000 A 
ATOM     23  C   UNL     1      45.544   1.799   8.772  0.00  0.00    +0.000 A 
ATOM     24  N   UNL     1      44.805   2.749   9.397  0.00  0.00    +0.000 NA
ATOM     25  H   UNL     1      44.955   5.781   9.904  0.00  0.00    +0.000 HD
BRANCH  22  26
ATOM     26  C   UNL     1      47.268   1.046   7.148  0.00  0.00    +0.000 C 
ATOM     27  O   UNL     1      48.121   1.239   6.300  0.00  0.00    +0.000 OA
BRANCH  26  28
ATOM     28  OXT UNL     1      46.929  -0.171   7.636  0.00  0.00    +0.000 OA
ATOM     29  HXT UNL     1      46.523  -0.711   6.917  0.00  0.00    +0.000 HD
ENDBRANCH  26  28
ENDBRANCH  22  26
ENDBRANCH  17  18
ENDBRANCH   1  17
TORSDOF 6
ENDMDL
MODEL 3
REMARK VINA RESULT:    -7.319      2.031      2.885
REMARK INTER + INTRA:         -10.785
REMARK INTER:                 -10.046
REMARK INTRA:                  -0.739
REMARK UNBOUND:                -1.113
REMARK  Name = 
REMARK  9 active torsions:
REMARK  status: ('A' for Active; 'I' for Inactive)
REMARK    1  A    between atoms: C_1  and  C_2
REMARK    2  A    between atoms: N_4  and  C_5
REMARK    3  A    between atoms: C_9  and  C_10
REMARK    4  A    between atoms: C_10  and  C_11
REMARK    5  A    between atoms: C_10  and  C_12
REMARK    6  A    between atoms: C_12  and  N_13
REMARK    7  A    between atoms: CA_17  and  C_18
REMARK    8  A    between atoms: C_18  and  OXT_20
REMARK    9  A    between atoms: C_25  and  C_26
REMARK                            x       y       z     vdW  Elec       q    Type
REMARK                         _______ _______ _______ _____ _____    ______ ____
ROOT
ATOM      1  C   UNL     1      44.079   4.801  12.105  0.00  0.00    +0.000 C 
ATOM      2  C   UNL     1      43.022   5.074  13.185  0.00  0.00    +0.000 C 
ENDROOT
BRANCH   1   7
ATOM      3  C   UNL     1      45.164   8.506  11.761  0.00  0.00    +0.000 A 
ATOM      4  C   UNL     1      46.536   8.361  12.008  0.00  0.00    +0.000 A 
ATOM      5  C   UNL     1      47.116   7.107  12.226  0.00  0.00    +0.000 A 
ATOM      6  C   UNL     1      46.328   5.960  12.220  0.00  0.00    +0.000 A 
ATOM      7  C   UNL     1      44.953   6.050  11.980  0.00  0.00    +0.000 A 
ATOM      8  C   UNL     1      44.404   7.327  11.736  0.00  0.00    +0.000 A 
BRANCH   3  12
ATOM      9  C   UNL     1      46.965  11.388  10.161  0.00  0.00    +0.000 C 
ATOM     10  C   UNL     1      45.688  11.887  10.835  0.00  0.00    +0.000 C 
ATOM     11  C   UNL     1      45.226  11.004  12.015  0.00  0.00    +0.000 C 
ATOM     12  N   UNL     1      44.609   9.754  11.550  0.00  0.00    +0.000 N 
ATOM     13  C   UNL     1      43.559   9.950  10.533  0.00  0.00    +0.000 C 
ATOM     14  C   UNL     1      44.089  10.841   9.385  0.00  0.00    +0.000 C 
ATOM     15  C   UNL     1      42.970  11.187   8.410  0.00  0.00    +0.000 C 
ATOM     16  O   UNL     1      44.633  12.082   9.873  0.00  0.00    +0.000 OA
ENDBRANCH   3  12
ENDBRANCH   1   7
BRANCH   1  17
ATOM     17  C   UNL     1      43.443   4.354  10.764  0.00  0.00    +0.000 C 
BRANCH  17  18
ATOM     18  N   UNL     1      44.166   4.880   9.593  0.00  0.00    +0.000 N 
ATOM     19  C   UNL     1      44.935   3.898   8.930  0.00  0.00    +0.000 A 
ATOM     20  C   UNL     1      45.747   4.265   7.846  0.00  0.00    +0.000 A 
ATOM     21  N   UNL     1      46.555   3.409   7.163  0.00  0.00    +0.000 NA
ATOM     22  CA  UNL     1      46.491   2.121   7.609  0.00  0.00    +0.000 A 
ATOM     23  C   UNL     1      45.676   1.727   8.653  0.00  0.00    +0.000 A 
ATOM     24  N   UNL     1      44.890   2.605   9.326  0.00  0.00    +0.000 NA
ATOM     25  H   UNL     1      44.796   5.635   9.851  0.00  0.00    +0.000 HD
BRANCH  22  26
ATOM     26  C   UNL     1      47.370   1.138   6.933  0.00  0.00    +0.000 C 
ATOM     27  O   UNL     1      48.287   1.430   6.185  0.00  0.00    +0.000 OA
BRANCH  26  28
ATOM     28  OXT UNL     1      47.005  -0.128   7.246  0.00  0.00    +0.000 OA
ATOM     29  HXT UNL     1      46.648  -0.147   8.166  0.00  0.00    +0.000 HD
ENDBRANCH  26  28
ENDBRANCH  22  26
ENDBRANCH  17  18
ENDBRANCH   1  17
TORSDOF 6
ENDMDL
MODEL 4
REMARK VINA RESULT:    -7.120      1.557      2.570
REMARK INTER + INTRA:         -10.522
REMARK INTER:                  -9.687
REMARK INTRA:                  -0.835
REMARK UNBOUND:                -1.113
REMARK  Name = 
REMARK  9 active torsions:
REMARK  status: ('A' for Active; 'I' for Inactive)
REMARK    1  A    between atoms: C_1  and  C_2
REMARK    2  A    between atoms: N_4  and  C_5
REMARK    3  A    between atoms: C_9  and  C_10
REMARK    4  A    between atoms: C_10  and  C_11
REMARK    5  A    between atoms: C_10  and  C_12
REMARK    6  A    between atoms: C_12  and  N_13
REMARK    7  A    between atoms: CA_17  and  C_18
REMARK    8  A    between atoms: C_18  and  OXT_20
REMARK    9  A    between atoms: C_25  and  C_26
REMARK                            x       y       z     vdW  Elec       q    Type
REMARK                         _______ _______ _______ _____ _____    ______ ____
ROOT
ATOM      1  C   UNL     1      44.080   5.283  11.924  0.00  0.00    +0.000 C 
ATOM      2  C   UNL     1      43.046   5.030  13.032  0.00  0.00    +0.000 C 
ENDROOT
BRANCH   1   7
ATOM      3  C   UNL     1      45.892   8.669  12.448  0.00  0.00    +0.000 A 
ATOM      4  C   UNL     1      45.080   9.483  11.647  0.00  0.00    +0.000 A 
ATOM      5  C   UNL     1      43.948   8.981  10.996  0.00  0.00    +0.000 A 
ATOM      6  C   UNL     1      43.609   7.637  11.118  0.00  0.00    +0.000 A 
ATOM      7  C   UNL     1      44.387   6.781  11.904  0.00  0.00    +0.000 A 
ATOM      8  C   UNL     1      45.506   7.325  12.569  0.00  0.00    +0.000 A 
BRANCH   3  12
ATOM      9  C   UNL     1      49.269   7.024  12.461  0.00  0.00    +0.000 C 
ATOM     10  C   UNL     1      49.228   8.129  13.515  0.00  0.00    +0.000 C 
ATOM     11  C   UNL     1      47.810   8.422  14.050  0.00  0.00    +0.000 C 
ATOM     12  N   UNL     1      47.008   9.182  13.081  0.00  0.00    +0.000 N 
ATOM     13  C   UNL     1      47.685  10.384  12.560  0.00  0.00    +0.000 C 
ATOM     14  C   UNL     1      49.097  10.019  12.042  0.00  0.00    +0.000 C 
ATOM     15  C   UNL     1      49.870  11.272  11.652  0.00  0.00    +0.000 C 
ATOM     16  O   UNL     1      49.873   9.327  13.039  0.00  0.00    +0.000 OA
ENDBRANCH   3  12
ENDBRANCH   1   7
BRANCH   1  17
ATOM     17  C   UNL     1      43.615   4.728  10.553  0.00  0.00    +0.000 C 
BRANCH  17  18
ATOM     18  N   UNL     1      43.981   3.315  10.362  0.00  0.00    +0.000 N 
ATOM     19  C   UNL     1      44.918   3.120   9.323  0.00  0.00    +0.000 A 
ATOM     20  C   UNL     1      45.300   1.819   8.965  0.00  0.00    +0.000 A 
ATOM     21  N   UNL     1      46.163   1.519   7.956  0.00  0.00    +0.000 NA
ATOM     22  CA  UNL     1      46.664   2.616   7.318  0.00  0.00    +0.000 A 
ATOM     23  C   UNL     1      46.329   3.909   7.671  0.00  0.00    +0.000 A 
ATOM     24  N   UNL     1      45.455   4.179   8.674  0.00  0.00    +0.000 NA
ATOM     25  H   UNL     1      43.168   2.743  10.148  0.00  0.00    +0.000 HD
BRANCH  22  26
ATOM     26  C   UNL     1      47.586   2.364   6.185  0.00  0.00    +0.000 C 
ATOM     27  O   UNL     1      48.440   1.496   6.169  0.00  0.00    +0.000 OA
BRANCH  26  28
ATOM     28  OXT UNL     1      47.361   3.241   5.179  0.00  0.00    +0.000 OA
ATOM     29  HXT UNL     1      48.206   3.693   4.944  0.00  0.00    +0.000 HD
ENDBRANCH  26  28
ENDBRANCH  22  26
ENDBRANCH  17  18
ENDBRANCH   1  17
TORSDOF 6
ENDMDL
MODEL 5
REMARK VINA RESULT:    -7.085      3.239      7.694
REMARK INTER + INTRA:         -10.476
REMARK INTER:                  -9.485
REMARK INTRA:                  -0.991
REMARK UNBOUND:                -1.113
REMARK  Name = 
REMARK  9 active torsions:
REMARK  status: ('A' for Active; 'I' for Inactive)
REMARK    1  A    between atoms: C_1  and  C_2
REMARK    2  A    between atoms: N_4  and  C_5
REMARK    3  A    between atoms: C_9  and  C_10
REMARK    4  A    between atoms: C_10  and  C_11
REMARK    5  A    between atoms: C_10  and  C_12
REMARK    6  A    between atoms: C_12  and  N_13
REMARK    7  A    between atoms: CA_17  and  C_18
REMARK    8  A    between atoms: C_18  and  OXT_20
REMARK    9  A    between atoms: C_25  and  C_26
REMARK                            x       y       z     vdW  Elec       q    Type
REMARK                         _______ _______ _______ _____ _____    ______ ____
ROOT
ATOM      1  C   UNL     1      48.980   8.800  12.394  0.00  0.00    +0.000 C 
ATOM      2  C   UNL     1      48.953  10.068  13.262  0.00  0.00    +0.000 C 
ENDROOT
BRANCH   1   7
ATOM      3  C   UNL     1      45.825   6.642  11.752  0.00  0.00    +0.000 A 
ATOM      4  C   UNL     1      44.848   7.643  11.841  0.00  0.00    +0.000 A 
ATOM      5  C   UNL     1      45.185   8.985  12.048  0.00  0.00    +0.000 A 
ATOM      6  C   UNL     1      46.519   9.358  12.189  0.00  0.00    +0.000 A 
ATOM      7  C   UNL     1      47.532   8.398  12.109  0.00  0.00    +0.000 A 
ATOM      8  C   UNL     1      47.160   7.058  11.872  0.00  0.00    +0.000 A 
BRANCH   3  12
ATOM      9  C   UNL     1      42.291   5.371  11.718  0.00  0.00    +0.000 C 
ATOM     10  C   UNL     1      43.261   4.196  11.819  0.00  0.00    +0.000 C 
ATOM     11  C   UNL     1      44.612   4.563  12.470  0.00  0.00    +0.000 C 
ATOM     12  N   UNL     1      45.472   5.322  11.550  0.00  0.00    +0.000 N 
ATOM     13  C   UNL     1      45.625   4.694  10.224  0.00  0.00    +0.000 C 
ATOM     14  C   UNL     1      44.237   4.354   9.632  0.00  0.00    +0.000 C 
ATOM     15  C   UNL     1      44.381   3.560   8.339  0.00  0.00    +0.000 C 
ATOM     16  O   UNL     1      43.445   3.561  10.538  0.00  0.00    +0.000 OA
ENDBRANCH   3  12
ENDBRANCH   1   7
BRANCH   1  17
ATOM     17  C   UNL     1      49.821   7.669  13.039  0.00  0.00    +0.000 C 
BRANCH  17  18
ATOM     18  N   UNL     1      49.985   7.845  14.492  0.00  0.00    +0.000 N 
ATOM     19  C   UNL     1      49.242   6.913  15.251  0.00  0.00    +0.000 A 
ATOM     20  C   UNL     1      49.230   7.009  16.650  0.00  0.00    +0.000 A 
ATOM     21  N   UNL     1      48.518   6.190  17.473  0.00  0.00    +0.000 NA
ATOM     22  CA  UNL     1      47.819   5.222  16.812  0.00  0.00    +0.000 A 
ATOM     23  C   UNL     1      47.840   5.086  15.437  0.00  0.00    +0.000 A 
ATOM     24  N   UNL     1      48.548   5.926  14.640  0.00  0.00    +0.000 NA
ATOM     25  H   UNL     1      49.701   8.775  14.791  0.00  0.00    +0.000 HD
BRANCH  22  26
ATOM     26  C   UNL     1      46.994   4.313  17.642  0.00  0.00    +0.000 C 
ATOM     27  O   UNL     1      46.694   3.174  17.330  0.00  0.00    +0.000 OA
BRANCH  26  28
ATOM     28  OXT UNL     1      46.605   4.925  18.785  0.00  0.00    +0.000 OA
ATOM     29  HXT UNL     1      47.218   4.673  19.516  0.00  0.00    +0.000 HD
ENDBRANCH  26  28
ENDBRANCH  22  26
ENDBRANCH  17  18
ENDBRANCH   1  17
TORSDOF 6
ENDMDL
MODEL 6
REMARK VINA RESULT:    -6.956      1.830      3.165
REMARK INTER + INTRA:         -10.305
REMARK INTER:                  -9.768
REMARK INTRA:                  -0.537
REMARK UNBOUND:                -1.113
REMARK  Name = 
REMARK  9 active torsions:
REMARK  status: ('A' for Active; 'I' for Inactive)
REMARK    1  A    between atoms: C_1  and  C_2
REMARK    2  A    between atoms: N_4  and  C_5
REMARK    3  A    between atoms: C_9  and  C_10
REMARK    4  A    between atoms: C_10  and  C_11
REMARK    5  A    between atoms: C_10  and  C_12
REMARK    6  A    between atoms: C_12  and  N_13
REMARK    7  A    between atoms: CA_17  and  C_18
REMARK    8  A    between atoms: C_18  and  OXT_20
REMARK    9  A    between atoms: C_25  and  C_26
REMARK                            x       y       z     vdW  Elec       q    Type
REMARK                         _______ _______ _______ _____ _____    ______ ____
ROOT
ATOM      1  C   UNL     1      44.669   4.890  12.071  0.00  0.00    +0.000 C 
ATOM      2  C   UNL     1      43.853   4.316  13.239  0.00  0.00    +0.000 C 
ENDROOT
BRANCH   1   7
ATOM      3  C   UNL     1      47.221   7.379  13.594  0.00  0.00    +0.000 A 
ATOM      4  C   UNL     1      46.625   8.582  13.192  0.00  0.00    +0.000 A 
ATOM      5  C   UNL     1      45.411   8.608  12.499  0.00  0.00    +0.000 A 
ATOM      6  C   UNL     1      44.766   7.418  12.172  0.00  0.00    +0.000 A 
ATOM      7  C   UNL     1      45.318   6.190  12.548  0.00  0.00    +0.000 A 
ATOM      8  C   UNL     1      46.530   6.201  13.270  0.00  0.00    +0.000 A 
BRANCH   3  12
ATOM      9  C   UNL     1      47.974   9.528  16.580  0.00  0.00    +0.000 C 
ATOM     10  C   UNL     1      49.268   8.923  16.040  0.00  0.00    +0.000 C 
ATOM     11  C   UNL     1      49.212   8.587  14.534  0.00  0.00    +0.000 C 
ATOM     12  N   UNL     1      48.423   7.374  14.276  0.00  0.00    +0.000 N 
ATOM     13  C   UNL     1      48.813   6.221  15.108  0.00  0.00    +0.000 C 
ATOM     14  C   UNL     1      48.849   6.628  16.600  0.00  0.00    +0.000 C 
ATOM     15  C   UNL     1      49.406   5.497  17.455  0.00  0.00    +0.000 C 
ATOM     16  O   UNL     1      49.678   7.785  16.823  0.00  0.00    +0.000 OA
ENDBRANCH   3  12
ENDBRANCH   1   7
BRANCH   1  17
ATOM     17  C   UNL     1      43.815   5.059  10.788  0.00  0.00    +0.000 C 
BRANCH  17  18
ATOM     18  N   UNL     1      44.636   5.323   9.594  0.00  0.00    +0.000 N 
ATOM     19  C   UNL     1      45.197   4.151   9.038  0.00  0.00    +0.000 A 
ATOM     20  C   UNL     1      46.073   4.251   7.947  0.00  0.00    +0.000 A 
ATOM     21  N   UNL     1      46.698   3.192   7.362  0.00  0.00    +0.000 NA
ATOM     22  CA  UNL     1      46.375   1.989   7.917  0.00  0.00    +0.000 A 
ATOM     23  C   UNL     1      45.490   1.860   8.971  0.00  0.00    +0.000 A 
ATOM     24  N   UNL     1      44.892   2.935   9.544  0.00  0.00    +0.000 NA
ATOM     25  H   UNL     1      45.403   5.958   9.800  0.00  0.00    +0.000 HD
BRANCH  22  26
ATOM     26  C   UNL     1      47.043   0.793   7.351  0.00  0.00    +0.000 C 
ATOM     27  O   UNL     1      46.763  -0.357   7.639  0.00  0.00    +0.000 OA
BRANCH  26  28
ATOM     28  OXT UNL     1      48.019   1.153   6.484  0.00  0.00    +0.000 OA
ATOM     29  HXT UNL     1      47.611   1.555   5.681  0.00  0.00    +0.000 HD
ENDBRANCH  26  28
ENDBRANCH  22  26
ENDBRANCH  17  18
ENDBRANCH   1  17
TORSDOF 6
ENDMDL
MODEL 7
REMARK VINA RESULT:    -6.867      3.586      8.203
REMARK INTER + INTRA:         -10.187
REMARK INTER:                 -10.118
REMARK INTRA:                  -0.069
REMARK UNBOUND:                -1.113
REMARK  Name = 
REMARK  9 active torsions:
REMARK  status: ('A' for Active; 'I' for Inactive)
REMARK    1  A    between atoms: C_1  and  C_2
REMARK    2  A    between atoms: N_4  and  C_5
REMARK    3  A    between atoms: C_9  and  C_10
REMARK    4  A    between atoms: C_10  and  C_11
REMARK    5  A    between atoms: C_10  and  C_12
REMARK    6  A    between atoms: C_12  and  N_13
REMARK    7  A    between atoms: CA_17  and  C_18
REMARK    8  A    between atoms: C_18  and  OXT_20
REMARK    9  A    between atoms: C_25  and  C_26
REMARK                            x       y       z     vdW  Elec       q    Type
REMARK                         _______ _______ _______ _____ _____    ______ ____
ROOT
ATOM      1  C   UNL     1      46.355   6.078  12.375  0.00  0.00    +0.000 C 
ATOM      2  C   UNL     1      45.581   7.295  12.905  0.00  0.00    +0.000 C 
ENDROOT
BRANCH   1   7
ATOM      3  C   UNL     1      44.510   3.381  10.289  0.00  0.00    +0.000 A 
ATOM      4  C   UNL     1      43.621   2.914  11.266  0.00  0.00    +0.000 A 
ATOM      5  C   UNL     1      43.569   3.477  12.545  0.00  0.00    +0.000 A 
ATOM      6  C   UNL     1      44.425   4.520  12.886  0.00  0.00    +0.000 A 
ATOM      7  C   UNL     1      45.332   5.023  11.948  0.00  0.00    +0.000 A 
ATOM      8  C   UNL     1      45.340   4.451  10.659  0.00  0.00    +0.000 A 
BRANCH   3  12
ATOM      9  C   UNL     1      46.954   4.333   7.601  0.00  0.00    +0.000 C 
ATOM     10  C   UNL     1      45.826   3.497   7.000  0.00  0.00    +0.000 C 
ATOM     11  C   UNL     1      44.500   3.591   7.786  0.00  0.00    +0.000 C 
ATOM     12  N   UNL     1      44.548   2.811   9.031  0.00  0.00    +0.000 N 
ATOM     13  C   UNL     1      45.008   1.423   8.846  0.00  0.00    +0.000 C 
ATOM     14  C   UNL     1      46.337   1.402   8.053  0.00  0.00    +0.000 C 
ATOM     15  C   UNL     1      46.741  -0.027   7.713  0.00  0.00    +0.000 C 
ATOM     16  O   UNL     1      46.235   2.127   6.813  0.00  0.00    +0.000 OA
ENDBRANCH   3  12
ENDBRANCH   1   7
BRANCH   1  17
ATOM     17  C   UNL     1      47.394   5.554  13.398  0.00  0.00    +0.000 C 
BRANCH  17  18
ATOM     18  N   UNL     1      46.822   4.565  14.327  0.00  0.00    +0.000 N 
ATOM     19  C   UNL     1      47.444   4.573  15.596  0.00  0.00    +0.000 A 
ATOM     20  C   UNL     1      47.065   3.628  16.562  0.00  0.00    +0.000 A 
ATOM     21  N   UNL     1      47.625   3.523  17.798  0.00  0.00    +0.000 NA
ATOM     22  CA  UNL     1      48.593   4.452  18.043  0.00  0.00    +0.000 A 
ATOM     23  C   UNL     1      48.962   5.414  17.122  0.00  0.00    +0.000 A 
ATOM     24  N   UNL     1      48.396   5.488  15.891  0.00  0.00    +0.000 NA
ATOM     25  H   UNL     1      46.896   3.620  13.960  0.00  0.00    +0.000 HD
BRANCH  22  26
ATOM     26  C   UNL     1      49.270   4.378  19.359  0.00  0.00    +0.000 C 
ATOM     27  O   UNL     1      50.350   4.883  19.610  0.00  0.00    +0.000 OA
BRANCH  26  28
ATOM     28  OXT UNL     1      48.534   3.657  20.238  0.00  0.00    +0.000 OA
ATOM     29  HXT UNL     1      47.975   4.268  20.774  0.00  0.00    +0.000 HD
ENDBRANCH  26  28
ENDBRANCH  22  26
ENDBRANCH  17  18
ENDBRANCH   1  17
TORSDOF 6
ENDMDL
MODEL 8
REMARK VINA RESULT:    -6.624      4.074      6.518
REMARK INTER + INTRA:          -9.867
REMARK INTER:                  -8.808
REMARK INTRA:                  -1.058
REMARK UNBOUND:                -1.113
REMARK  Name = 
REMARK  9 active torsions:
REMARK  status: ('A' for Active; 'I' for Inactive)
REMARK    1  A    between atoms: C_1  and  C_2
REMARK    2  A    between atoms: N_4  and  C_5
REMARK    3  A    between atoms: C_9  and  C_10
REMARK    4  A    between atoms: C_10  and  C_11
REMARK    5  A    between atoms: C_10  and  C_12
REMARK    6  A    between atoms: C_12  and  N_13
REMARK    7  A    between atoms: CA_17  and  C_18
REMARK    8  A    between atoms: C_18  and  OXT_20
REMARK    9  A    between atoms: C_25  and  C_26
REMARK                            x       y       z     vdW  Elec       q    Type
REMARK                         _______ _______ _______ _____ _____    ______ ____
ROOT
ATOM      1  C   UNL     1      49.243   8.344  13.148  0.00  0.00    +0.000 C 
ATOM      2  C   UNL     1      49.973   7.672  11.975  0.00  0.00    +0.000 C 
ENDROOT
BRANCH   1   7
ATOM      3  C   UNL     1      49.341   6.169  16.355  0.00  0.00    +0.000 A 
ATOM      4  C   UNL     1      50.703   6.286  16.663  0.00  0.00    +0.000 A 
ATOM      5  C   UNL     1      51.564   7.081  15.900  0.00  0.00    +0.000 A 
ATOM      6  C   UNL     1      51.083   7.771  14.791  0.00  0.00    +0.000 A 
ATOM      7  C   UNL     1      49.732   7.688  14.440  0.00  0.00    +0.000 A 
ATOM      8  C   UNL     1      48.884   6.899  15.247  0.00  0.00    +0.000 A 
BRANCH   3  12
ATOM      9  C   UNL     1      50.047   2.591  17.252  0.00  0.00    +0.000 C 
ATOM     10  C   UNL     1      48.586   2.920  17.554  0.00  0.00    +0.000 C 
ATOM     11  C   UNL     1      48.016   4.060  16.683  0.00  0.00    +0.000 C 
ATOM     12  N   UNL     1      48.505   5.376  17.119  0.00  0.00    +0.000 N 
ATOM     13  C   UNL     1      48.345   5.622  18.564  0.00  0.00    +0.000 C 
ATOM     14  C   UNL     1      48.936   4.444  19.374  0.00  0.00    +0.000 C 
ATOM     15  C   UNL     1      48.634   4.605  20.859  0.00  0.00    +0.000 C 
ATOM     16  O   UNL     1      48.390   3.178  18.959  0.00  0.00    +0.000 OA
ENDBRANCH   3  12
ENDBRANCH   1   7
BRANCH   1  17
ATOM     17  C   UNL     1      47.703   8.304  12.978  0.00  0.00    +0.000 C 
BRANCH  17  18
ATOM     18  N   UNL     1      47.292   7.692  11.703  0.00  0.00    +0.000 N 
ATOM     19  C   UNL     1      46.340   6.661  11.866  0.00  0.00    +0.000 A 
ATOM     20  C   UNL     1      45.914   5.925  10.750  0.00  0.00    +0.000 A 
ATOM     21  N   UNL     1      45.034   4.888  10.800  0.00  0.00    +0.000 NA
ATOM     22  CA  UNL     1      44.561   4.630  12.053  0.00  0.00    +0.000 A 
ATOM     23  C   UNL     1      44.939   5.360  13.164  0.00  0.00    +0.000 A 
ATOM     24  N   UNL     1      45.830   6.381  13.087  0.00  0.00    +0.000 NA
ATOM     25  H   UNL     1      48.085   7.297  11.204  0.00  0.00    +0.000 HD
BRANCH  22  26
ATOM     26  C   UNL     1      43.622   3.492  12.190  0.00  0.00    +0.000 C 
ATOM     27  O   UNL     1      43.803   2.529  12.914  0.00  0.00    +0.000 OA
BRANCH  26  28
ATOM     28  OXT UNL     1      42.543   3.660  11.388  0.00  0.00    +0.000 OA
ATOM     29  HXT UNL     1      42.518   4.592  11.065  0.00  0.00    +0.000 HD
ENDBRANCH  26  28
ENDBRANCH  22  26
ENDBRANCH  17  18
ENDBRANCH   1  17
TORSDOF 6
ENDMDL
MODEL 9
REMARK VINA RESULT:    -6.541      4.099      6.927
REMARK INTER + INTRA:          -9.757
REMARK INTER:                  -8.555
REMARK INTRA:                  -1.202
REMARK UNBOUND:                -1.113
REMARK  Name = 
REMARK  9 active torsions:
REMARK  status: ('A' for Active; 'I' for Inactive)
REMARK    1  A    between atoms: C_1  and  C_2
REMARK    2  A    between atoms: N_4  and  C_5
REMARK    3  A    between atoms: C_9  and  C_10
REMARK    4  A    between atoms: C_10  and  C_11
REMARK    5  A    between atoms: C_10  and  C_12
REMARK    6  A    between atoms: C_12  and  N_13
REMARK    7  A    between atoms: CA_17  and  C_18
REMARK    8  A    between atoms: C_18  and  OXT_20
REMARK    9  A    between atoms: C_25  and  C_26
REMARK                            x       y       z     vdW  Elec       q    Type
REMARK                         _______ _______ _______ _____ _____    ______ ____
ROOT
ATOM      1  C   UNL     1      49.716   8.296  13.722  0.00  0.00    +0.000 C 
ATOM      2  C   UNL     1      51.239   8.438  13.866  0.00  0.00    +0.000 C 
ENDROOT
BRANCH   1   7
ATOM      3  C   UNL     1      48.843   7.019  17.277  0.00  0.00    +0.000 A 
ATOM      4  C   UNL     1      48.243   8.177  17.788  0.00  0.00    +0.000 A 
ATOM      5  C   UNL     1      48.070   9.324  17.007  0.00  0.00    +0.000 A 
ATOM      6  C   UNL     1      48.512   9.346  15.687  0.00  0.00    +0.000 A 
ATOM      7  C   UNL     1      49.118   8.216  15.128  0.00  0.00    +0.000 A 
ATOM      8  C   UNL     1      49.253   7.067  15.935  0.00  0.00    +0.000 A 
BRANCH   3  12
ATOM      9  C   UNL     1      47.607   3.590  16.371  0.00  0.00    +0.000 C 
ATOM     10  C   UNL     1      47.998   3.625  17.847  0.00  0.00    +0.000 C 
ATOM     11  C   UNL     1      47.896   5.029  18.481  0.00  0.00    +0.000 C 
ATOM     12  N   UNL     1      49.008   5.896  18.065  0.00  0.00    +0.000 N 
ATOM     13  C   UNL     1      50.338   5.283  18.236  0.00  0.00    +0.000 C 
ATOM     14  C   UNL     1      50.369   3.883  17.579  0.00  0.00    +0.000 C 
ATOM     15  C   UNL     1      51.680   3.171  17.887  0.00  0.00    +0.000 C 
ATOM     16  O   UNL     1      49.300   3.042  18.054  0.00  0.00    +0.000 OA
ENDBRANCH   3  12
ENDBRANCH   1   7
BRANCH   1  17
ATOM     17  C   UNL     1      49.324   7.102  12.815  0.00  0.00    +0.000 C 
BRANCH  17  18
ATOM     18  N   UNL     1      48.173   7.406  11.948  0.00  0.00    +0.000 N 
ATOM     19  C   UNL     1      47.014   6.672  12.287  0.00  0.00    +0.000 A 
ATOM     20  C   UNL     1      45.860   6.790  11.499  0.00  0.00    +0.000 A 
ATOM     21  N   UNL     1      44.706   6.100  11.713  0.00  0.00    +0.000 NA
ATOM     22  CA  UNL     1      44.751   5.282  12.803  0.00  0.00    +0.000 A 
ATOM     23  C   UNL     1      45.864   5.171  13.615  0.00  0.00    +0.000 A 
ATOM     24  N   UNL     1      47.006   5.861  13.370  0.00  0.00    +0.000 NA
ATOM     25  H   UNL     1      48.378   7.214  10.971  0.00  0.00    +0.000 HD
BRANCH  22  26
ATOM     26  C   UNL     1      43.540   4.474  13.079  0.00  0.00    +0.000 C 
ATOM     27  O   UNL     1      43.493   3.257  13.027  0.00  0.00    +0.000 OA
BRANCH  26  28
ATOM     28  OXT UNL     1      42.488   5.272  13.380  0.00  0.00    +0.000 OA
ATOM     29  HXT UNL     1      42.528   5.520  14.334  0.00  0.00    +0.000 HD
ENDBRANCH  26  28
ENDBRANCH  22  26
ENDBRANCH  17  18
ENDBRANCH   1  17
TORSDOF 6
ENDMDL
