MODEL 1
REMARK VINA RESULT:    -7.479      0.000      0.000
REMARK INTER + INTRA:         -12.133
REMARK INTER:                 -10.977
REMARK INTRA:                  -1.155
REMARK UNBOUND:                -1.155
REMARK  Name = 
REMARK  9 active torsions:
REMARK  status: ('A' for Active; 'I' for Inactive)
REMARK    1  A    between atoms: N_1  and  C_2
REMARK    2  A    between atoms: C_6  and  C_7
REMARK    3  A    between atoms: C_7  and  C_8
REMARK    4  A    between atoms: C_11  and  C_12
REMARK    5  A    between atoms: C_12  and  N_13
REMARK    6  A    between atoms: N_13  and  C_14
REMARK    7  A    between atoms: C_14  and  C_15
REMARK    8  A    between atoms: C_15  and  O_16
REMARK    9  A    between atoms: C_17  and  C_19
REMARK                            x       y       z     vdW  Elec       q    Type
REMARK                         _______ _______ _______ _____ _____    ______ ____
ROOT
ATOM      1  N   UNL     1      48.071   5.594  15.940  0.00  0.00    +0.000 N 
ATOM      2  C   UNL     1      48.789   6.703  16.436  0.00  0.00    +0.000 C 
ATOM      3  O   UNL     1      49.377   7.469  15.677  0.00  0.00    +0.000 OA
ENDROOT
BRANCH   2   4
ATOM      4  C   UNL     1      48.847   6.958  17.892  0.00  0.00    +0.000 A 
ATOM      5  C   UNL     1      48.054   7.872  18.567  0.00  0.00    +0.000 A 
ATOM      6  S   UNL     1      48.297   7.878  20.259  0.00  0.00    +0.000 S 
ATOM      7  C   UNL     1      49.371   6.562  20.160  0.00  0.00    +0.000 A 
ATOM      8  N   UNL     1      49.871   5.980  21.283  0.00  0.00    +0.000 NA
ATOM      9  C   UNL     1      50.622   4.957  21.058  0.00  0.00    +0.000 A 
ATOM     10  N   UNL     1      50.954   4.490  19.807  0.00  0.00    +0.000 N 
ATOM     11  C   UNL     1      50.592   5.134  18.647  0.00  0.00    +0.000 A 
ATOM     12  O   UNL     1      51.121   4.856  17.577  0.00  0.00    +0.000 OA
ATOM     13  C   UNL     1      49.627   6.203  18.849  0.00  0.00    +0.000 A 
ATOM     14  H   UNL     1      51.615   3.733  19.703  0.00  0.00    +0.000 HD
ENDBRANCH   2   4
BRANCH   1  15
ATOM     15  C   UNL     1      48.044   5.440  14.479  0.00  0.00    +0.000 C 
BRANCH  15  19
ATOM     16  C   UNL     1      44.942   3.967  11.955  0.00  0.00    +0.000 A 
ATOM     17  C   UNL     1      44.965   5.327  12.248  0.00  0.00    +0.000 A 
ATOM     18  C   UNL     1      45.887   5.808  13.186  0.00  0.00    +0.000 A 
ATOM     19  C   UNL     1      46.784   4.932  13.807  0.00  0.00    +0.000 A 
ATOM     20  C   UNL     1      46.594   3.577  13.548  0.00  0.00    +0.000 A 
ATOM     21  N   UNL     1      45.706   3.081  12.642  0.00  0.00    +0.000 NA
BRANCH  16  22
ATOM     22  C   UNL     1      44.173   3.456  10.750  0.00  0.00    +0.000 C 
BRANCH  22  27
ATOM     23  C   UNL     1      46.166   1.761   7.971  0.00  0.00    +0.000 A 
ATOM     24  C   UNL     1      46.594   2.867   7.233  0.00  0.00    +0.000 A 
ATOM     25  C   UNL     1      46.181   4.154   7.580  0.00  0.00    +0.000 A 
ATOM     26  C   UNL     1      45.367   4.351   8.697  0.00  0.00    +0.000 A 
ATOM     27  C   UNL     1      44.965   3.258   9.479  0.00  0.00    +0.000 A 
ATOM     28  C   UNL     1      45.395   1.974   9.116  0.00  0.00    +0.000 A 
BRANCH  23  29
ATOM     29  N   UNL     1      46.700   0.488   7.709  0.00  0.00    +0.000 N 
ATOM     30  H   UNL     1      46.407   0.101   6.826  0.00  0.00    +0.000 HD
ATOM     31  H   UNL     1      46.569  -0.159   8.482  0.00  0.00    +0.000 HD
ENDBRANCH  23  29
ENDBRANCH  22  27
ENDBRANCH  16  22
ENDBRANCH  15  19
ENDBRANCH   1  15
BRANCH   1  32
ATOM     32  C   UNL     1      47.195   4.768  16.796  0.00  0.00    +0.000 C 
BRANCH  32  33
ATOM     33  C   UNL     1      47.609   3.336  17.158  0.00  0.00    +0.000 C 
BRANCH  33  34
ATOM     34  O   UNL     1      46.532   2.641  17.773  0.00  0.00    +0.000 OA
ATOM     35  H   UNL     1      46.916   2.069  18.460  0.00  0.00    +0.000 HD
ENDBRANCH  33  34
ENDBRANCH  32  33
ENDBRANCH   1  32
TORSDOF 9
ENDMDL
MODEL 2
REMARK VINA RESULT:    -7.473      2.998      4.319
REMARK INTER + INTRA:         -12.124
REMARK INTER:                 -11.239
REMARK INTRA:                  -0.885
REMARK UNBOUND:                -1.155
REMARK  Name = 
REMARK  9 active torsions:
REMARK  status: ('A' for Active; 'I' for Inactive)
REMARK    1  A    between atoms: N_1  and  C_2
REMARK    2  A    between atoms: C_6  and  C_7
REMARK    3  A    between atoms: C_7  and  C_8
REMARK    4  A    between atoms: C_11  and  C_12
REMARK    5  A    between atoms: C_12  and  N_13
REMARK    6  A    between atoms: N_13  and  C_14
REMARK    7  A    between atoms: C_14  and  C_15
REMARK    8  A    between atoms: C_15  and  O_16
REMARK    9  A    between atoms: C_17  and  C_19
REMARK                            x       y       z     vdW  Elec       q    Type
REMARK                         _______ _______ _______ _____ _____    ______ ____
ROOT
ATOM      1  N   UNL     1      46.719   6.911  13.485  0.00  0.00    +0.000 N 
ATOM      2  C   UNL     1      47.994   6.310  13.410  0.00  0.00    +0.000 C 
ATOM      3  O   UNL     1      48.117   5.114  13.163  0.00  0.00    +0.000 OA
ENDROOT
BRANCH   2   4
ATOM      4  C   UNL     1      49.211   7.121  13.634  0.00  0.00    +0.000 A 
ATOM      5  C   UNL     1      49.782   7.967  12.696  0.00  0.00    +0.000 A 
ATOM      6  S   UNL     1      51.135   8.831  13.281  0.00  0.00    +0.000 S 
ATOM      7  C   UNL     1      50.919   8.207  14.849  0.00  0.00    +0.000 A 
ATOM      8  N   UNL     1      51.687   8.637  15.886  0.00  0.00    +0.000 NA
ATOM      9  C   UNL     1      51.372   8.123  17.025  0.00  0.00    +0.000 A 
ATOM     10  N   UNL     1      50.385   7.184  17.214  0.00  0.00    +0.000 N 
ATOM     11  C   UNL     1      49.685   6.615  16.176  0.00  0.00    +0.000 A 
ATOM     12  O   UNL     1      49.015   5.603  16.343  0.00  0.00    +0.000 OA
ATOM     13  C   UNL     1      49.905   7.268  14.895  0.00  0.00    +0.000 A 
ATOM     14  H   UNL     1      50.246   6.763  18.122  0.00  0.00    +0.000 HD
ENDBRANCH   2   4
BRANCH   1  15
ATOM     15  C   UNL     1      45.572   6.034  13.217  0.00  0.00    +0.000 C 
BRANCH  15  19
ATOM     16  C   UNL     1      44.579   4.660   9.307  0.00  0.00    +0.000 A 
ATOM     17  C   UNL     1      45.737   5.415   9.468  0.00  0.00    +0.000 A 
ATOM     18  C   UNL     1      46.007   5.995  10.714  0.00  0.00    +0.000 A 
ATOM     19  C   UNL     1      45.129   5.803  11.786  0.00  0.00    +0.000 A 
ATOM     20  C   UNL     1      43.937   5.146  11.491  0.00  0.00    +0.000 A 
ATOM     21  N   UNL     1      43.648   4.573  10.289  0.00  0.00    +0.000 NA
BRANCH  16  22
ATOM     22  C   UNL     1      44.400   3.784   8.080  0.00  0.00    +0.000 C 
BRANCH  22  27
ATOM     23  C   UNL     1      47.483   2.435   6.281  0.00  0.00    +0.000 A 
ATOM     24  C   UNL     1      47.614   1.178   6.876  0.00  0.00    +0.000 A 
ATOM     25  C   UNL     1      46.760   0.790   7.910  0.00  0.00    +0.000 A 
ATOM     26  C   UNL     1      45.738   1.643   8.331  0.00  0.00    +0.000 A 
ATOM     27  C   UNL     1      45.560   2.890   7.714  0.00  0.00    +0.000 A 
ATOM     28  C   UNL     1      46.426   3.258   6.674  0.00  0.00    +0.000 A 
BRANCH  23  29
ATOM     29  N   UNL     1      48.245   2.762   5.147  0.00  0.00    +0.000 N 
ATOM     30  H   UNL     1      47.940   3.602   4.683  0.00  0.00    +0.000 HD
ATOM     31  H   UNL     1      48.352   1.979   4.507  0.00  0.00    +0.000 HD
ENDBRANCH  23  29
ENDBRANCH  22  27
ENDBRANCH  16  22
ENDBRANCH  15  19
ENDBRANCH   1  15
BRANCH   1  32
ATOM     32  C   UNL     1      46.536   8.374  13.585  0.00  0.00    +0.000 C 
BRANCH  32  33
ATOM     33  C   UNL     1      46.069   9.173  12.363  0.00  0.00    +0.000 C 
BRANCH  33  34
ATOM     34  O   UNL     1      44.650   9.211  12.297  0.00  0.00    +0.000 OA
ATOM     35  H   UNL     1      44.322   8.392  12.708  0.00  0.00    +0.000 HD
ENDBRANCH  33  34
ENDBRANCH  32  33
ENDBRANCH   1  32
TORSDOF 9
ENDMDL
MODEL 3
REMARK VINA RESULT:    -7.325      1.189      1.857
REMARK INTER + INTRA:         -11.907
REMARK INTER:                 -10.934
REMARK INTRA:                  -0.973
REMARK UNBOUND:                -1.155
REMARK  Name = 
REMARK  9 active torsions:
REMARK  status: ('A' for Active; 'I' for Inactive)
REMARK    1  A    between atoms: N_1  and  C_2
REMARK    2  A    between atoms: C_6  and  C_7
REMARK    3  A    between atoms: C_7  and  C_8
REMARK    4  A    between atoms: C_11  and  C_12
REMARK    5  A    between atoms: C_12  and  N_13
REMARK    6  A    between atoms: N_13  and  C_14
REMARK    7  A    between atoms: C_14  and  C_15
REMARK    8  A    between atoms: C_15  and  O_16
REMARK    9  A    between atoms: C_17  and  C_19
REMARK                            x       y       z     vdW  Elec       q    Type
REMARK                         _______ _______ _______ _____ _____    ______ ____
ROOT
ATOM      1  N   UNL     1      48.191   5.460  15.857  0.00  0.00    +0.000 N 
ATOM      2  C   UNL     1      49.309   6.132  16.395  0.00  0.00    +0.000 C 
ATOM      3  O   UNL     1      49.973   6.906  15.711  0.00  0.00    +0.000 OA
ENDROOT
BRANCH   2   4
ATOM      4  C   UNL     1      49.702   5.909  17.804  0.00  0.00    +0.000 A 
ATOM      5  C   UNL     1      50.607   4.949  18.230  0.00  0.00    +0.000 A 
ATOM      6  S   UNL     1      50.916   4.992  19.910  0.00  0.00    +0.000 S 
ATOM      7  C   UNL     1      49.955   6.383  20.103  0.00  0.00    +0.000 A 
ATOM      8  N   UNL     1      49.879   7.021  21.301  0.00  0.00    +0.000 NA
ATOM      9  C   UNL     1      49.164   8.093  21.284  0.00  0.00    +0.000 A 
ATOM     10  N   UNL     1      48.481   8.562  20.186  0.00  0.00    +0.000 N 
ATOM     11  C   UNL     1      48.412   7.871  18.998  0.00  0.00    +0.000 A 
ATOM     12  O   UNL     1      47.589   8.169  18.140  0.00  0.00    +0.000 OA
ATOM     13  C   UNL     1      49.319   6.737  18.927  0.00  0.00    +0.000 A 
ATOM     14  H   UNL     1      47.873   9.364  20.265  0.00  0.00    +0.000 HD
ENDBRANCH   2   4
BRANCH   1  15
ATOM     15  C   UNL     1      47.858   5.769  14.461  0.00  0.00    +0.000 C 
BRANCH  15  19
ATOM     16  C   UNL     1      44.913   3.921  11.996  0.00  0.00    +0.000 A 
ATOM     17  C   UNL     1      44.755   5.265  12.319  0.00  0.00    +0.000 A 
ATOM     18  C   UNL     1      45.631   5.854  13.240  0.00  0.00    +0.000 A 
ATOM     19  C   UNL     1      46.660   5.101  13.814  0.00  0.00    +0.000 A 
ATOM     20  C   UNL     1      46.654   3.738  13.530  0.00  0.00    +0.000 A 
ATOM     21  N   UNL     1      45.816   3.139  12.640  0.00  0.00    +0.000 NA
BRANCH  16  22
ATOM     22  C   UNL     1      44.185   3.328  10.802  0.00  0.00    +0.000 C 
BRANCH  22  27
ATOM     23  C   UNL     1      46.205   1.758   7.971  0.00  0.00    +0.000 A 
ATOM     24  C   UNL     1      46.624   2.895   7.275  0.00  0.00    +0.000 A 
ATOM     25  C   UNL     1      46.195   4.165   7.668  0.00  0.00    +0.000 A 
ATOM     26  C   UNL     1      45.376   4.312   8.788  0.00  0.00    +0.000 A 
ATOM     27  C   UNL     1      44.984   3.186   9.528  0.00  0.00    +0.000 A 
ATOM     28  C   UNL     1      45.429   1.921   9.120  0.00  0.00    +0.000 A 
BRANCH  23  29
ATOM     29  N   UNL     1      46.753   0.502   7.664  0.00  0.00    +0.000 N 
ATOM     30  H   UNL     1      47.227   0.473   6.775  0.00  0.00    +0.000 HD
ATOM     31  H   UNL     1      46.085  -0.256   7.775  0.00  0.00    +0.000 HD
ENDBRANCH  23  29
ENDBRANCH  22  27
ENDBRANCH  16  22
ENDBRANCH  15  19
ENDBRANCH   1  15
BRANCH   1  32
ATOM     32  C   UNL     1      47.257   4.678  16.694  0.00  0.00    +0.000 C 
BRANCH  32  33
ATOM     33  C   UNL     1      47.579   3.220  17.042  0.00  0.00    +0.000 C 
BRANCH  33  34
ATOM     34  O   UNL     1      46.506   2.624  17.760  0.00  0.00    +0.000 OA
ATOM     35  H   UNL     1      46.900   2.029  18.421  0.00  0.00    +0.000 HD
ENDBRANCH  33  34
ENDBRANCH  32  33
ENDBRANCH   1  32
TORSDOF 9
ENDMDL
MODEL 4
REMARK VINA RESULT:    -7.109      1.491      2.420
REMARK INTER + INTRA:         -11.589
REMARK INTER:                 -10.390
REMARK INTRA:                  -1.200
REMARK UNBOUND:                -1.155
REMARK  Name = 
REMARK  9 active torsions:
REMARK  status: ('A' for Active; 'I' for Inactive)
REMARK    1  A    between atoms: N_1  and  C_2
REMARK    2  A    between atoms: C_6  and  C_7
REMARK    3  A    between atoms: C_7  and  C_8
REMARK    4  A    between atoms: C_11  and  C_12
REMARK    5  A    between atoms: C_12  and  N_13
REMARK    6  A    between atoms: N_13  and  C_14
REMARK    7  A    between atoms: C_14  and  C_15
REMARK    8  A    between atoms: C_15  and  O_16
REMARK    9  A    between atoms: C_17  and  C_19
REMARK                            x       y       z     vdW  Elec       q    Type
REMARK                         _______ _______ _______ _____ _____    ______ ____
ROOT
ATOM      1  N   UNL     1      48.487   6.244  15.802  0.00  0.00    +0.000 N 
ATOM      2  C   UNL     1      48.359   5.175  16.715  0.00  0.00    +0.000 C 
ATOM      3  O   UNL     1      48.264   4.015  16.324  0.00  0.00    +0.000 OA
ENDROOT
BRANCH   2   4
ATOM      4  C   UNL     1      48.335   5.442  18.170  0.00  0.00    +0.000 A 
ATOM      5  C   UNL     1      47.204   5.788  18.892  0.00  0.00    +0.000 A 
ATOM      6  S   UNL     1      47.480   5.951  20.570  0.00  0.00    +0.000 S 
ATOM      7  C   UNL     1      49.091   5.429  20.407  0.00  0.00    +0.000 A 
ATOM      8  N   UNL     1      49.878   5.229  21.498  0.00  0.00    +0.000 NA
ATOM      9  C   UNL     1      51.053   4.777  21.226  0.00  0.00    +0.000 A 
ATOM     10  N   UNL     1      51.530   4.547  19.956  0.00  0.00    +0.000 N 
ATOM     11  C   UNL     1      50.823   4.873  18.822  0.00  0.00    +0.000 A 
ATOM     12  O   UNL     1      51.369   4.911  17.726  0.00  0.00    +0.000 OA
ATOM     13  C   UNL     1      49.442   5.248  19.081  0.00  0.00    +0.000 A 
ATOM     14  H   UNL     1      52.490   4.269  19.812  0.00  0.00    +0.000 HD
ENDBRANCH   2   4
BRANCH   1  15
ATOM     15  C   UNL     1      48.533   5.879  14.380  0.00  0.00    +0.000 C 
BRANCH  15  19
ATOM     16  C   UNL     1      45.309   5.385  11.638  0.00  0.00    +0.000 A 
ATOM     17  C   UNL     1      46.087   6.534  11.541  0.00  0.00    +0.000 A 
ATOM     18  C   UNL     1      47.060   6.785  12.518  0.00  0.00    +0.000 A 
ATOM     19  C   UNL     1      47.253   5.880  13.568  0.00  0.00    +0.000 A 
ATOM     20  C   UNL     1      46.339   4.833  13.651  0.00  0.00    +0.000 A 
ATOM     21  N   UNL     1      45.384   4.566  12.716  0.00  0.00    +0.000 NA
BRANCH  16  22
ATOM     22  C   UNL     1      44.461   4.932  10.462  0.00  0.00    +0.000 C 
BRANCH  22  27
ATOM     23  C   UNL     1      46.378   3.483   7.497  0.00  0.00    +0.000 A 
ATOM     24  C   UNL     1      46.121   2.118   7.650  0.00  0.00    +0.000 A 
ATOM     25  C   UNL     1      45.396   1.652   8.749  0.00  0.00    +0.000 A 
ATOM     26  C   UNL     1      44.885   2.554   9.684  0.00  0.00    +0.000 A 
ATOM     27  C   UNL     1      45.092   3.932   9.522  0.00  0.00    +0.000 A 
ATOM     28  C   UNL     1      45.818   4.379   8.410  0.00  0.00    +0.000 A 
BRANCH  23  29
ATOM     29  N   UNL     1      46.978   3.960   6.319  0.00  0.00    +0.000 N 
ATOM     30  H   UNL     1      47.867   3.531   6.116  0.00  0.00    +0.000 HD
ATOM     31  H   UNL     1      47.016   4.974   6.282  0.00  0.00    +0.000 HD
ENDBRANCH  23  29
ENDBRANCH  22  27
ENDBRANCH  16  22
ENDBRANCH  15  19
ENDBRANCH   1  15
BRANCH   1  32
ATOM     32  C   UNL     1      48.797   7.623  16.232  0.00  0.00    +0.000 C 
BRANCH  32  33
ATOM     33  C   UNL     1      48.575   8.794  15.267  0.00  0.00    +0.000 C 
BRANCH  33  34
ATOM     34  O   UNL     1      47.196   9.132  15.195  0.00  0.00    +0.000 OA
ATOM     35  H   UNL     1      46.830   9.035  16.091  0.00  0.00    +0.000 HD
ENDBRANCH  33  34
ENDBRANCH  32  33
ENDBRANCH   1  32
TORSDOF 9
ENDMDL
MODEL 5
REMARK VINA RESULT:    -7.053      2.855      4.451
REMARK INTER + INTRA:         -11.506
REMARK INTER:                 -10.243
REMARK INTRA:                  -1.263
REMARK UNBOUND:                -1.155
REMARK  Name = 
REMARK  9 active torsions:
REMARK  status: ('A' for Active; 'I' for Inactive)
REMARK    1  A    between atoms: N_1  and  C_2
REMARK    2  A    between atoms: C_6  and  C_7
REMARK    3  A    between atoms: C_7  and  C_8
REMARK    4  A    between atoms: C_11  and  C_12
REMARK    5  A    between atoms: C_12  and  N_13
REMARK    6  A    between atoms: N_13  and  C_14
REMARK    7  A    between atoms: C_14  and  C_15
REMARK    8  A    between atoms: C_15  and  O_16
REMARK    9  A    between atoms: C_17  and  C_19
REMARK                            x       y       z     vdW  Elec       q    Type
REMARK                         _______ _______ _______ _____ _____    ______ ____
ROOT
ATOM      1  N   UNL     1      50.140   5.313  18.254  0.00  0.00    +0.000 N 
ATOM      2  C   UNL     1      51.247   5.126  17.399  0.00  0.00    +0.000 C 
ATOM      3  O   UNL     1      51.317   5.704  16.318  0.00  0.00    +0.000 OA
ENDROOT
BRANCH   2   4
ATOM      4  C   UNL     1      52.346   4.220  17.796  0.00  0.00    +0.000 A 
ATOM      5  C   UNL     1      53.546   4.628  18.357  0.00  0.00    +0.000 A 
ATOM      6  S   UNL     1      54.582   3.338  18.784  0.00  0.00    +0.000 S 
ATOM      7  C   UNL     1      53.405   2.186  18.360  0.00  0.00    +0.000 A 
ATOM      8  N   UNL     1      53.607   0.860  18.588  0.00  0.00    +0.000 NA
ATOM      9  C   UNL     1      52.607   0.111  18.273  0.00  0.00    +0.000 A 
ATOM     10  N   UNL     1      51.437   0.564  17.708  0.00  0.00    +0.000 N 
ATOM     11  C   UNL     1      51.248   1.871  17.325  0.00  0.00    +0.000 A 
ATOM     12  O   UNL     1      50.321   2.188  16.590  0.00  0.00    +0.000 OA
ATOM     13  C   UNL     1      52.288   2.774  17.794  0.00  0.00    +0.000 A 
ATOM     14  H   UNL     1      50.726  -0.090  17.410  0.00  0.00    +0.000 HD
ENDBRANCH   2   4
BRANCH   1  15
ATOM     15  C   UNL     1      49.114   6.256  17.790  0.00  0.00    +0.000 C 
BRANCH  15  19
ATOM     16  C   UNL     1      46.999   4.597  14.483  0.00  0.00    +0.000 A 
ATOM     17  C   UNL     1      47.578   5.853  14.334  0.00  0.00    +0.000 A 
ATOM     18  C   UNL     1      48.153   6.478  15.448  0.00  0.00    +0.000 A 
ATOM     19  C   UNL     1      48.159   5.835  16.691  0.00  0.00    +0.000 A 
ATOM     20  C   UNL     1      47.441   4.645  16.768  0.00  0.00    +0.000 A 
ATOM     21  N   UNL     1      46.871   4.016  15.702  0.00  0.00    +0.000 NA
BRANCH  16  22
ATOM     22  C   UNL     1      46.633   3.772  13.262  0.00  0.00    +0.000 C 
BRANCH  22  27
ATOM     23  C   UNL     1      44.033   4.349  10.529  0.00  0.00    +0.000 A 
ATOM     24  C   UNL     1      42.985   4.907  11.267  0.00  0.00    +0.000 A 
ATOM     25  C   UNL     1      43.081   5.028  12.655  0.00  0.00    +0.000 A 
ATOM     26  C   UNL     1      44.245   4.629  13.314  0.00  0.00    +0.000 A 
ATOM     27  C   UNL     1      45.326   4.111  12.585  0.00  0.00    +0.000 A 
ATOM     28  C   UNL     1      45.211   4.003  11.193  0.00  0.00    +0.000 A 
BRANCH  23  29
ATOM     29  N   UNL     1      43.993   4.365   9.125  0.00  0.00    +0.000 N 
ATOM     30  H   UNL     1      44.196   5.267   8.725  0.00  0.00    +0.000 HD
ATOM     31  H   UNL     1      43.141   3.955   8.752  0.00  0.00    +0.000 HD
ENDBRANCH  23  29
ENDBRANCH  22  27
ENDBRANCH  16  22
ENDBRANCH  15  19
ENDBRANCH   1  15
BRANCH   1  32
ATOM     32  C   UNL     1      50.109   4.793  19.637  0.00  0.00    +0.000 C 
BRANCH  32  33
ATOM     33  C   UNL     1      48.788   4.299  20.239  0.00  0.00    +0.000 C 
BRANCH  33  34
ATOM     34  O   UNL     1      48.374   3.088  19.619  0.00  0.00    +0.000 OA
ATOM     35  H   UNL     1      47.405   3.123  19.542  0.00  0.00    +0.000 HD
ENDBRANCH  33  34
ENDBRANCH  32  33
ENDBRANCH   1  32
TORSDOF 9
ENDMDL
MODEL 6
REMARK VINA RESULT:    -6.990      4.674      5.608
REMARK INTER + INTRA:         -11.414
REMARK INTER:                 -10.312
REMARK INTRA:                  -1.102
REMARK UNBOUND:                -1.155
REMARK  Name = 
REMARK  9 active torsions:
REMARK  status: ('A' for Active; 'I' for Inactive)
REMARK    1  A    between atoms: N_1  and  C_2
REMARK    2  A    between atoms: C_6  and  C_7
REMARK    3  A    between atoms: C_7  and  C_8
REMARK    4  A    between atoms: C_11  and  C_12
REMARK    5  A    between atoms: C_12  and  N_13
REMARK    6  A    between atoms: N_13  and  C_14
REMARK    7  A    between atoms: C_14  and  C_15
REMARK    8  A    between atoms: C_15  and  O_16
REMARK    9  A    between atoms: C_17  and  C_19
REMARK                            x       y       z     vdW  Elec       q    Type
REMARK                         _______ _______ _______ _____ _____    ______ ____
ROOT
ATOM      1  N   UNL     1      46.634   8.730  12.870  0.00  0.00    +0.000 N 
ATOM      2  C   UNL     1      47.708   8.338  13.698  0.00  0.00    +0.000 C 
ATOM      3  O   UNL     1      47.631   7.336  14.404  0.00  0.00    +0.000 OA
ENDROOT
BRANCH   2   4
ATOM      4  C   UNL     1      48.950   9.141  13.730  0.00  0.00    +0.000 A 
ATOM      5  C   UNL     1      49.193  10.189  14.604  0.00  0.00    +0.000 A 
ATOM      6  S   UNL     1      50.754  10.866  14.451  0.00  0.00    +0.000 S 
ATOM      7  C   UNL     1      51.206   9.691  13.306  0.00  0.00    +0.000 A 
ATOM      8  N   UNL     1      52.481   9.625  12.836  0.00  0.00    +0.000 NA
ATOM      9  C   UNL     1      52.694   8.649  12.022  0.00  0.00    +0.000 A 
ATOM     10  N   UNL     1      51.734   7.758  11.600  0.00  0.00    +0.000 N 
ATOM     11  C   UNL     1      50.405   7.876  11.934  0.00  0.00    +0.000 A 
ATOM     12  O   UNL     1      49.543   7.242  11.336  0.00  0.00    +0.000 OA
ATOM     13  C   UNL     1      50.147   8.871  12.963  0.00  0.00    +0.000 A 
ATOM     14  H   UNL     1      51.951   7.066  10.896  0.00  0.00    +0.000 HD
ENDBRANCH   2   4
BRANCH   1  15
ATOM     15  C   UNL     1      45.454   7.855  12.881  0.00  0.00    +0.000 C 
BRANCH  15  19
ATOM     16  C   UNL     1      44.975   4.837   9.910  0.00  0.00    +0.000 A 
ATOM     17  C   UNL     1      44.171   4.781  11.044  0.00  0.00    +0.000 A 
ATOM     18  C   UNL     1      44.408   5.676  12.095  0.00  0.00    +0.000 A 
ATOM     19  C   UNL     1      45.432   6.624  11.995  0.00  0.00    +0.000 A 
ATOM     20  C   UNL     1      46.263   6.514  10.883  0.00  0.00    +0.000 A 
ATOM     21  N   UNL     1      46.056   5.654   9.847  0.00  0.00    +0.000 NA
BRANCH  16  22
ATOM     22  C   UNL     1      44.572   4.096   8.647  0.00  0.00    +0.000 C 
BRANCH  22  27
ATOM     23  C   UNL     1      47.319   2.518   6.518  0.00  0.00    +0.000 A 
ATOM     24  C   UNL     1      47.281   1.195   6.966  0.00  0.00    +0.000 A 
ATOM     25  C   UNL     1      46.428   0.822   8.007  0.00  0.00    +0.000 A 
ATOM     26  C   UNL     1      45.572   1.764   8.582  0.00  0.00    +0.000 A 
ATOM     27  C   UNL     1      45.561   3.086   8.114  0.00  0.00    +0.000 A 
ATOM     28  C   UNL     1      46.422   3.438   7.065  0.00  0.00    +0.000 A 
BRANCH  23  29
ATOM     29  N   UNL     1      48.067   2.856   5.378  0.00  0.00    +0.000 N 
ATOM     30  H   UNL     1      48.252   2.074   4.770  0.00  0.00    +0.000 HD
ATOM     31  H   UNL     1      48.906   3.383   5.602  0.00  0.00    +0.000 HD
ENDBRANCH  23  29
ENDBRANCH  22  27
ENDBRANCH  16  22
ENDBRANCH  15  19
ENDBRANCH   1  15
BRANCH   1  32
ATOM     32  C   UNL     1      46.756   9.810  11.869  0.00  0.00    +0.000 C 
BRANCH  32  33
ATOM     33  C   UNL     1      45.546  10.693  11.544  0.00  0.00    +0.000 C 
BRANCH  33  34
ATOM     34  O   UNL     1      45.564  11.880  12.326  0.00  0.00    +0.000 OA
ATOM     35  H   UNL     1      45.525  12.630  11.708  0.00  0.00    +0.000 HD
ENDBRANCH  33  34
ENDBRANCH  32  33
ENDBRANCH   1  32
TORSDOF 9
ENDMDL
MODEL 7
REMARK VINA RESULT:    -6.945      3.760      4.677
REMARK INTER + INTRA:         -11.348
REMARK INTER:                 -10.459
REMARK INTRA:                  -0.888
REMARK UNBOUND:                -1.155
REMARK  Name = 
REMARK  9 active torsions:
REMARK  status: ('A' for Active; 'I' for Inactive)
REMARK    1  A    between atoms: N_1  and  C_2
REMARK    2  A    between atoms: C_6  and  C_7
REMARK    3  A    between atoms: C_7  and  C_8
REMARK    4  A    between atoms: C_11  and  C_12
REMARK    5  A    between atoms: C_12  and  N_13
REMARK    6  A    between atoms: N_13  and  C_14
REMARK    7  A    between atoms: C_14  and  C_15
REMARK    8  A    between atoms: C_15  and  O_16
REMARK    9  A    between atoms: C_17  and  C_19
REMARK                            x       y       z     vdW  Elec       q    Type
REMARK                         _______ _______ _______ _____ _____    ______ ____
ROOT
ATOM      1  N   UNL     1      46.813   6.268  13.538  0.00  0.00    +0.000 N 
ATOM      2  C   UNL     1      47.199   7.386  12.769  0.00  0.00    +0.000 C 
ATOM      3  O   UNL     1      46.379   8.010  12.101  0.00  0.00    +0.000 OA
ENDROOT
BRANCH   2   4
ATOM      4  C   UNL     1      48.613   7.822  12.753  0.00  0.00    +0.000 A 
ATOM      5  C   UNL     1      49.528   7.505  11.762  0.00  0.00    +0.000 A 
ATOM      6  S   UNL     1      51.061   8.227  11.983  0.00  0.00    +0.000 S 
ATOM      7  C   UNL     1      50.512   9.098  13.336  0.00  0.00    +0.000 A 
ATOM      8  N   UNL     1      51.307  10.015  13.950  0.00  0.00    +0.000 NA
ATOM      9  C   UNL     1      50.739  10.642  14.922  0.00  0.00    +0.000 A 
ATOM     10  N   UNL     1      49.459  10.403  15.366  0.00  0.00    +0.000 N 
ATOM     11  C   UNL     1      48.673   9.388  14.872  0.00  0.00    +0.000 A 
ATOM     12  O   UNL     1      47.660   9.028  15.459  0.00  0.00    +0.000 OA
ATOM     13  C   UNL     1      49.217   8.754  13.681  0.00  0.00    +0.000 A 
ATOM     14  H   UNL     1      49.105  10.874  16.186  0.00  0.00    +0.000 HD
ENDBRANCH   2   4
BRANCH   1  15
ATOM     15  C   UNL     1      45.384   5.929  13.517  0.00  0.00    +0.000 C 
BRANCH  15  19
ATOM     16  C   UNL     1      44.358   4.086   9.813  0.00  0.00    +0.000 A 
ATOM     17  C   UNL     1      43.588   5.158  10.254  0.00  0.00    +0.000 A 
ATOM     18  C   UNL     1      43.817   5.685  11.531  0.00  0.00    +0.000 A 
ATOM     19  C   UNL     1      44.821   5.149  12.345  0.00  0.00    +0.000 A 
ATOM     20  C   UNL     1      45.445   3.999  11.870  0.00  0.00    +0.000 A 
ATOM     21  N   UNL     1      45.242   3.464  10.633  0.00  0.00    +0.000 NA
BRANCH  16  22
ATOM     22  C   UNL     1      44.343   3.682   8.349  0.00  0.00    +0.000 C 
BRANCH  22  27
ATOM     23  C   UNL     1      47.391   2.492   6.384  0.00  0.00    +0.000 A 
ATOM     24  C   UNL     1      47.508   1.176   6.839  0.00  0.00    +0.000 A 
ATOM     25  C   UNL     1      46.657   0.691   7.834  0.00  0.00    +0.000 A 
ATOM     26  C   UNL     1      45.652   1.507   8.355  0.00  0.00    +0.000 A 
ATOM     27  C   UNL     1      45.487   2.816   7.878  0.00  0.00    +0.000 A 
ATOM     28  C   UNL     1      46.349   3.282   6.875  0.00  0.00    +0.000 A 
BRANCH  23  29
ATOM     29  N   UNL     1      48.148   2.928   5.284  0.00  0.00    +0.000 N 
ATOM     30  H   UNL     1      48.282   3.926   5.256  0.00  0.00    +0.000 HD
ATOM     31  H   UNL     1      47.809   2.555   4.402  0.00  0.00    +0.000 HD
ENDBRANCH  23  29
ENDBRANCH  22  27
ENDBRANCH  16  22
ENDBRANCH  15  19
ENDBRANCH   1  15
BRANCH   1  32
ATOM     32  C   UNL     1      47.723   5.613  14.501  0.00  0.00    +0.000 C 
BRANCH  32  33
ATOM     33  C   UNL     1      47.257   4.374  15.274  0.00  0.00    +0.000 C 
BRANCH  33  34
ATOM     34  O   UNL     1      47.429   3.199  14.493  0.00  0.00    +0.000 OA
ATOM     35  H   UNL     1      47.557   3.484  13.572  0.00  0.00    +0.000 HD
ENDBRANCH  33  34
ENDBRANCH  32  33
ENDBRANCH   1  32
TORSDOF 9
ENDMDL
MODEL 8
REMARK VINA RESULT:    -6.762      4.108      5.178
REMARK INTER + INTRA:         -11.080
REMARK INTER:                  -9.964
REMARK INTRA:                  -1.116
REMARK UNBOUND:                -1.155
REMARK  Name = 
REMARK  9 active torsions:
REMARK  status: ('A' for Active; 'I' for Inactive)
REMARK    1  A    between atoms: N_1  and  C_2
REMARK    2  A    between atoms: C_6  and  C_7
REMARK    3  A    between atoms: C_7  and  C_8
REMARK    4  A    between atoms: C_11  and  C_12
REMARK    5  A    between atoms: C_12  and  N_13
REMARK    6  A    between atoms: N_13  and  C_14
REMARK    7  A    between atoms: C_14  and  C_15
REMARK    8  A    between atoms: C_15  and  O_16
REMARK    9  A    between atoms: C_17  and  C_19
REMARK                            x       y       z     vdW  Elec       q    Type
REMARK                         _______ _______ _______ _____ _____    ______ ____
ROOT
ATOM      1  N   UNL     1      47.886   7.408  13.050  0.00  0.00    +0.000 N 
ATOM      2  C   UNL     1      47.308   8.665  13.328  0.00  0.00    +0.000 C 
ATOM      3  O   UNL     1      46.115   8.767  13.601  0.00  0.00    +0.000 OA
ENDROOT
BRANCH   2   4
ATOM      4  C   UNL     1      48.138   9.889  13.291  0.00  0.00    +0.000 A 
ATOM      5  C   UNL     1      48.227  10.752  12.212  0.00  0.00    +0.000 A 
ATOM      6  S   UNL     1      49.204  12.123  12.504  0.00  0.00    +0.000 S 
ATOM      7  C   UNL     1      49.431  11.678  14.130  0.00  0.00    +0.000 A 
ATOM      8  N   UNL     1      50.093  12.493  14.995  0.00  0.00    +0.000 NA
ATOM      9  C   UNL     1      50.135  12.055  16.206  0.00  0.00    +0.000 A 
ATOM     10  N   UNL     1      49.612  10.853  16.623  0.00  0.00    +0.000 N 
ATOM     11  C   UNL     1      49.067   9.934  15.757  0.00  0.00    +0.000 A 
ATOM     12  O   UNL     1      48.860   8.778  16.108  0.00  0.00    +0.000 OA
ATOM     13  C   UNL     1      48.867  10.446  14.411  0.00  0.00    +0.000 A 
ATOM     14  H   UNL     1      49.753  10.534  17.571  0.00  0.00    +0.000 HD
ENDBRANCH   2   4
BRANCH   1  15
ATOM     15  C   UNL     1      46.991   6.247  13.141  0.00  0.00    +0.000 C 
BRANCH  15  19
ATOM     16  C   UNL     1      44.945   4.664   9.755  0.00  0.00    +0.000 A 
ATOM     17  C   UNL     1      45.809   5.737   9.562  0.00  0.00    +0.000 A 
ATOM     18  C   UNL     1      46.381   6.363  10.677  0.00  0.00    +0.000 A 
ATOM     19  C   UNL     1      46.097   5.901  11.967  0.00  0.00    +0.000 A 
ATOM     20  C   UNL     1      45.122   4.912  12.063  0.00  0.00    +0.000 A 
ATOM     21  N   UNL     1      44.550   4.286  10.997  0.00  0.00    +0.000 NA
BRANCH  16  22
ATOM     22  C   UNL     1      44.542   3.784   8.585  0.00  0.00    +0.000 C 
BRANCH  22  27
ATOM     23  C   UNL     1      47.375   2.525   6.358  0.00  0.00    +0.000 A 
ATOM     24  C   UNL     1      47.494   1.203   6.794  0.00  0.00    +0.000 A 
ATOM     25  C   UNL     1      46.719   0.734   7.857  0.00  0.00    +0.000 A 
ATOM     26  C   UNL     1      45.785   1.574   8.466  0.00  0.00    +0.000 A 
ATOM     27  C   UNL     1      45.617   2.890   8.012  0.00  0.00    +0.000 A 
ATOM     28  C   UNL     1      46.402   3.340   6.941  0.00  0.00    +0.000 A 
BRANCH  23  29
ATOM     29  N   UNL     1      48.047   2.949   5.200  0.00  0.00    +0.000 N 
ATOM     30  H   UNL     1      49.047   2.836   5.248  0.00  0.00    +0.000 HD
ATOM     31  H   UNL     1      47.773   3.883   4.907  0.00  0.00    +0.000 HD
ENDBRANCH  23  29
ENDBRANCH  22  27
ENDBRANCH  16  22
ENDBRANCH  15  19
ENDBRANCH   1  15
BRANCH   1  32
ATOM     32  C   UNL     1      49.346   7.220  12.910  0.00  0.00    +0.000 C 
BRANCH  32  33
ATOM     33  C   UNL     1      50.033   7.531  11.576  0.00  0.00    +0.000 C 
BRANCH  33  34
ATOM     34  O   UNL     1      51.446   7.561  11.732  0.00  0.00    +0.000 OA
ATOM     35  H   UNL     1      51.834   7.309  10.876  0.00  0.00    +0.000 HD
ENDBRANCH  33  34
ENDBRANCH  32  33
ENDBRANCH   1  32
TORSDOF 9
ENDMDL
MODEL 9
REMARK VINA RESULT:    -6.581      1.892      3.072
REMARK INTER + INTRA:         -10.814
REMARK INTER:                  -9.793
REMARK INTRA:                  -1.022
REMARK UNBOUND:                -1.155
REMARK  Name = 
REMARK  9 active torsions:
REMARK  status: ('A' for Active; 'I' for Inactive)
REMARK    1  A    between atoms: N_1  and  C_2
REMARK    2  A    between atoms: C_6  and  C_7
REMARK    3  A    between atoms: C_7  and  C_8
REMARK    4  A    between atoms: C_11  and  C_12
REMARK    5  A    between atoms: C_12  and  N_13
REMARK    6  A    between atoms: N_13  and  C_14
REMARK    7  A    between atoms: C_14  and  C_15
REMARK    8  A    between atoms: C_15  and  O_16
REMARK    9  A    between atoms: C_17  and  C_19
REMARK                            x       y       z     vdW  Elec       q    Type
REMARK                         _______ _______ _______ _____ _____    ______ ____
ROOT
ATOM      1  N   UNL     1      48.798   7.329  15.597  0.00  0.00    +0.000 N 
ATOM      2  C   UNL     1      49.475   6.501  16.518  0.00  0.00    +0.000 C 
ATOM      3  O   UNL     1      49.934   5.415  16.175  0.00  0.00    +0.000 OA
ENDROOT
BRANCH   2   4
ATOM      4  C   UNL     1      49.638   6.933  17.923  0.00  0.00    +0.000 A 
ATOM      5  C   UNL     1      50.568   7.862  18.363  0.00  0.00    +0.000 A 
ATOM      6  S   UNL     1      50.455   8.213  20.031  0.00  0.00    +0.000 S 
ATOM      7  C   UNL     1      49.070   7.239  20.195  0.00  0.00    +0.000 A 
ATOM      8  N   UNL     1      48.386   7.185  21.369  0.00  0.00    +0.000 NA
ATOM      9  C   UNL     1      47.325   6.455  21.329  0.00  0.00    +0.000 A 
ATOM     10  N   UNL     1      46.909   5.738  20.231  0.00  0.00    +0.000 N 
ATOM     11  C   UNL     1      47.646   5.647  19.073  0.00  0.00    +0.000 A 
ATOM     12  O   UNL     1      47.393   4.799  18.226  0.00  0.00    +0.000 OA
ATOM     13  C   UNL     1      48.771   6.568  19.023  0.00  0.00    +0.000 A 
ATOM     14  H   UNL     1      46.111   5.121  20.294  0.00  0.00    +0.000 HD
ENDBRANCH   2   4
BRANCH   1  15
ATOM     15  C   UNL     1      48.712   6.832  14.218  0.00  0.00    +0.000 C 
BRANCH  15  19
ATOM     16  C   UNL     1      45.295   5.761  11.908  0.00  0.00    +0.000 A 
ATOM     17  C   UNL     1      45.588   7.111  12.066  0.00  0.00    +0.000 A 
ATOM     18  C   UNL     1      46.620   7.490  12.935  0.00  0.00    +0.000 A 
ATOM     19  C   UNL     1      47.354   6.517  13.622  0.00  0.00    +0.000 A 
ATOM     20  C   UNL     1      46.899   5.207  13.500  0.00  0.00    +0.000 A 
ATOM     21  N   UNL     1      45.900   4.811  12.664  0.00  0.00    +0.000 NA
BRANCH  16  22
ATOM     22  C   UNL     1      44.398   5.299  10.772  0.00  0.00    +0.000 C 
BRANCH  22  27
ATOM     23  C   UNL     1      46.268   3.644   7.886  0.00  0.00    +0.000 A 
ATOM     24  C   UNL     1      45.871   2.313   8.035  0.00  0.00    +0.000 A 
ATOM     25  C   UNL     1      45.064   1.929   9.108  0.00  0.00    +0.000 A 
ATOM     26  C   UNL     1      44.611   2.884  10.020  0.00  0.00    +0.000 A 
ATOM     27  C   UNL     1      44.960   4.234   9.861  0.00  0.00    +0.000 A 
ATOM     28  C   UNL     1      45.767   4.598   8.774  0.00  0.00    +0.000 A 
BRANCH  23  29
ATOM     29  N   UNL     1      46.955   4.050   6.730  0.00  0.00    +0.000 N 
ATOM     30  H   UNL     1      46.519   3.748   5.874  0.00  0.00    +0.000 HD
ATOM     31  H   UNL     1      47.946   3.826   6.763  0.00  0.00    +0.000 HD
ENDBRANCH  23  29
ENDBRANCH  22  27
ENDBRANCH  16  22
ENDBRANCH  15  19
ENDBRANCH   1  15
BRANCH   1  32
ATOM     32  C   UNL     1      48.404   8.717  15.918  0.00  0.00    +0.000 C 
BRANCH  32  33
ATOM     33  C   UNL     1      49.245   9.890  15.400  0.00  0.00    +0.000 C 
BRANCH  33  34
ATOM     34  O   UNL     1      48.410  10.931  14.909  0.00  0.00    +0.000 OA
ATOM     35  H   UNL     1      47.571  10.880  15.400  0.00  0.00    +0.000 HD
ENDBRANCH  33  34
ENDBRANCH  32  33
ENDBRANCH   1  32
TORSDOF 9
ENDMDL
