MODEL 1
REMARK VINA RESULT:    -8.029      0.000      0.000
REMARK INTER + INTRA:         -12.197
REMARK INTER:                 -11.315
REMARK INTRA:                  -0.882
REMARK UNBOUND:                -0.882
REMARK  Name = 
REMARK  7 active torsions:
REMARK  status: ('A' for Active; 'I' for Inactive)
REMARK    1  A    between atoms: C_2  and  C_3
REMARK    2  A    between atoms: C_6  and  O_7
REMARK    3  A    between atoms: O_7  and  C_8
REMARK    4  A    between atoms: C_8  and  C_9
REMARK    5  A    between atoms: C_9  and  C_10
REMARK    6  A    between atoms: C_15  and  O_16
REMARK    7  A    between atoms: O_16  and  C_17
REMARK                            x       y       z     vdW  Elec       q    Type
REMARK                         _______ _______ _______ _____ _____    ______ ____
ROOT
ATOM      1  C   UNL     1      45.063   4.896  12.806  0.00  0.00    +0.000 A 
ATOM      2  C   UNL     1      45.582   5.869  11.944  0.00  0.00    +0.000 A 
ATOM      3  C   UNL     1      46.847   6.407  12.182  0.00  0.00    +0.000 A 
ATOM      4  F   UNL     1      47.331   7.331  11.345  0.00  0.00    +0.000 F 
ATOM      5  C   UNL     1      47.602   6.011  13.280  0.00  0.00    +0.000 A 
ATOM      6  C   UNL     1      47.089   5.059  14.159  0.00  0.00    +0.000 A 
ATOM      7  C   UNL     1      45.837   4.485  13.909  0.00  0.00    +0.000 A 
ENDROOT
BRANCH   1   8
ATOM      8  C   UNL     1      43.672   4.339  12.591  0.00  0.00    +0.000 C 
BRANCH   8   9
ATOM      9  C   UNL     1      43.679   3.190  11.576  0.00  0.00    +0.000 C 
BRANCH   9  10
ATOM     10  O   UNL     1      43.520   3.697  10.246  0.00  0.00    +0.000 OA
BRANCH  10  14
ATOM     11  C   UNL     1      46.503   2.444   7.585  0.00  0.00    +0.000 A 
ATOM     12  C   UNL     1      46.171   3.800   7.633  0.00  0.00    +0.000 A 
ATOM     13  C   UNL     1      45.176   4.256   8.509  0.00  0.00    +0.000 A 
ATOM     14  C   UNL     1      44.502   3.363   9.347  0.00  0.00    +0.000 A 
ATOM     15  C   UNL     1      44.834   2.005   9.290  0.00  0.00    +0.000 A 
ATOM     16  C   UNL     1      45.829   1.545   8.416  0.00  0.00    +0.000 A 
BRANCH  11  18
ATOM     17  N   UNL     1      48.354   1.607   5.971  0.00  0.00    +0.000 NA
ATOM     18  C   UNL     1      47.527   1.983   6.689  0.00  0.00    +0.000 C 
ENDBRANCH  11  18
ENDBRANCH  10  14
ENDBRANCH   9  10
ENDBRANCH   8   9
ENDBRANCH   1   8
BRANCH   6  19
ATOM     19  O   UNL     1      47.891   4.746  15.231  0.00  0.00    +0.000 OA
BRANCH  19  20
ATOM     20  C   UNL     1      47.321   3.963  16.307  0.00  0.00    +0.000 C 
ATOM     21  C   UNL     1      47.350   4.556  17.722  0.00  0.00    +0.000 C 
ATOM     22  O   UNL     1      48.085   3.426  18.243  0.00  0.00    +0.000 OA
ATOM     23  C   UNL     1      48.222   2.877  16.911  0.00  0.00    +0.000 C 
ENDBRANCH  19  20
ENDBRANCH   6  19
TORSDOF 7
ENDMDL
MODEL 2
REMARK VINA RESULT:    -7.391      2.837      4.241
REMARK INTER + INTRA:         -11.298
REMARK INTER:                 -10.579
REMARK INTRA:                  -0.719
REMARK UNBOUND:                -0.882
REMARK  Name = 
REMARK  7 active torsions:
REMARK  status: ('A' for Active; 'I' for Inactive)
REMARK    1  A    between atoms: C_2  and  C_3
REMARK    2  A    between atoms: C_6  and  O_7
REMARK    3  A    between atoms: O_7  and  C_8
REMARK    4  A    between atoms: C_8  and  C_9
REMARK    5  A    between atoms: C_9  and  C_10
REMARK    6  A    between atoms: C_15  and  O_16
REMARK    7  A    between atoms: O_16  and  C_17
REMARK                            x       y       z     vdW  Elec       q    Type
REMARK                         _______ _______ _______ _____ _____    ______ ____
ROOT
ATOM      1  C   UNL     1      44.451   4.793  12.672  0.00  0.00    +0.000 A 
ATOM      2  C   UNL     1      45.670   4.558  13.318  0.00  0.00    +0.000 A 
ATOM      3  C   UNL     1      46.661   5.540  13.310  0.00  0.00    +0.000 A 
ATOM      4  F   UNL     1      47.819   5.303  13.937  0.00  0.00    +0.000 F 
ATOM      5  C   UNL     1      46.473   6.748  12.649  0.00  0.00    +0.000 A 
ATOM      6  C   UNL     1      45.272   6.986  11.983  0.00  0.00    +0.000 A 
ATOM      7  C   UNL     1      44.256   6.024  12.017  0.00  0.00    +0.000 A 
ENDROOT
BRANCH   1   8
ATOM      8  C   UNL     1      43.384   3.720  12.627  0.00  0.00    +0.000 C 
BRANCH   8   9
ATOM      9  C   UNL     1      43.551   2.814  11.402  0.00  0.00    +0.000 C 
BRANCH   9  10
ATOM     10  O   UNL     1      43.578   3.596  10.202  0.00  0.00    +0.000 OA
BRANCH  10  14
ATOM     11  C   UNL     1      46.583   2.430   7.526  0.00  0.00    +0.000 A 
ATOM     12  C   UNL     1      46.236   3.781   7.601  0.00  0.00    +0.000 A 
ATOM     13  C   UNL     1      45.234   4.208   8.482  0.00  0.00    +0.000 A 
ATOM     14  C   UNL     1      44.567   3.291   9.299  0.00  0.00    +0.000 A 
ATOM     15  C   UNL     1      44.914   1.939   9.216  0.00  0.00    +0.000 A 
ATOM     16  C   UNL     1      45.916   1.508   8.337  0.00  0.00    +0.000 A 
BRANCH  11  18
ATOM     17  N   UNL     1      48.445   1.653   5.894  0.00  0.00    +0.000 NA
ATOM     18  C   UNL     1      47.615   1.999   6.625  0.00  0.00    +0.000 C 
ENDBRANCH  11  18
ENDBRANCH  10  14
ENDBRANCH   9  10
ENDBRANCH   8   9
ENDBRANCH   1   8
BRANCH   6  19
ATOM     19  O   UNL     1      45.181   8.195  11.335  0.00  0.00    +0.000 OA
BRANCH  19  20
ATOM     20  C   UNL     1      45.084   9.396  12.137  0.00  0.00    +0.000 C 
ATOM     21  C   UNL     1      44.092  10.480  11.692  0.00  0.00    +0.000 C 
ATOM     22  O   UNL     1      45.134  11.478  11.603  0.00  0.00    +0.000 OA
ATOM     23  C   UNL     1      46.142  10.477  11.876  0.00  0.00    +0.000 C 
ENDBRANCH  19  20
ENDBRANCH   6  19
TORSDOF 7
ENDMDL
MODEL 3
REMARK VINA RESULT:    -6.895      2.401      3.726
REMARK INTER + INTRA:         -10.599
REMARK INTER:                  -9.877
REMARK INTRA:                  -0.722
REMARK UNBOUND:                -0.882
REMARK  Name = 
REMARK  7 active torsions:
REMARK  status: ('A' for Active; 'I' for Inactive)
REMARK    1  A    between atoms: C_2  and  C_3
REMARK    2  A    between atoms: C_6  and  O_7
REMARK    3  A    between atoms: O_7  and  C_8
REMARK    4  A    between atoms: C_8  and  C_9
REMARK    5  A    between atoms: C_9  and  C_10
REMARK    6  A    between atoms: C_15  and  O_16
REMARK    7  A    between atoms: O_16  and  C_17
REMARK                            x       y       z     vdW  Elec       q    Type
REMARK                         _______ _______ _______ _____ _____    ______ ____
ROOT
ATOM      1  C   UNL     1      45.007   5.024  12.841  0.00  0.00    +0.000 A 
ATOM      2  C   UNL     1      45.656   4.454  13.942  0.00  0.00    +0.000 A 
ATOM      3  C   UNL     1      46.956   4.843  14.261  0.00  0.00    +0.000 A 
ATOM      4  F   UNL     1      47.560   4.293  15.321  0.00  0.00    +0.000 F 
ATOM      5  C   UNL     1      47.638   5.777  13.490  0.00  0.00    +0.000 A 
ATOM      6  C   UNL     1      47.012   6.337  12.377  0.00  0.00    +0.000 A 
ATOM      7  C   UNL     1      45.694   5.981  12.070  0.00  0.00    +0.000 A 
ENDROOT
BRANCH   1   8
ATOM      8  C   UNL     1      43.615   4.576  12.450  0.00  0.00    +0.000 C 
BRANCH   8   9
ATOM      9  C   UNL     1      43.660   3.418  11.446  0.00  0.00    +0.000 C 
BRANCH   9  10
ATOM     10  O   UNL     1      43.693   3.920  10.104  0.00  0.00    +0.000 OA
BRANCH  10  14
ATOM     11  C   UNL     1      46.630   2.487   7.482  0.00  0.00    +0.000 A 
ATOM     12  C   UNL     1      45.948   1.576   8.293  0.00  0.00    +0.000 A 
ATOM     13  C   UNL     1      44.962   2.019   9.184  0.00  0.00    +0.000 A 
ATOM     14  C   UNL     1      44.643   3.376   9.276  0.00  0.00    +0.000 A 
ATOM     15  C   UNL     1      45.332   4.286   8.467  0.00  0.00    +0.000 A 
ATOM     16  C   UNL     1      46.319   3.847   7.574  0.00  0.00    +0.000 A 
BRANCH  11  18
ATOM     17  N   UNL     1      48.447   1.652   5.829  0.00  0.00    +0.000 NA
ATOM     18  C   UNL     1      47.636   2.028   6.567  0.00  0.00    +0.000 C 
ENDBRANCH  11  18
ENDBRANCH  10  14
ENDBRANCH   9  10
ENDBRANCH   8   9
ENDBRANCH   1   8
BRANCH   6  19
ATOM     19  O   UNL     1      47.768   7.230  11.657  0.00  0.00    +0.000 OA
BRANCH  19  20
ATOM     20  C   UNL     1      47.526   8.644  11.850  0.00  0.00    +0.000 C 
ATOM     21  C   UNL     1      48.727   9.597  11.777  0.00  0.00    +0.000 C 
ATOM     22  O   UNL     1      48.483  10.099  13.110  0.00  0.00    +0.000 OA
ATOM     23  C   UNL     1      47.430   9.127  13.304  0.00  0.00    +0.000 C 
ENDBRANCH  19  20
ENDBRANCH   6  19
TORSDOF 7
ENDMDL
MODEL 4
REMARK VINA RESULT:    -6.889      2.008      2.708
REMARK INTER + INTRA:         -10.590
REMARK INTER:                 -10.099
REMARK INTRA:                  -0.491
REMARK UNBOUND:                -0.882
REMARK  Name = 
REMARK  7 active torsions:
REMARK  status: ('A' for Active; 'I' for Inactive)
REMARK    1  A    between atoms: C_2  and  C_3
REMARK    2  A    between atoms: C_6  and  O_7
REMARK    3  A    between atoms: O_7  and  C_8
REMARK    4  A    between atoms: C_8  and  C_9
REMARK    5  A    between atoms: C_9  and  C_10
REMARK    6  A    between atoms: C_15  and  O_16
REMARK    7  A    between atoms: O_16  and  C_17
REMARK                            x       y       z     vdW  Elec       q    Type
REMARK                         _______ _______ _______ _____ _____    ______ ____
ROOT
ATOM      1  C   UNL     1      45.769   6.233  12.064  0.00  0.00    +0.000 A 
ATOM      2  C   UNL     1      44.968   7.379  12.139  0.00  0.00    +0.000 A 
ATOM      3  C   UNL     1      45.518   8.584  12.577  0.00  0.00    +0.000 A 
ATOM      4  F   UNL     1      44.741   9.672  12.636  0.00  0.00    +0.000 F 
ATOM      5  C   UNL     1      46.849   8.669  12.967  0.00  0.00    +0.000 A 
ATOM      6  C   UNL     1      47.652   7.530  12.919  0.00  0.00    +0.000 A 
ATOM      7  C   UNL     1      47.121   6.325  12.446  0.00  0.00    +0.000 A 
ENDROOT
BRANCH   1   8
ATOM      8  C   UNL     1      45.177   4.906  11.640  0.00  0.00    +0.000 C 
BRANCH   8   9
ATOM      9  C   UNL     1      43.965   5.102  10.722  0.00  0.00    +0.000 C 
BRANCH   9  10
ATOM     10  O   UNL     1      43.630   3.872  10.067  0.00  0.00    +0.000 OA
BRANCH  10  14
ATOM     11  C   UNL     1      46.607   2.453   7.484  0.00  0.00    +0.000 A 
ATOM     12  C   UNL     1      45.967   1.549   8.335  0.00  0.00    +0.000 A 
ATOM     13  C   UNL     1      44.969   1.987   9.214  0.00  0.00    +0.000 A 
ATOM     14  C   UNL     1      44.597   3.334   9.254  0.00  0.00    +0.000 A 
ATOM     15  C   UNL     1      45.244   4.237   8.405  0.00  0.00    +0.000 A 
ATOM     16  C   UNL     1      46.243   3.802   7.523  0.00  0.00    +0.000 A 
BRANCH  11  18
ATOM     17  N   UNL     1      48.449   1.626   5.854  0.00  0.00    +0.000 NA
ATOM     18  C   UNL     1      47.626   1.998   6.581  0.00  0.00    +0.000 C 
ENDBRANCH  11  18
ENDBRANCH  10  14
ENDBRANCH   9  10
ENDBRANCH   8   9
ENDBRANCH   1   8
BRANCH   6  19
ATOM     19  O   UNL     1      48.947   7.698  13.349  0.00  0.00    +0.000 OA
BRANCH  19  20
ATOM     20  C   UNL     1      49.204   7.681  14.773  0.00  0.00    +0.000 C 
ATOM     21  C   UNL     1      50.603   7.266  15.247  0.00  0.00    +0.000 C 
ATOM     22  O   UNL     1      50.074   6.187  16.051  0.00  0.00    +0.000 OA
ATOM     23  C   UNL     1      48.745   6.429  15.534  0.00  0.00    +0.000 C 
ENDBRANCH  19  20
ENDBRANCH   6  19
TORSDOF 7
ENDMDL
MODEL 5
REMARK VINA RESULT:    -6.324      3.687      7.839
REMARK INTER + INTRA:          -9.794
REMARK INTER:                  -9.172
REMARK INTRA:                  -0.622
REMARK UNBOUND:                -0.882
REMARK  Name = 
REMARK  7 active torsions:
REMARK  status: ('A' for Active; 'I' for Inactive)
REMARK    1  A    between atoms: C_2  and  C_3
REMARK    2  A    between atoms: C_6  and  O_7
REMARK    3  A    between atoms: O_7  and  C_8
REMARK    4  A    between atoms: C_8  and  C_9
REMARK    5  A    between atoms: C_9  and  C_10
REMARK    6  A    between atoms: C_15  and  O_16
REMARK    7  A    between atoms: O_16  and  C_17
REMARK                            x       y       z     vdW  Elec       q    Type
REMARK                         _______ _______ _______ _____ _____    ______ ____
ROOT
ATOM      1  C   UNL     1      45.016   5.310  10.675  0.00  0.00    +0.000 A 
ATOM      2  C   UNL     1      44.291   4.172  11.047  0.00  0.00    +0.000 A 
ATOM      3  C   UNL     1      44.254   3.064  10.201  0.00  0.00    +0.000 A 
ATOM      4  F   UNL     1      43.562   1.981  10.575  0.00  0.00    +0.000 F 
ATOM      5  C   UNL     1      44.907   3.072   8.974  0.00  0.00    +0.000 A 
ATOM      6  C   UNL     1      45.614   4.207   8.581  0.00  0.00    +0.000 A 
ATOM      7  C   UNL     1      45.689   5.311   9.438  0.00  0.00    +0.000 A 
ENDROOT
BRANCH   1   8
ATOM      8  C   UNL     1      45.025   6.540  11.557  0.00  0.00    +0.000 C 
BRANCH   8   9
ATOM      9  C   UNL     1      46.434   7.135  11.674  0.00  0.00    +0.000 C 
BRANCH   9  10
ATOM     10  O   UNL     1      47.387   6.108  11.974  0.00  0.00    +0.000 OA
BRANCH  10  14
ATOM     11  C   UNL     1      47.828   5.169  16.033  0.00  0.00    +0.000 A 
ATOM     12  C   UNL     1      47.101   4.299  15.216  0.00  0.00    +0.000 A 
ATOM     13  C   UNL     1      46.930   4.582  13.854  0.00  0.00    +0.000 A 
ATOM     14  C   UNL     1      47.484   5.736  13.292  0.00  0.00    +0.000 A 
ATOM     15  C   UNL     1      48.205   6.607  14.115  0.00  0.00    +0.000 A 
ATOM     16  C   UNL     1      48.379   6.327  15.478  0.00  0.00    +0.000 A 
BRANCH  11  18
ATOM     17  N   UNL     1      48.149   4.637  18.552  0.00  0.00    +0.000 NA
ATOM     18  C   UNL     1      48.005   4.872  17.427  0.00  0.00    +0.000 C 
ENDBRANCH  11  18
ENDBRANCH  10  14
ENDBRANCH   9  10
ENDBRANCH   8   9
ENDBRANCH   1   8
BRANCH   6  19
ATOM     19  O   UNL     1      46.206   4.139   7.342  0.00  0.00    +0.000 OA
BRANCH  19  20
ATOM     20  C   UNL     1      46.433   2.832   6.764  0.00  0.00    +0.000 C 
ATOM     21  C   UNL     1      47.693   2.065   7.190  0.00  0.00    +0.000 C 
ATOM     22  O   UNL     1      48.163   1.965   5.827  0.00  0.00    +0.000 OA
ATOM     23  C   UNL     1      47.079   2.806   5.371  0.00  0.00    +0.000 C 
ENDBRANCH  19  20
ENDBRANCH   6  19
TORSDOF 7
ENDMDL
MODEL 6
REMARK VINA RESULT:    -6.312      3.444      5.556
REMARK INTER + INTRA:          -9.777
REMARK INTER:                  -9.395
REMARK INTRA:                  -0.383
REMARK UNBOUND:                -0.882
REMARK  Name = 
REMARK  7 active torsions:
REMARK  status: ('A' for Active; 'I' for Inactive)
REMARK    1  A    between atoms: C_2  and  C_3
REMARK    2  A    between atoms: C_6  and  O_7
REMARK    3  A    between atoms: O_7  and  C_8
REMARK    4  A    between atoms: C_8  and  C_9
REMARK    5  A    between atoms: C_9  and  C_10
REMARK    6  A    between atoms: C_15  and  O_16
REMARK    7  A    between atoms: O_16  and  C_17
REMARK                            x       y       z     vdW  Elec       q    Type
REMARK                         _______ _______ _______ _____ _____    ______ ____
ROOT
ATOM      1  C   UNL     1      45.142   6.725  11.758  0.00  0.00    +0.000 A 
ATOM      2  C   UNL     1      45.869   7.221  12.847  0.00  0.00    +0.000 A 
ATOM      3  C   UNL     1      45.867   8.589  13.120  0.00  0.00    +0.000 A 
ATOM      4  F   UNL     1      46.561   9.046  14.168  0.00  0.00    +0.000 F 
ATOM      5  C   UNL     1      45.174   9.483  12.313  0.00  0.00    +0.000 A 
ATOM      6  C   UNL     1      44.464   9.006  11.212  0.00  0.00    +0.000 A 
ATOM      7  C   UNL     1      44.428   7.631  10.951  0.00  0.00    +0.000 A 
ENDROOT
BRANCH   1   8
ATOM      8  C   UNL     1      45.174   5.251  11.418  0.00  0.00    +0.000 C 
BRANCH   8   9
ATOM      9  C   UNL     1      43.776   4.627  11.499  0.00  0.00    +0.000 C 
BRANCH   9  10
ATOM     10  O   UNL     1      43.362   4.155  10.211  0.00  0.00    +0.000 OA
BRANCH  10  14
ATOM     11  C   UNL     1      46.359   2.483   7.808  0.00  0.00    +0.000 A 
ATOM     12  C   UNL     1      46.123   3.857   7.730  0.00  0.00    +0.000 A 
ATOM     13  C   UNL     1      45.126   4.452   8.516  0.00  0.00    +0.000 A 
ATOM     14  C   UNL     1      44.356   3.680   9.391  0.00  0.00    +0.000 A 
ATOM     15  C   UNL     1      44.592   2.304   9.461  0.00  0.00    +0.000 A 
ATOM     16  C   UNL     1      45.588   1.706   8.677  0.00  0.00    +0.000 A 
BRANCH  11  18
ATOM     17  N   UNL     1      48.210   1.395   6.351  0.00  0.00    +0.000 NA
ATOM     18  C   UNL     1      47.384   1.880   7.004  0.00  0.00    +0.000 C 
ENDBRANCH  11  18
ENDBRANCH  10  14
ENDBRANCH   9  10
ENDBRANCH   8   9
ENDBRANCH   1   8
BRANCH   6  19
ATOM     19  O   UNL     1      43.830   9.961  10.454  0.00  0.00    +0.000 OA
BRANCH  19  20
ATOM     20  C   UNL     1      42.679  10.632  11.022  0.00  0.00    +0.000 C 
ATOM     21  C   UNL     1      41.341   9.881  11.034  0.00  0.00    +0.000 C 
ATOM     22  O   UNL     1      40.683  10.922  10.278  0.00  0.00    +0.000 OA
ATOM     23  C   UNL     1      41.941  11.615  10.102  0.00  0.00    +0.000 C 
ENDBRANCH  19  20
ENDBRANCH   6  19
TORSDOF 7
ENDMDL
MODEL 7
REMARK VINA RESULT:    -6.161      3.822      7.696
REMARK INTER + INTRA:          -9.564
REMARK INTER:                  -8.886
REMARK INTRA:                  -0.677
REMARK UNBOUND:                -0.882
REMARK  Name = 
REMARK  7 active torsions:
REMARK  status: ('A' for Active; 'I' for Inactive)
REMARK    1  A    between atoms: C_2  and  C_3
REMARK    2  A    between atoms: C_6  and  O_7
REMARK    3  A    between atoms: O_7  and  C_8
REMARK    4  A    between atoms: C_8  and  C_9
REMARK    5  A    between atoms: C_9  and  C_10
REMARK    6  A    between atoms: C_15  and  O_16
REMARK    7  A    between atoms: O_16  and  C_17
REMARK                            x       y       z     vdW  Elec       q    Type
REMARK                         _______ _______ _______ _____ _____    ______ ____
ROOT
ATOM      1  C   UNL     1      44.850   5.194  10.600  0.00  0.00    +0.000 A 
ATOM      2  C   UNL     1      44.112   4.204  11.259  0.00  0.00    +0.000 A 
ATOM      3  C   UNL     1      43.949   2.950  10.669  0.00  0.00    +0.000 A 
ATOM      4  F   UNL     1      43.246   2.012  11.315  0.00  0.00    +0.000 F 
ATOM      5  C   UNL     1      44.488   2.666   9.421  0.00  0.00    +0.000 A 
ATOM      6  C   UNL     1      45.207   3.650   8.743  0.00  0.00    +0.000 A 
ATOM      7  C   UNL     1      45.408   4.899   9.342  0.00  0.00    +0.000 A 
ENDROOT
BRANCH   1   8
ATOM      8  C   UNL     1      44.993   6.576  11.201  0.00  0.00    +0.000 C 
BRANCH   8   9
ATOM      9  C   UNL     1      45.727   6.528  12.547  0.00  0.00    +0.000 C 
BRANCH   9  10
ATOM     10  O   UNL     1      46.999   5.886  12.400  0.00  0.00    +0.000 OA
BRANCH  10  14
ATOM     11  C   UNL     1      50.378   8.213  13.246  0.00  0.00    +0.000 A 
ATOM     12  C   UNL     1      49.780   7.494  14.283  0.00  0.00    +0.000 A 
ATOM     13  C   UNL     1      48.646   6.707  14.039  0.00  0.00    +0.000 A 
ATOM     14  C   UNL     1      48.098   6.629  12.755  0.00  0.00    +0.000 A 
ATOM     15  C   UNL     1      48.697   7.355  11.722  0.00  0.00    +0.000 A 
ATOM     16  C   UNL     1      49.832   8.143  11.962  0.00  0.00    +0.000 A 
BRANCH  11  18
ATOM     17  N   UNL     1      52.479   9.665  13.708  0.00  0.00    +0.000 NA
ATOM     18  C   UNL     1      51.543   9.014  13.501  0.00  0.00    +0.000 C 
ENDBRANCH  11  18
ENDBRANCH  10  14
ENDBRANCH   9  10
ENDBRANCH   8   9
ENDBRANCH   1   8
BRANCH   6  19
ATOM     19  O   UNL     1      45.682   3.292   7.504  0.00  0.00    +0.000 OA
BRANCH  19  20
ATOM     20  C   UNL     1      47.010   2.722   7.418  0.00  0.00    +0.000 C 
ATOM     21  C   UNL     1      47.687   2.680   6.041  0.00  0.00    +0.000 C 
ATOM     22  O   UNL     1      47.848   1.245   6.101  0.00  0.00    +0.000 OA
ATOM     23  C   UNL     1      47.091   1.192   7.332  0.00  0.00    +0.000 C 
ENDBRANCH  19  20
ENDBRANCH   6  19
TORSDOF 7
ENDMDL
MODEL 8
REMARK VINA RESULT:    -6.110      3.837      8.382
REMARK INTER + INTRA:          -9.492
REMARK INTER:                  -9.368
REMARK INTRA:                  -0.124
REMARK UNBOUND:                -0.882
REMARK  Name = 
REMARK  7 active torsions:
REMARK  status: ('A' for Active; 'I' for Inactive)
REMARK    1  A    between atoms: C_2  and  C_3
REMARK    2  A    between atoms: C_6  and  O_7
REMARK    3  A    between atoms: O_7  and  C_8
REMARK    4  A    between atoms: C_8  and  C_9
REMARK    5  A    between atoms: C_9  and  C_10
REMARK    6  A    between atoms: C_15  and  O_16
REMARK    7  A    between atoms: O_16  and  C_17
REMARK                            x       y       z     vdW  Elec       q    Type
REMARK                         _______ _______ _______ _____ _____    ______ ____
ROOT
ATOM      1  C   UNL     1      45.180   4.782  12.151  0.00  0.00    +0.000 A 
ATOM      2  C   UNL     1      44.274   3.754  12.437  0.00  0.00    +0.000 A 
ATOM      3  C   UNL     1      43.723   3.003  11.399  0.00  0.00    +0.000 A 
ATOM      4  F   UNL     1      42.864   2.019  11.689  0.00  0.00    +0.000 F 
ATOM      5  C   UNL     1      44.039   3.268  10.072  0.00  0.00    +0.000 A 
ATOM      6  C   UNL     1      44.924   4.304   9.771  0.00  0.00    +0.000 A 
ATOM      7  C   UNL     1      45.510   5.039  10.807  0.00  0.00    +0.000 A 
ENDROOT
BRANCH   1   8
ATOM      8  C   UNL     1      45.748   5.640  13.261  0.00  0.00    +0.000 C 
BRANCH   8   9
ATOM      9  C   UNL     1      47.002   5.006  13.874  0.00  0.00    +0.000 C 
BRANCH   9  10
ATOM     10  O   UNL     1      46.644   4.119  14.941  0.00  0.00    +0.000 OA
BRANCH  10  14
ATOM     11  C   UNL     1      49.035   4.613  18.345  0.00  0.00    +0.000 A 
ATOM     12  C   UNL     1      48.229   3.476  18.248  0.00  0.00    +0.000 A 
ATOM     13  C   UNL     1      47.414   3.279  17.126  0.00  0.00    +0.000 A 
ATOM     14  C   UNL     1      47.395   4.213  16.086  0.00  0.00    +0.000 A 
ATOM     15  C   UNL     1      48.199   5.353  16.191  0.00  0.00    +0.000 A 
ATOM     16  C   UNL     1      49.016   5.554  17.312  0.00  0.00    +0.000 A 
BRANCH  11  18
ATOM     17  N   UNL     1      50.547   4.971  20.423  0.00  0.00    +0.000 NA
ATOM     18  C   UNL     1      49.872   4.808  19.495  0.00  0.00    +0.000 C 
ENDBRANCH  11  18
ENDBRANCH  10  14
ENDBRANCH   9  10
ENDBRANCH   8   9
ENDBRANCH   1   8
BRANCH   6  19
ATOM     19  O   UNL     1      45.159   4.514   8.433  0.00  0.00    +0.000 OA
BRANCH  19  20
ATOM     20  C   UNL     1      45.468   3.369   7.604  0.00  0.00    +0.000 C 
ATOM     21  C   UNL     1      46.236   2.204   8.243  0.00  0.00    +0.000 C 
ATOM     22  O   UNL     1      47.303   2.299   7.272  0.00  0.00    +0.000 OA
ATOM     23  C   UNL     1      46.709   3.491   6.708  0.00  0.00    +0.000 C 
ENDBRANCH  19  20
ENDBRANCH   6  19
TORSDOF 7
ENDMDL
MODEL 9
REMARK VINA RESULT:    -5.450      3.593      4.992
REMARK INTER + INTRA:          -8.563
REMARK INTER:                  -7.458
REMARK INTRA:                  -1.104
REMARK UNBOUND:                -0.882
REMARK  Name = 
REMARK  7 active torsions:
REMARK  status: ('A' for Active; 'I' for Inactive)
REMARK    1  A    between atoms: C_2  and  C_3
REMARK    2  A    between atoms: C_6  and  O_7
REMARK    3  A    between atoms: O_7  and  C_8
REMARK    4  A    between atoms: C_8  and  C_9
REMARK    5  A    between atoms: C_9  and  C_10
REMARK    6  A    between atoms: C_15  and  O_16
REMARK    7  A    between atoms: O_16  and  C_17
REMARK                            x       y       z     vdW  Elec       q    Type
REMARK                         _______ _______ _______ _____ _____    ______ ____
ROOT
ATOM      1  C   UNL     1      49.119   8.346  14.220  0.00  0.00    +0.000 A 
ATOM      2  C   UNL     1      48.633   9.275  15.147  0.00  0.00    +0.000 A 
ATOM      3  C   UNL     1      48.492   8.913  16.487  0.00  0.00    +0.000 A 
ATOM      4  F   UNL     1      48.032   9.815  17.361  0.00  0.00    +0.000 F 
ATOM      5  C   UNL     1      48.805   7.631  16.923  0.00  0.00    +0.000 A 
ATOM      6  C   UNL     1      49.270   6.689  16.007  0.00  0.00    +0.000 A 
ATOM      7  C   UNL     1      49.450   7.052  14.668  0.00  0.00    +0.000 A 
ENDROOT
BRANCH   1   8
ATOM      8  C   UNL     1      49.230   8.705  12.754  0.00  0.00    +0.000 C 
BRANCH   8   9
ATOM      9  C   UNL     1      48.310   7.832  11.893  0.00  0.00    +0.000 C 
BRANCH   9  10
ATOM     10  O   UNL     1      46.939   8.049  12.247  0.00  0.00    +0.000 OA
BRANCH  10  14
ATOM     11  C   UNL     1      44.531   4.639  11.894  0.00  0.00    +0.000 A 
ATOM     12  C   UNL     1      44.104   5.828  11.299  0.00  0.00    +0.000 A 
ATOM     13  C   UNL     1      44.882   6.990  11.398  0.00  0.00    +0.000 A 
ATOM     14  C   UNL     1      46.095   6.977  12.092  0.00  0.00    +0.000 A 
ATOM     15  C   UNL     1      46.515   5.785  12.692  0.00  0.00    +0.000 A 
ATOM     16  C   UNL     1      45.740   4.621  12.594  0.00  0.00    +0.000 A 
BRANCH  11  18
ATOM     17  N   UNL     1      43.088   2.492  11.691  0.00  0.00    +0.000 NA
ATOM     18  C   UNL     1      43.733   3.450  11.785  0.00  0.00    +0.000 C 
ENDBRANCH  11  18
ENDBRANCH  10  14
ENDBRANCH   9  10
ENDBRANCH   8   9
ENDBRANCH   1   8
BRANCH   6  19
ATOM     19  O   UNL     1      49.530   5.440  16.519  0.00  0.00    +0.000 OA
BRANCH  19  20
ATOM     20  C   UNL     1      48.440   4.713  17.136  0.00  0.00    +0.000 C 
ATOM     21  C   UNL     1      48.615   3.204  17.356  0.00  0.00    +0.000 C 
ATOM     22  O   UNL     1      47.438   2.896  16.578  0.00  0.00    +0.000 OA
ATOM     23  C   UNL     1      47.294   4.287  16.209  0.00  0.00    +0.000 C 
ENDBRANCH  19  20
ENDBRANCH   6  19
TORSDOF 7
ENDMDL
