MODEL 1
REMARK VINA RESULT:    -6.973      0.000      0.000
REMARK INTER + INTRA:         -11.857
REMARK INTER:                 -10.030
REMARK INTRA:                  -1.828
REMARK UNBOUND:                -1.828
REMARK  Name = 
REMARK  9 active torsions:
REMARK  status: ('A' for Active; 'I' for Inactive)
REMARK    1  A    between atoms: C_1  and  C_2
REMARK    2  A    between atoms: C_2  and  N_3
REMARK    3  A    between atoms: C_2  and  C_21
REMARK    4  A    between atoms: C_7  and  C_8
REMARK    5  A    between atoms: C_8  and  N_9
REMARK    6  A    between atoms: N_9  and  C_10
REMARK    7  A    between atoms: C_10  and  C_11
REMARK    8  A    between atoms: C_11  and  O_12
REMARK    9  A    between atoms: C_21  and  C_23
REMARK                            x       y       z     vdW  Elec       q    Type
REMARK                         _______ _______ _______ _____ _____    ______ ____
ROOT
ATOM      1  N   UNL     1      49.973   8.244  15.105  0.00  0.00    +0.000 N 
ATOM      2  C   UNL     1      49.027   8.144  14.103  0.00  0.00    +0.000 A 
ATOM      3  C   UNL     1      47.784   8.729  14.332  0.00  0.00    +0.000 A 
ATOM      4  C   UNL     1      46.716   8.447  13.482  0.00  0.00    +0.000 A 
ATOM      5  C   UNL     1      46.906   7.596  12.398  0.00  0.00    +0.000 A 
ATOM      6  C   UNL     1      48.207   7.161  12.174  0.00  0.00    +0.000 A 
ATOM      7  N   UNL     1      49.252   7.383  13.017  0.00  0.00    +0.000 NA
ATOM      8  H   UNL     1      50.119   9.175  15.483  0.00  0.00    +0.000 HD
ENDROOT
BRANCH   1  10
ATOM      9  C   UNL     1      52.418   8.053  14.727  0.00  0.00    +0.000 C 
ATOM     10  C   UNL     1      51.140   7.359  15.182  0.00  0.00    +0.000 C 
BRANCH  10  11
ATOM     11  C   UNL     1      51.327   7.001  16.672  0.00  0.00    +0.000 C 
ATOM     12  O   UNL     1      51.696   7.882  17.459  0.00  0.00    +0.000 OA
BRANCH  11  13
ATOM     13  C   UNL     1      50.997   5.668  17.190  0.00  0.00    +0.000 A 
ATOM     14  C   UNL     1      51.900   4.656  17.464  0.00  0.00    +0.000 A 
ATOM     15  S   UNL     1      51.136   3.131  17.671  0.00  0.00    +0.000 S 
ATOM     16  C   UNL     1      49.588   3.813  17.481  0.00  0.00    +0.000 A 
ATOM     17  N   UNL     1      48.461   3.054  17.438  0.00  0.00    +0.000 NA
ATOM     18  C   UNL     1      47.367   3.736  17.328  0.00  0.00    +0.000 A 
ATOM     19  N   UNL     1      47.294   5.108  17.309  0.00  0.00    +0.000 N 
ATOM     20  C   UNL     1      48.400   5.913  17.458  0.00  0.00    +0.000 A 
ATOM     21  O   UNL     1      48.293   7.104  17.729  0.00  0.00    +0.000 OA
ATOM     22  C   UNL     1      49.656   5.189  17.401  0.00  0.00    +0.000 A 
ATOM     23  H   UNL     1      46.402   5.579  17.359  0.00  0.00    +0.000 HD
ENDBRANCH  11  13
ENDBRANCH  10  11
ENDBRANCH   1  10
BRANCH   5  24
ATOM     24  C   UNL     1      45.745   7.043  11.612  0.00  0.00    +0.000 C 
BRANCH  24  25
ATOM     25  N   UNL     1      45.482   5.638  11.852  0.00  0.00    +0.000 N 
ATOM     26  C   UNL     1      45.215   4.804  10.787  0.00  0.00    +0.000 A 
ATOM     27  N   UNL     1      45.550   5.200   9.548  0.00  0.00    +0.000 NA
ATOM     28  C   UNL     1      45.364   4.333   8.534  0.00  0.00    +0.000 A 
ATOM     29  C   UNL     1      44.828   3.077   8.698  0.00  0.00    +0.000 A 
ATOM     30  C   UNL     1      44.475   2.770   9.984  0.00  0.00    +0.000 A 
ATOM     31  N   UNL     1      44.666   3.601  11.025  0.00  0.00    +0.000 NA
BRANCH  25  32
ATOM     32  C   UNL     1      45.174   5.179  13.203  0.00  0.00    +0.000 C 
BRANCH  32  33
ATOM     33  C   UNL     1      46.412   4.574  13.877  0.00  0.00    +0.000 C 
BRANCH  33  34
ATOM     34  O   UNL     1      46.516   3.181  13.581  0.00  0.00    +0.000 OA
ATOM     35  H   UNL     1      46.942   3.114  12.708  0.00  0.00    +0.000 HD
ENDBRANCH  33  34
ENDBRANCH  32  33
ENDBRANCH  25  32
ENDBRANCH  24  25
ENDBRANCH   5  24
TORSDOF 8
ENDMDL
MODEL 2
REMARK VINA RESULT:    -6.969      1.667      2.170
REMARK INTER + INTRA:         -11.852
REMARK INTER:                 -10.437
REMARK INTRA:                  -1.416
REMARK UNBOUND:                -1.828
REMARK  Name = 
REMARK  9 active torsions:
REMARK  status: ('A' for Active; 'I' for Inactive)
REMARK    1  A    between atoms: C_1  and  C_2
REMARK    2  A    between atoms: C_2  and  N_3
REMARK    3  A    between atoms: C_2  and  C_21
REMARK    4  A    between atoms: C_7  and  C_8
REMARK    5  A    between atoms: C_8  and  N_9
REMARK    6  A    between atoms: N_9  and  C_10
REMARK    7  A    between atoms: C_10  and  C_11
REMARK    8  A    between atoms: C_11  and  O_12
REMARK    9  A    between atoms: C_21  and  C_23
REMARK                            x       y       z     vdW  Elec       q    Type
REMARK                         _______ _______ _______ _____ _____    ______ ____
ROOT
ATOM      1  N   UNL     1      48.134   8.106  14.525  0.00  0.00    +0.000 N 
ATOM      2  C   UNL     1      47.402   7.695  13.428  0.00  0.00    +0.000 A 
ATOM      3  C   UNL     1      46.087   8.141  13.329  0.00  0.00    +0.000 A 
ATOM      4  C   UNL     1      45.225   7.565  12.397  0.00  0.00    +0.000 A 
ATOM      5  C   UNL     1      45.694   6.561  11.557  0.00  0.00    +0.000 A 
ATOM      6  C   UNL     1      47.052   6.270  11.637  0.00  0.00    +0.000 A 
ATOM      7  N   UNL     1      47.898   6.783  12.572  0.00  0.00    +0.000 NA
ATOM      8  H   UNL     1      48.115   9.102  14.722  0.00  0.00    +0.000 HD
ENDROOT
BRANCH   1  10
ATOM      9  C   UNL     1      50.601   8.257  14.748  0.00  0.00    +0.000 C 
ATOM     10  C   UNL     1      49.350   7.416  14.968  0.00  0.00    +0.000 C 
BRANCH  10  11
ATOM     11  C   UNL     1      49.210   7.206  16.492  0.00  0.00    +0.000 C 
ATOM     12  O   UNL     1      48.469   7.958  17.135  0.00  0.00    +0.000 OA
BRANCH  11  13
ATOM     13  C   UNL     1      49.867   6.086  17.177  0.00  0.00    +0.000 A 
ATOM     14  C   UNL     1      51.045   6.154  17.899  0.00  0.00    +0.000 A 
ATOM     15  S   UNL     1      51.712   4.603  18.217  0.00  0.00    +0.000 S 
ATOM     16  C   UNL     1      50.399   3.819  17.469  0.00  0.00    +0.000 A 
ATOM     17  N   UNL     1      50.367   2.471  17.288  0.00  0.00    +0.000 NA
ATOM     18  C   UNL     1      49.278   2.038  16.739  0.00  0.00    +0.000 A 
ATOM     19  N   UNL     1      48.201   2.820  16.403  0.00  0.00    +0.000 N 
ATOM     20  C   UNL     1      48.151   4.170  16.669  0.00  0.00    +0.000 A 
ATOM     21  O   UNL     1      47.093   4.790  16.635  0.00  0.00    +0.000 OA
ATOM     22  C   UNL     1      49.417   4.720  17.114  0.00  0.00    +0.000 A 
ATOM     23  H   UNL     1      47.331   2.403  16.105  0.00  0.00    +0.000 HD
ENDBRANCH  11  13
ENDBRANCH  10  11
ENDBRANCH   1  10
BRANCH   5  24
ATOM     24  C   UNL     1      44.758   5.721  10.726  0.00  0.00    +0.000 C 
BRANCH  24  25
ATOM     25  N   UNL     1      45.082   4.309  10.714  0.00  0.00    +0.000 N 
ATOM     26  C   UNL     1      45.417   3.698   9.523  0.00  0.00    +0.000 A 
ATOM     27  N   UNL     1      45.786   4.459   8.480  0.00  0.00    +0.000 NA
ATOM     28  C   UNL     1      46.195   3.838   7.356  0.00  0.00    +0.000 A 
ATOM     29  C   UNL     1      46.230   2.471   7.214  0.00  0.00    +0.000 A 
ATOM     30  C   UNL     1      45.797   1.772   8.308  0.00  0.00    +0.000 A 
ATOM     31  N   UNL     1      45.402   2.356   9.454  0.00  0.00    +0.000 NA
BRANCH  25  32
ATOM     32  C   UNL     1      44.742   3.476  11.863  0.00  0.00    +0.000 C 
BRANCH  32  33
ATOM     33  C   UNL     1      43.227   3.253  11.954  0.00  0.00    +0.000 C 
BRANCH  33  34
ATOM     34  O   UNL     1      42.889   1.924  11.557  0.00  0.00    +0.000 OA
ATOM     35  H   UNL     1      42.226   1.604  12.192  0.00  0.00    +0.000 HD
ENDBRANCH  33  34
ENDBRANCH  32  33
ENDBRANCH  25  32
ENDBRANCH  24  25
ENDBRANCH   5  24
TORSDOF 8
ENDMDL
MODEL 3
REMARK VINA RESULT:    -6.875      1.968      2.296
REMARK INTER + INTRA:         -11.716
REMARK INTER:                 -10.203
REMARK INTRA:                  -1.513
REMARK UNBOUND:                -1.828
REMARK  Name = 
REMARK  9 active torsions:
REMARK  status: ('A' for Active; 'I' for Inactive)
REMARK    1  A    between atoms: C_1  and  C_2
REMARK    2  A    between atoms: C_2  and  N_3
REMARK    3  A    between atoms: C_2  and  C_21
REMARK    4  A    between atoms: C_7  and  C_8
REMARK    5  A    between atoms: C_8  and  N_9
REMARK    6  A    between atoms: N_9  and  C_10
REMARK    7  A    between atoms: C_10  and  C_11
REMARK    8  A    between atoms: C_11  and  O_12
REMARK    9  A    between atoms: C_21  and  C_23
REMARK                            x       y       z     vdW  Elec       q    Type
REMARK                         _______ _______ _______ _____ _____    ______ ____
ROOT
ATOM      1  N   UNL     1      49.031   8.408  14.131  0.00  0.00    +0.000 N 
ATOM      2  C   UNL     1      48.030   8.108  13.227  0.00  0.00    +0.000 A 
ATOM      3  C   UNL     1      46.727   8.457  13.573  0.00  0.00    +0.000 A 
ATOM      4  C   UNL     1      45.654   7.959  12.835  0.00  0.00    +0.000 A 
ATOM      5  C   UNL     1      45.897   7.130  11.744  0.00  0.00    +0.000 A 
ATOM      6  C   UNL     1      47.230   6.940  11.396  0.00  0.00    +0.000 A 
ATOM      7  N   UNL     1      48.290   7.374  12.130  0.00  0.00    +0.000 NA
ATOM      8  H   UNL     1      49.035   9.360  14.486  0.00  0.00    +0.000 HD
ENDROOT
BRANCH   1  10
ATOM      9  C   UNL     1      51.449   8.716  13.666  0.00  0.00    +0.000 C 
ATOM     10  C   UNL     1      50.346   7.759  14.099  0.00  0.00    +0.000 C 
BRANCH  10  11
ATOM     11  C   UNL     1      50.664   7.332  15.549  0.00  0.00    +0.000 C 
ATOM     12  O   UNL     1      51.782   6.869  15.806  0.00  0.00    +0.000 OA
BRANCH  11  13
ATOM     13  C   UNL     1      49.704   7.540  16.640  0.00  0.00    +0.000 A 
ATOM     14  C   UNL     1      49.716   8.589  17.542  0.00  0.00    +0.000 A 
ATOM     15  S   UNL     1      48.703   8.300  18.900  0.00  0.00    +0.000 S 
ATOM     16  C   UNL     1      48.174   6.811  18.264  0.00  0.00    +0.000 A 
ATOM     17  N   UNL     1      47.365   5.971  18.962  0.00  0.00    +0.000 NA
ATOM     18  C   UNL     1      47.028   4.903  18.315  0.00  0.00    +0.000 A 
ATOM     19  N   UNL     1      47.382   4.623  17.018  0.00  0.00    +0.000 N 
ATOM     20  C   UNL     1      48.109   5.498  16.242  0.00  0.00    +0.000 A 
ATOM     21  O   UNL     1      48.168   5.375  15.023  0.00  0.00    +0.000 OA
ATOM     22  C   UNL     1      48.656   6.616  16.986  0.00  0.00    +0.000 A 
ATOM     23  H   UNL     1      46.975   3.841  16.527  0.00  0.00    +0.000 HD
ENDBRANCH  11  13
ENDBRANCH  10  11
ENDBRANCH   1  10
BRANCH   5  24
ATOM     24  C   UNL     1      44.791   6.351  11.080  0.00  0.00    +0.000 C 
BRANCH  24  25
ATOM     25  N   UNL     1      44.936   4.913  11.183  0.00  0.00    +0.000 N 
ATOM     26  C   UNL     1      45.163   4.168  10.044  0.00  0.00    +0.000 A 
ATOM     27  N   UNL     1      45.600   4.787   8.936  0.00  0.00    +0.000 NA
ATOM     28  C   UNL     1      45.900   4.029   7.863  0.00  0.00    +0.000 A 
ATOM     29  C   UNL     1      45.761   2.661   7.838  0.00  0.00    +0.000 A 
ATOM     30  C   UNL     1      45.270   2.115   8.992  0.00  0.00    +0.000 A 
ATOM     31  N   UNL     1      44.979   2.838  10.090  0.00  0.00    +0.000 NA
BRANCH  25  32
ATOM     32  C   UNL     1      44.521   4.228  12.403  0.00  0.00    +0.000 C 
BRANCH  32  33
ATOM     33  C   UNL     1      43.035   4.470  12.695  0.00  0.00    +0.000 C 
BRANCH  33  34
ATOM     34  O   UNL     1      42.860   5.662  13.460  0.00  0.00    +0.000 OA
ATOM     35  H   UNL     1      41.918   5.895  13.400  0.00  0.00    +0.000 HD
ENDBRANCH  33  34
ENDBRANCH  32  33
ENDBRANCH  25  32
ENDBRANCH  24  25
ENDBRANCH   5  24
TORSDOF 8
ENDMDL
MODEL 4
REMARK VINA RESULT:    -6.632      2.786      7.128
REMARK INTER + INTRA:         -11.367
REMARK INTER:                  -9.832
REMARK INTRA:                  -1.535
REMARK UNBOUND:                -1.828
REMARK  Name = 
REMARK  9 active torsions:
REMARK  status: ('A' for Active; 'I' for Inactive)
REMARK    1  A    between atoms: C_1  and  C_2
REMARK    2  A    between atoms: C_2  and  N_3
REMARK    3  A    between atoms: C_2  and  C_21
REMARK    4  A    between atoms: C_7  and  C_8
REMARK    5  A    between atoms: C_8  and  N_9
REMARK    6  A    between atoms: N_9  and  C_10
REMARK    7  A    between atoms: C_10  and  C_11
REMARK    8  A    between atoms: C_11  and  O_12
REMARK    9  A    between atoms: C_21  and  C_23
REMARK                            x       y       z     vdW  Elec       q    Type
REMARK                         _______ _______ _______ _____ _____    ______ ____
ROOT
ATOM      1  N   UNL     1      49.391   8.674  13.392  0.00  0.00    +0.000 N 
ATOM      2  C   UNL     1      49.572   8.167  14.664  0.00  0.00    +0.000 A 
ATOM      3  C   UNL     1      50.804   7.587  14.955  0.00  0.00    +0.000 A 
ATOM      4  C   UNL     1      50.962   6.837  16.120  0.00  0.00    +0.000 A 
ATOM      5  C   UNL     1      49.889   6.690  16.993  0.00  0.00    +0.000 A 
ATOM      6  C   UNL     1      48.739   7.408  16.686  0.00  0.00    +0.000 A 
ATOM      7  N   UNL     1      48.547   8.104  15.532  0.00  0.00    +0.000 NA
ATOM      8  H   UNL     1      50.126   9.287  13.052  0.00  0.00    +0.000 HD
ENDROOT
BRANCH   1  10
ATOM      9  C   UNL     1      48.080  10.081  11.824  0.00  0.00    +0.000 C 
ATOM     10  C   UNL     1      48.063   8.932  12.825  0.00  0.00    +0.000 C 
BRANCH  10  11
ATOM     11  C   UNL     1      47.660   7.661  12.045  0.00  0.00    +0.000 C 
ATOM     12  O   UNL     1      48.226   7.409  10.975  0.00  0.00    +0.000 OA
BRANCH  11  13
ATOM     13  C   UNL     1      46.685   6.705  12.584  0.00  0.00    +0.000 A 
ATOM     14  C   UNL     1      46.966   5.659  13.446  0.00  0.00    +0.000 A 
ATOM     15  S   UNL     1      45.676   4.527  13.548  0.00  0.00    +0.000 S 
ATOM     16  C   UNL     1      44.698   5.459  12.510  0.00  0.00    +0.000 A 
ATOM     17  N   UNL     1      43.483   5.026  12.078  0.00  0.00    +0.000 NA
ATOM     18  C   UNL     1      42.857   5.875  11.328  0.00  0.00    +0.000 A 
ATOM     19  N   UNL     1      43.310   7.132  11.015  0.00  0.00    +0.000 N 
ATOM     20  C   UNL     1      44.483   7.647  11.520  0.00  0.00    +0.000 A 
ATOM     21  O   UNL     1      44.727   8.848  11.473  0.00  0.00    +0.000 OA
ATOM     22  C   UNL     1      45.296   6.665  12.213  0.00  0.00    +0.000 A 
ATOM     23  H   UNL     1      42.713   7.794  10.540  0.00  0.00    +0.000 HD
ENDBRANCH  11  13
ENDBRANCH  10  11
ENDBRANCH   1  10
BRANCH   5  24
ATOM     24  C   UNL     1      49.912   5.683  18.114  0.00  0.00    +0.000 C 
BRANCH  24  25
ATOM     25  N   UNL     1      49.716   4.313  17.684  0.00  0.00    +0.000 N 
ATOM     26  C   UNL     1      50.768   3.423  17.745  0.00  0.00    +0.000 A 
ATOM     27  N   UNL     1      51.827   3.717  18.517  0.00  0.00    +0.000 NA
ATOM     28  C   UNL     1      52.802   2.794  18.632  0.00  0.00    +0.000 A 
ATOM     29  C   UNL     1      52.780   1.581  17.984  0.00  0.00    +0.000 A 
ATOM     30  C   UNL     1      51.687   1.380  17.185  0.00  0.00    +0.000 A 
ATOM     31  N   UNL     1      50.684   2.270  17.062  0.00  0.00    +0.000 NA
BRANCH  25  32
ATOM     32  C   UNL     1      48.540   3.962  16.894  0.00  0.00    +0.000 C 
BRANCH  32  33
ATOM     33  C   UNL     1      47.257   4.097  17.723  0.00  0.00    +0.000 C 
BRANCH  33  34
ATOM     34  O   UNL     1      46.497   2.890  17.673  0.00  0.00    +0.000 OA
ATOM     35  H   UNL     1      46.138   2.824  16.771  0.00  0.00    +0.000 HD
ENDBRANCH  33  34
ENDBRANCH  32  33
ENDBRANCH  25  32
ENDBRANCH  24  25
ENDBRANCH   5  24
TORSDOF 8
ENDMDL
MODEL 5
REMARK VINA RESULT:    -6.090      3.127      8.457
REMARK INTER + INTRA:         -10.588
REMARK INTER:                  -9.739
REMARK INTRA:                  -0.849
REMARK UNBOUND:                -1.828
REMARK  Name = 
REMARK  9 active torsions:
REMARK  status: ('A' for Active; 'I' for Inactive)
REMARK    1  A    between atoms: C_1  and  C_2
REMARK    2  A    between atoms: C_2  and  N_3
REMARK    3  A    between atoms: C_2  and  C_21
REMARK    4  A    between atoms: C_7  and  C_8
REMARK    5  A    between atoms: C_8  and  N_9
REMARK    6  A    between atoms: N_9  and  C_10
REMARK    7  A    between atoms: C_10  and  C_11
REMARK    8  A    between atoms: C_11  and  O_12
REMARK    9  A    between atoms: C_21  and  C_23
REMARK                            x       y       z     vdW  Elec       q    Type
REMARK                         _______ _______ _______ _____ _____    ______ ____
ROOT
ATOM      1  N   UNL     1      46.583   5.075  13.151  0.00  0.00    +0.000 N 
ATOM      2  C   UNL     1      47.327   4.826  14.287  0.00  0.00    +0.000 A 
ATOM      3  C   UNL     1      47.139   3.601  14.923  0.00  0.00    +0.000 A 
ATOM      4  C   UNL     1      47.660   3.392  16.199  0.00  0.00    +0.000 A 
ATOM      5  C   UNL     1      48.382   4.406  16.820  0.00  0.00    +0.000 A 
ATOM      6  C   UNL     1      48.629   5.544  16.061  0.00  0.00    +0.000 A 
ATOM      7  N   UNL     1      48.089   5.789  14.836  0.00  0.00    +0.000 NA
ATOM      8  H   UNL     1      46.589   4.342  12.448  0.00  0.00    +0.000 HD
ENDROOT
BRANCH   1  10
ATOM      9  C   UNL     1      47.502   6.871  11.707  0.00  0.00    +0.000 C 
ATOM     10  C   UNL     1      46.370   6.428  12.625  0.00  0.00    +0.000 C 
BRANCH  10  11
ATOM     11  C   UNL     1      45.088   6.374  11.767  0.00  0.00    +0.000 C 
ATOM     12  O   UNL     1      44.629   7.427  11.307  0.00  0.00    +0.000 OA
BRANCH  11  13
ATOM     13  C   UNL     1      44.452   5.099  11.413  0.00  0.00    +0.000 A 
ATOM     14  C   UNL     1      43.489   4.438  12.155  0.00  0.00    +0.000 A 
ATOM     15  S   UNL     1      43.271   2.811  11.649  0.00  0.00    +0.000 S 
ATOM     16  C   UNL     1      44.396   2.990  10.383  0.00  0.00    +0.000 A 
ATOM     17  N   UNL     1      44.780   1.946   9.601  0.00  0.00    +0.000 NA
ATOM     18  C   UNL     1      45.611   2.267   8.663  0.00  0.00    +0.000 A 
ATOM     19  N   UNL     1      46.052   3.541   8.404  0.00  0.00    +0.000 N 
ATOM     20  C   UNL     1      45.604   4.639   9.103  0.00  0.00    +0.000 A 
ATOM     21  O   UNL     1      45.774   5.778   8.683  0.00  0.00    +0.000 OA
ATOM     22  C   UNL     1      44.816   4.299  10.273  0.00  0.00    +0.000 A 
ATOM     23  H   UNL     1      46.592   3.743   7.575  0.00  0.00    +0.000 HD
ENDBRANCH  11  13
ENDBRANCH  10  11
ENDBRANCH   1  10
BRANCH   5  24
ATOM     24  C   UNL     1      48.734   4.344  18.285  0.00  0.00    +0.000 C 
BRANCH  24  25
ATOM     25  N   UNL     1      50.132   4.594  18.569  0.00  0.00    +0.000 N 
ATOM     26  C   UNL     1      51.056   3.587  18.382  0.00  0.00    +0.000 A 
ATOM     27  N   UNL     1      50.726   2.533  17.617  0.00  0.00    +0.000 NA
ATOM     28  C   UNL     1      51.673   1.606  17.375  0.00  0.00    +0.000 A 
ATOM     29  C   UNL     1      52.948   1.670  17.887  0.00  0.00    +0.000 A 
ATOM     30  C   UNL     1      53.186   2.752  18.690  0.00  0.00    +0.000 A 
ATOM     31  N   UNL     1      52.273   3.709  18.937  0.00  0.00    +0.000 NA
BRANCH  25  32
ATOM     32  C   UNL     1      50.516   5.767  19.349  0.00  0.00    +0.000 C 
BRANCH  32  33
ATOM     33  C   UNL     1      49.960   5.687  20.776  0.00  0.00    +0.000 C 
BRANCH  33  34
ATOM     34  O   UNL     1      50.558   4.603  21.488  0.00  0.00    +0.000 OA
ATOM     35  H   UNL     1      50.006   3.820  21.317  0.00  0.00    +0.000 HD
ENDBRANCH  33  34
ENDBRANCH  32  33
ENDBRANCH  25  32
ENDBRANCH  24  25
ENDBRANCH   5  24
TORSDOF 8
ENDMDL
MODEL 6
REMARK VINA RESULT:    -6.089      2.720      3.422
REMARK INTER + INTRA:         -10.586
REMARK INTER:                  -9.612
REMARK INTRA:                  -0.975
REMARK UNBOUND:                -1.828
REMARK  Name = 
REMARK  9 active torsions:
REMARK  status: ('A' for Active; 'I' for Inactive)
REMARK    1  A    between atoms: C_1  and  C_2
REMARK    2  A    between atoms: C_2  and  N_3
REMARK    3  A    between atoms: C_2  and  C_21
REMARK    4  A    between atoms: C_7  and  C_8
REMARK    5  A    between atoms: C_8  and  N_9
REMARK    6  A    between atoms: N_9  and  C_10
REMARK    7  A    between atoms: C_10  and  C_11
REMARK    8  A    between atoms: C_11  and  O_12
REMARK    9  A    between atoms: C_21  and  C_23
REMARK                            x       y       z     vdW  Elec       q    Type
REMARK                         _______ _______ _______ _____ _____    ______ ____
ROOT
ATOM      1  N   UNL     1      49.732   7.235  14.658  0.00  0.00    +0.000 N 
ATOM      2  C   UNL     1      48.812   6.870  13.694  0.00  0.00    +0.000 A 
ATOM      3  C   UNL     1      48.606   7.751  12.636  0.00  0.00    +0.000 A 
ATOM      4  C   UNL     1      47.521   7.569  11.779  0.00  0.00    +0.000 A 
ATOM      5  C   UNL     1      46.662   6.493  11.979  0.00  0.00    +0.000 A 
ATOM      6  C   UNL     1      47.018   5.594  12.978  0.00  0.00    +0.000 A 
ATOM      7  N   UNL     1      48.041   5.779  13.856  0.00  0.00    +0.000 NA
ATOM      8  H   UNL     1      50.637   7.541  14.311  0.00  0.00    +0.000 HD
ENDROOT
BRANCH   1  10
ATOM      9  C   UNL     1      51.166   6.579  16.573  0.00  0.00    +0.000 C 
ATOM     10  C   UNL     1      49.758   6.633  15.995  0.00  0.00    +0.000 C 
BRANCH  10  11
ATOM     11  C   UNL     1      48.929   7.559  16.913  0.00  0.00    +0.000 C 
ATOM     12  O   UNL     1      48.453   8.599  16.443  0.00  0.00    +0.000 OA
BRANCH  11  13
ATOM     13  C   UNL     1      48.624   7.191  18.301  0.00  0.00    +0.000 A 
ATOM     14  C   UNL     1      47.909   6.079  18.708  0.00  0.00    +0.000 A 
ATOM     15  S   UNL     1      47.411   6.181  20.350  0.00  0.00    +0.000 S 
ATOM     16  C   UNL     1      48.212   7.670  20.562  0.00  0.00    +0.000 A 
ATOM     17  N   UNL     1      48.114   8.387  21.712  0.00  0.00    +0.000 NA
ATOM     18  C   UNL     1      48.817   9.474  21.718  0.00  0.00    +0.000 A 
ATOM     19  N   UNL     1      49.646   9.881  20.702  0.00  0.00    +0.000 N 
ATOM     20  C   UNL     1      49.855   9.129  19.568  0.00  0.00    +0.000 A 
ATOM     21  O   UNL     1      50.799   9.351  18.817  0.00  0.00    +0.000 OA
ATOM     22  C   UNL     1      48.951   8.001  19.445  0.00  0.00    +0.000 A 
ATOM     23  H   UNL     1      50.270  10.665  20.825  0.00  0.00    +0.000 HD
ENDBRANCH  11  13
ENDBRANCH  10  11
ENDBRANCH   1  10
BRANCH   5  24
ATOM     24  C   UNL     1      45.338   6.394  11.267  0.00  0.00    +0.000 C 
BRANCH  24  25
ATOM     25  N   UNL     1      44.913   5.036  10.990  0.00  0.00    +0.000 N 
ATOM     26  C   UNL     1      45.130   4.497   9.739  0.00  0.00    +0.000 A 
ATOM     27  N   UNL     1      46.028   5.076   8.926  0.00  0.00    +0.000 NA
ATOM     28  C   UNL     1      46.289   4.481   7.746  0.00  0.00    +0.000 A 
ATOM     29  C   UNL     1      45.669   3.328   7.323  0.00  0.00    +0.000 A 
ATOM     30  C   UNL     1      44.738   2.829   8.192  0.00  0.00    +0.000 A 
ATOM     31  N   UNL     1      44.465   3.384   9.388  0.00  0.00    +0.000 NA
BRANCH  25  32
ATOM     32  C   UNL     1      43.983   4.369  11.895  0.00  0.00    +0.000 C 
BRANCH  32  33
ATOM     33  C   UNL     1      42.747   5.239  12.157  0.00  0.00    +0.000 C 
BRANCH  33  34
ATOM     34  O   UNL     1      42.738   5.707  13.506  0.00  0.00    +0.000 OA
ATOM     35  H   UNL     1      43.412   6.406  13.562  0.00  0.00    +0.000 HD
ENDBRANCH  33  34
ENDBRANCH  32  33
ENDBRANCH  25  32
ENDBRANCH  24  25
ENDBRANCH   5  24
TORSDOF 8
ENDMDL
MODEL 7
REMARK VINA RESULT:    -5.972      3.166      4.014
REMARK INTER + INTRA:         -10.419
REMARK INTER:                  -9.491
REMARK INTRA:                  -0.928
REMARK UNBOUND:                -1.828
REMARK  Name = 
REMARK  9 active torsions:
REMARK  status: ('A' for Active; 'I' for Inactive)
REMARK    1  A    between atoms: C_1  and  C_2
REMARK    2  A    between atoms: C_2  and  N_3
REMARK    3  A    between atoms: C_2  and  C_21
REMARK    4  A    between atoms: C_7  and  C_8
REMARK    5  A    between atoms: C_8  and  N_9
REMARK    6  A    between atoms: N_9  and  C_10
REMARK    7  A    between atoms: C_10  and  C_11
REMARK    8  A    between atoms: C_11  and  O_12
REMARK    9  A    between atoms: C_21  and  C_23
REMARK                            x       y       z     vdW  Elec       q    Type
REMARK                         _______ _______ _______ _____ _____    ______ ____
ROOT
ATOM      1  N   UNL     1      49.548   7.264  14.963  0.00  0.00    +0.000 N 
ATOM      2  C   UNL     1      48.684   6.835  13.974  0.00  0.00    +0.000 A 
ATOM      3  C   UNL     1      48.698   7.526  12.765  0.00  0.00    +0.000 A 
ATOM      4  C   UNL     1      47.686   7.313  11.830  0.00  0.00    +0.000 A 
ATOM      5  C   UNL     1      46.679   6.393  12.106  0.00  0.00    +0.000 A 
ATOM      6  C   UNL     1      46.817   5.657  13.277  0.00  0.00    +0.000 A 
ATOM      7  N   UNL     1      47.767   5.884  14.226  0.00  0.00    +0.000 NA
ATOM      8  H   UNL     1      50.513   7.400  14.678  0.00  0.00    +0.000 HD
ENDROOT
BRANCH   1  10
ATOM      9  C   UNL     1      50.232   5.735  16.793  0.00  0.00    +0.000 C 
ATOM     10  C   UNL     1      49.366   6.917  16.376  0.00  0.00    +0.000 C 
BRANCH  10  11
ATOM     11  C   UNL     1      49.842   8.136  17.197  0.00  0.00    +0.000 C 
ATOM     12  O   UNL     1      50.907   8.059  17.822  0.00  0.00    +0.000 OA
BRANCH  11  13
ATOM     13  C   UNL     1      49.108   9.407  17.183  0.00  0.00    +0.000 A 
ATOM     14  C   UNL     1      49.340  10.470  16.327  0.00  0.00    +0.000 A 
ATOM     15  S   UNL     1      48.574  11.916  16.852  0.00  0.00    +0.000 S 
ATOM     16  C   UNL     1      47.856  11.125  18.179  0.00  0.00    +0.000 A 
ATOM     17  N   UNL     1      47.141  11.795  19.121  0.00  0.00    +0.000 NA
ATOM     18  C   UNL     1      46.634  11.035  20.037  0.00  0.00    +0.000 A 
ATOM     19  N   UNL     1      46.733   9.666  20.069  0.00  0.00    +0.000 N 
ATOM     20  C   UNL     1      47.356   8.943  19.077  0.00  0.00    +0.000 A 
ATOM     21  O   UNL     1      47.187   7.734  18.964  0.00  0.00    +0.000 OA
ATOM     22  C   UNL     1      48.089   9.766  18.134  0.00  0.00    +0.000 A 
ATOM     23  H   UNL     1      46.200   9.124  20.734  0.00  0.00    +0.000 HD
ENDBRANCH  11  13
ENDBRANCH  10  11
ENDBRANCH   1  10
BRANCH   5  24
ATOM     24  C   UNL     1      45.428   6.314  11.270  0.00  0.00    +0.000 C 
BRANCH  24  25
ATOM     25  N   UNL     1      44.986   4.963  10.990  0.00  0.00    +0.000 N 
ATOM     26  C   UNL     1      45.161   4.436   9.728  0.00  0.00    +0.000 A 
ATOM     27  N   UNL     1      46.039   5.018   8.894  0.00  0.00    +0.000 NA
ATOM     28  C   UNL     1      46.260   4.436   7.700  0.00  0.00    +0.000 A 
ATOM     29  C   UNL     1      45.620   3.292   7.283  0.00  0.00    +0.000 A 
ATOM     30  C   UNL     1      44.711   2.789   8.174  0.00  0.00    +0.000 A 
ATOM     31  N   UNL     1      44.479   3.332   9.383  0.00  0.00    +0.000 NA
BRANCH  25  32
ATOM     32  C   UNL     1      44.078   4.291  11.915  0.00  0.00    +0.000 C 
BRANCH  32  33
ATOM     33  C   UNL     1      42.796   5.107  12.122  0.00  0.00    +0.000 C 
BRANCH  33  34
ATOM     34  O   UNL     1      42.775   5.690  13.425  0.00  0.00    +0.000 OA
ATOM     35  H   UNL     1      43.408   6.429  13.409  0.00  0.00    +0.000 HD
ENDBRANCH  33  34
ENDBRANCH  32  33
ENDBRANCH  25  32
ENDBRANCH  24  25
ENDBRANCH   5  24
TORSDOF 8
ENDMDL
MODEL 8
REMARK VINA RESULT:    -5.720      2.693      3.922
REMARK INTER + INTRA:         -10.055
REMARK INTER:                  -8.786
REMARK INTRA:                  -1.269
REMARK UNBOUND:                -1.828
REMARK  Name = 
REMARK  9 active torsions:
REMARK  status: ('A' for Active; 'I' for Inactive)
REMARK    1  A    between atoms: C_1  and  C_2
REMARK    2  A    between atoms: C_2  and  N_3
REMARK    3  A    between atoms: C_2  and  C_21
REMARK    4  A    between atoms: C_7  and  C_8
REMARK    5  A    between atoms: C_8  and  N_9
REMARK    6  A    between atoms: N_9  and  C_10
REMARK    7  A    between atoms: C_10  and  C_11
REMARK    8  A    between atoms: C_11  and  O_12
REMARK    9  A    between atoms: C_21  and  C_23
REMARK                            x       y       z     vdW  Elec       q    Type
REMARK                         _______ _______ _______ _____ _____    ______ ____
ROOT
ATOM      1  N   UNL     1      49.370   6.685  15.873  0.00  0.00    +0.000 N 
ATOM      2  C   UNL     1      48.577   6.407  14.777  0.00  0.00    +0.000 A 
ATOM      3  C   UNL     1      48.535   7.355  13.758  0.00  0.00    +0.000 A 
ATOM      4  C   UNL     1      47.570   7.259  12.757  0.00  0.00    +0.000 A 
ATOM      5  C   UNL     1      46.666   6.201  12.774  0.00  0.00    +0.000 A 
ATOM      6  C   UNL     1      46.864   5.234  13.753  0.00  0.00    +0.000 A 
ATOM      7  N   UNL     1      47.766   5.334  14.768  0.00  0.00    +0.000 NA
ATOM      8  H   UNL     1      50.320   6.981  15.668  0.00  0.00    +0.000 HD
ENDROOT
BRANCH   1  10
ATOM      9  C   UNL     1      50.336   5.026  17.445  0.00  0.00    +0.000 C 
ATOM     10  C   UNL     1      49.204   6.005  17.162  0.00  0.00    +0.000 C 
BRANCH  10  11
ATOM     11  C   UNL     1      49.270   7.098  18.251  0.00  0.00    +0.000 C 
ATOM     12  O   UNL     1      48.640   6.934  19.303  0.00  0.00    +0.000 OA
BRANCH  11  13
ATOM     13  C   UNL     1      50.127   8.280  18.103  0.00  0.00    +0.000 A 
ATOM     14  C   UNL     1      51.481   8.342  18.381  0.00  0.00    +0.000 A 
ATOM     15  S   UNL     1      52.060   9.957  18.473  0.00  0.00    +0.000 S 
ATOM     16  C   UNL     1      50.534  10.592  18.063  0.00  0.00    +0.000 A 
ATOM     17  N   UNL     1      50.281  11.928  18.061  0.00  0.00    +0.000 NA
ATOM     18  C   UNL     1      49.082  12.238  17.688  0.00  0.00    +0.000 A 
ATOM     19  N   UNL     1      48.131  11.340  17.267  0.00  0.00    +0.000 N 
ATOM     20  C   UNL     1      48.383   9.992  17.152  0.00  0.00    +0.000 A 
ATOM     21  O   UNL     1      47.641   9.255  16.511  0.00  0.00    +0.000 OA
ATOM     22  C   UNL     1      49.650   9.586  17.731  0.00  0.00    +0.000 A 
ATOM     23  H   UNL     1      47.264  11.658  16.860  0.00  0.00    +0.000 HD
ENDBRANCH  11  13
ENDBRANCH  10  11
ENDBRANCH   1  10
BRANCH   5  24
ATOM     24  C   UNL     1      45.445   6.188  11.890  0.00  0.00    +0.000 C 
BRANCH  24  25
ATOM     25  N   UNL     1      44.947   4.861  11.589  0.00  0.00    +0.000 N 
ATOM     26  C   UNL     1      45.015   4.384  10.297  0.00  0.00    +0.000 A 
ATOM     27  N   UNL     1      45.846   4.979   9.425  0.00  0.00    +0.000 NA
ATOM     28  C   UNL     1      45.963   4.442   8.195  0.00  0.00    +0.000 A 
ATOM     29  C   UNL     1      45.262   3.334   7.780  0.00  0.00    +0.000 A 
ATOM     30  C   UNL     1      44.407   2.817   8.715  0.00  0.00    +0.000 A 
ATOM     31  N   UNL     1      44.278   3.313   9.959  0.00  0.00    +0.000 NA
BRANCH  25  32
ATOM     32  C   UNL     1      44.090   4.173  12.551  0.00  0.00    +0.000 C 
BRANCH  32  33
ATOM     33  C   UNL     1      42.854   5.016  12.891  0.00  0.00    +0.000 C 
BRANCH  33  34
ATOM     34  O   UNL     1      42.043   5.211  11.733  0.00  0.00    +0.000 OA
ATOM     35  H   UNL     1      41.201   5.588  12.043  0.00  0.00    +0.000 HD
ENDBRANCH  33  34
ENDBRANCH  32  33
ENDBRANCH  25  32
ENDBRANCH  24  25
ENDBRANCH   5  24
TORSDOF 8
ENDMDL
MODEL 9
REMARK VINA RESULT:    -5.652      2.085      2.667
REMARK INTER + INTRA:          -9.957
REMARK INTER:                  -8.140
REMARK INTRA:                  -1.818
REMARK UNBOUND:                -1.828
REMARK  Name = 
REMARK  9 active torsions:
REMARK  status: ('A' for Active; 'I' for Inactive)
REMARK    1  A    between atoms: C_1  and  C_2
REMARK    2  A    between atoms: C_2  and  N_3
REMARK    3  A    between atoms: C_2  and  C_21
REMARK    4  A    between atoms: C_7  and  C_8
REMARK    5  A    between atoms: C_8  and  N_9
REMARK    6  A    between atoms: N_9  and  C_10
REMARK    7  A    between atoms: C_10  and  C_11
REMARK    8  A    between atoms: C_11  and  O_12
REMARK    9  A    between atoms: C_21  and  C_23
REMARK                            x       y       z     vdW  Elec       q    Type
REMARK                         _______ _______ _______ _____ _____    ______ ____
ROOT
ATOM      1  N   UNL     1      50.915   7.885  16.339  0.00  0.00    +0.000 N 
ATOM      2  C   UNL     1      50.162   8.127  15.206  0.00  0.00    +0.000 A 
ATOM      3  C   UNL     1      48.952   8.796  15.370  0.00  0.00    +0.000 A 
ATOM      4  C   UNL     1      48.036   8.844  14.320  0.00  0.00    +0.000 A 
ATOM      5  C   UNL     1      48.348   8.237  13.108  0.00  0.00    +0.000 A 
ATOM      6  C   UNL     1      49.628   7.705  12.994  0.00  0.00    +0.000 A 
ATOM      7  N   UNL     1      50.517   7.603  14.019  0.00  0.00    +0.000 NA
ATOM      8  H   UNL     1      51.067   8.683  16.948  0.00  0.00    +0.000 HD
ENDROOT
BRANCH   1  10
ATOM      9  C   UNL     1      53.359   7.485  16.493  0.00  0.00    +0.000 C 
ATOM     10  C   UNL     1      51.970   6.867  16.385  0.00  0.00    +0.000 C 
BRANCH  10  11
ATOM     11  C   UNL     1      51.740   6.047  17.673  0.00  0.00    +0.000 C 
ATOM     12  O   UNL     1      52.059   6.539  18.762  0.00  0.00    +0.000 OA
BRANCH  11  13
ATOM     13  C   UNL     1      51.075   4.738  17.643  0.00  0.00    +0.000 A 
ATOM     14  C   UNL     1      51.698   3.509  17.763  0.00  0.00    +0.000 A 
ATOM     15  S   UNL     1      50.681   2.207  17.289  0.00  0.00    +0.000 S 
ATOM     16  C   UNL     1      49.372   3.258  16.997  0.00  0.00    +0.000 A 
ATOM     17  N   UNL     1      48.199   2.824  16.464  0.00  0.00    +0.000 NA
ATOM     18  C   UNL     1      47.300   3.746  16.346  0.00  0.00    +0.000 A 
ATOM     19  N   UNL     1      47.448   5.048  16.758  0.00  0.00    +0.000 N 
ATOM     20  C   UNL     1      48.578   5.500  17.400  0.00  0.00    +0.000 A 
ATOM     21  O   UNL     1      48.585   6.561  18.014  0.00  0.00    +0.000 OA
ATOM     22  C   UNL     1      49.672   4.547  17.387  0.00  0.00    +0.000 A 
ATOM     23  H   UNL     1      46.662   5.681  16.762  0.00  0.00    +0.000 HD
ENDBRANCH  11  13
ENDBRANCH  10  11
ENDBRANCH   1  10
BRANCH   5  24
ATOM     24  C   UNL     1      47.308   8.020  12.039  0.00  0.00    +0.000 C 
BRANCH  24  25
ATOM     25  N   UNL     1      45.970   7.801  12.551  0.00  0.00    +0.000 N 
ATOM     26  C   UNL     1      45.473   6.517  12.631  0.00  0.00    +0.000 A 
ATOM     27  N   UNL     1      46.328   5.483  12.584  0.00  0.00    +0.000 NA
ATOM     28  C   UNL     1      45.831   4.242  12.754  0.00  0.00    +0.000 A 
ATOM     29  C   UNL     1      44.495   3.979  12.949  0.00  0.00    +0.000 A 
ATOM     30  C   UNL     1      43.689   5.085  12.941  0.00  0.00    +0.000 A 
ATOM     31  N   UNL     1      44.152   6.340  12.795  0.00  0.00    +0.000 NA
BRANCH  25  32
ATOM     32  C   UNL     1      45.044   8.924  12.666  0.00  0.00    +0.000 C 
BRANCH  32  33
ATOM     33  C   UNL     1      44.946   9.696  11.344  0.00  0.00    +0.000 C 
BRANCH  33  34
ATOM     34  O   UNL     1      43.922   9.145  10.515  0.00  0.00    +0.000 OA
ATOM     35  H   UNL     1      43.922   8.185  10.675  0.00  0.00    +0.000 HD
ENDBRANCH  33  34
ENDBRANCH  32  33
ENDBRANCH  25  32
ENDBRANCH  24  25
ENDBRANCH   5  24
TORSDOF 8
ENDMDL
