MODEL 1
REMARK VINA RESULT:    -8.031      0.000      0.000
REMARK INTER + INTRA:         -12.979
REMARK INTER:                 -12.021
REMARK INTRA:                  -0.958
REMARK UNBOUND:                -0.958
REMARK  Name = 
REMARK  9 active torsions:
REMARK  status: ('A' for Active; 'I' for Inactive)
REMARK    1  A    between atoms: N_1  and  C_2
REMARK    2  A    between atoms: C_2  and  C_3
REMARK    3  A    between atoms: C_2  and  C_10
REMARK    4  A    between atoms: C_3  and  C_4
REMARK    5  A    between atoms: C_10  and  C_11
REMARK    6  A    between atoms: C_14  and  C_15
REMARK    7  A    between atoms: C_15  and  N_16
REMARK    8  A    between atoms: N_16  and  C_17
REMARK    9  A    between atoms: C_17  and  C_18
REMARK                            x       y       z     vdW  Elec       q    Type
REMARK                         _______ _______ _______ _____ _____    ______ ____
ROOT
ATOM      1  C   UNL     1      45.608   5.321  11.828  0.00  0.00    +0.000 A 
ATOM      2  C   UNL     1      46.220   6.554  11.556  0.00  0.00    +0.000 A 
ATOM      3  C   UNL     1      47.212   7.060  12.413  0.00  0.00    +0.000 A 
ATOM      4  C   UNL     1      47.636   6.330  13.526  0.00  0.00    +0.000 A 
ATOM      5  C   UNL     1      47.080   5.064  13.746  0.00  0.00    +0.000 A 
ATOM      6  C   UNL     1      46.072   4.569  12.905  0.00  0.00    +0.000 A 
ENDROOT
BRANCH   1   7
ATOM      7  C   UNL     1      44.427   4.845  11.002  0.00  0.00    +0.000 C 
BRANCH   7   8
ATOM      8  C   UNL     1      44.574   3.442  10.376  0.00  0.00    +0.000 C 
BRANCH   8   9
ATOM      9  N   UNL     1      43.595   2.511  10.984  0.00  0.00    +0.000 NA
ATOM     10  H   UNL     1      42.695   2.663  10.521  0.00  0.00    +0.000 HD
ATOM     11  H   UNL     1      43.429   2.776  11.954  0.00  0.00    +0.000 HD
ENDBRANCH   8   9
BRANCH   8  12
ATOM     12  C   UNL     1      44.398   3.451   8.835  0.00  0.00    +0.000 C 
BRANCH  12  13
ATOM     13  C   UNL     1      45.559   2.822   8.100  0.00  0.00    +0.000 A 
ATOM     14  C   UNL     1      46.381   3.577   7.251  0.00  0.00    +0.000 A 
ATOM     15  C   UNL     1      47.486   2.994   6.629  0.00  0.00    +0.000 A 
ATOM     16  C   UNL     1      47.773   1.645   6.839  0.00  0.00    +0.000 A 
ATOM     17  C   UNL     1      46.941   0.883   7.652  0.00  0.00    +0.000 A 
ATOM     18  C   UNL     1      45.846   1.459   8.279  0.00  0.00    +0.000 A 
ENDBRANCH  12  13
ENDBRANCH   8  12
ENDBRANCH   7   8
ENDBRANCH   1   7
BRANCH   4  19
ATOM     19  C   UNL     1      48.693   6.890  14.456  0.00  0.00    +0.000 C 
BRANCH  19  20
ATOM     20  N   UNL     1      48.123   7.207  15.766  0.00  0.00    +0.000 NA
ATOM     21  H   UNL     1      47.167   6.856  15.795  0.00  0.00    +0.000 HD
BRANCH  20  22
ATOM     22  C   UNL     1      48.877   6.593  16.868  0.00  0.00    +0.000 C 
BRANCH  22  23
ATOM     23  C   UNL     1      48.519   5.135  16.996  0.00  0.00    +0.000 A 
ATOM     24  C   UNL     1      47.241   4.726  17.327  0.00  0.00    +0.000 A 
ATOM     25  N   UNL     1      46.876   3.432  17.411  0.00  0.00    +0.000 NA
ATOM     26  C   UNL     1      47.863   2.565  17.138  0.00  0.00    +0.000 A 
ATOM     27  N   UNL     1      49.128   2.894  16.805  0.00  0.00    +0.000 NA
ATOM     28  N   UNL     1      49.465   4.207  16.732  0.00  0.00    +0.000 NA
ENDBRANCH  22  23
ENDBRANCH  20  22
ENDBRANCH  19  20
ENDBRANCH   4  19
TORSDOF 9
ENDMDL
MODEL 2
REMARK VINA RESULT:    -7.720      1.802      2.760
REMARK INTER + INTRA:         -12.514
REMARK INTER:                 -11.677
REMARK INTRA:                  -0.838
REMARK UNBOUND:                -0.958
REMARK  Name = 
REMARK  9 active torsions:
REMARK  status: ('A' for Active; 'I' for Inactive)
REMARK    1  A    between atoms: N_1  and  C_2
REMARK    2  A    between atoms: C_2  and  C_3
REMARK    3  A    between atoms: C_2  and  C_10
REMARK    4  A    between atoms: C_3  and  C_4
REMARK    5  A    between atoms: C_10  and  C_11
REMARK    6  A    between atoms: C_14  and  C_15
REMARK    7  A    between atoms: C_15  and  N_16
REMARK    8  A    between atoms: N_16  and  C_17
REMARK    9  A    between atoms: C_17  and  C_18
REMARK                            x       y       z     vdW  Elec       q    Type
REMARK                         _______ _______ _______ _____ _____    ______ ____
ROOT
ATOM      1  C   UNL     1      46.099   5.300  11.765  0.00  0.00    +0.000 A 
ATOM      2  C   UNL     1      45.811   4.147  12.510  0.00  0.00    +0.000 A 
ATOM      3  C   UNL     1      46.347   3.979  13.798  0.00  0.00    +0.000 A 
ATOM      4  C   UNL     1      47.142   4.972  14.376  0.00  0.00    +0.000 A 
ATOM      5  C   UNL     1      47.358   6.156  13.662  0.00  0.00    +0.000 A 
ATOM      6  C   UNL     1      46.843   6.314  12.365  0.00  0.00    +0.000 A 
ENDROOT
BRANCH   1   7
ATOM      7  C   UNL     1      45.659   5.416  10.317  0.00  0.00    +0.000 C 
BRANCH   7   8
ATOM      8  C   UNL     1      44.469   4.522   9.909  0.00  0.00    +0.000 C 
BRANCH   8   9
ATOM      9  N   UNL     1      43.194   5.170  10.295  0.00  0.00    +0.000 NA
ATOM     10  H   UNL     1      43.280   6.169  10.090  0.00  0.00    +0.000 HD
ATOM     11  H   UNL     1      43.082   5.127  11.308  0.00  0.00    +0.000 HD
ENDBRANCH   8   9
BRANCH   8  12
ATOM     12  C   UNL     1      44.453   4.201   8.391  0.00  0.00    +0.000 C 
BRANCH  12  13
ATOM     13  C   UNL     1      45.539   3.235   7.977  0.00  0.00    +0.000 A 
ATOM     14  C   UNL     1      45.560   1.915   8.448  0.00  0.00    +0.000 A 
ATOM     15  C   UNL     1      46.535   1.018   8.007  0.00  0.00    +0.000 A 
ATOM     16  C   UNL     1      47.508   1.438   7.100  0.00  0.00    +0.000 A 
ATOM     17  C   UNL     1      47.513   2.756   6.657  0.00  0.00    +0.000 A 
ATOM     18  C   UNL     1      46.541   3.649   7.086  0.00  0.00    +0.000 A 
ENDBRANCH  12  13
ENDBRANCH   8  12
ENDBRANCH   7   8
ENDBRANCH   1   7
BRANCH   4  19
ATOM     19  C   UNL     1      47.731   4.777  15.759  0.00  0.00    +0.000 C 
BRANCH  19  20
ATOM     20  N   UNL     1      48.172   3.395  15.950  0.00  0.00    +0.000 NA
ATOM     21  H   UNL     1      48.992   3.234  15.367  0.00  0.00    +0.000 HD
BRANCH  20  22
ATOM     22  C   UNL     1      48.532   3.111  17.346  0.00  0.00    +0.000 C 
BRANCH  22  23
ATOM     23  C   UNL     1      49.981   2.708  17.440  0.00  0.00    +0.000 A 
ATOM     24  C   UNL     1      50.944   3.569  17.931  0.00  0.00    +0.000 A 
ATOM     25  N   UNL     1      52.241   3.229  18.066  0.00  0.00    +0.000 NA
ATOM     26  C   UNL     1      52.520   1.972  17.690  0.00  0.00    +0.000 A 
ATOM     27  N   UNL     1      51.630   1.079  17.209  0.00  0.00    +0.000 NA
ATOM     28  N   UNL     1      50.332   1.454  17.081  0.00  0.00    +0.000 NA
ENDBRANCH  22  23
ENDBRANCH  20  22
ENDBRANCH  19  20
ENDBRANCH   4  19
TORSDOF 9
ENDMDL
MODEL 3
REMARK VINA RESULT:    -7.299      3.045      8.031
REMARK INTER + INTRA:         -11.883
REMARK INTER:                 -10.562
REMARK INTRA:                  -1.321
REMARK UNBOUND:                -0.958
REMARK  Name = 
REMARK  9 active torsions:
REMARK  status: ('A' for Active; 'I' for Inactive)
REMARK    1  A    between atoms: N_1  and  C_2
REMARK    2  A    between atoms: C_2  and  C_3
REMARK    3  A    between atoms: C_2  and  C_10
REMARK    4  A    between atoms: C_3  and  C_4
REMARK    5  A    between atoms: C_10  and  C_11
REMARK    6  A    between atoms: C_14  and  C_15
REMARK    7  A    between atoms: C_15  and  N_16
REMARK    8  A    between atoms: N_16  and  C_17
REMARK    9  A    between atoms: C_17  and  C_18
REMARK                            x       y       z     vdW  Elec       q    Type
REMARK                         _______ _______ _______ _____ _____    ______ ____
ROOT
ATOM      1  C   UNL     1      46.777   6.353  12.368  0.00  0.00    +0.000 A 
ATOM      2  C   UNL     1      46.316   5.307  13.181  0.00  0.00    +0.000 A 
ATOM      3  C   UNL     1      45.356   4.401  12.699  0.00  0.00    +0.000 A 
ATOM      4  C   UNL     1      44.872   4.500  11.393  0.00  0.00    +0.000 A 
ATOM      5  C   UNL     1      45.396   5.495  10.559  0.00  0.00    +0.000 A 
ATOM      6  C   UNL     1      46.337   6.415  11.047  0.00  0.00    +0.000 A 
ENDROOT
BRANCH   1   7
ATOM      7  C   UNL     1      47.689   7.427  12.932  0.00  0.00    +0.000 C 
BRANCH   7   8
ATOM      8  C   UNL     1      46.978   8.670  13.508  0.00  0.00    +0.000 C 
BRANCH   8   9
ATOM      9  N   UNL     1      47.399   8.888  14.912  0.00  0.00    +0.000 NA
ATOM     10  H   UNL     1      46.687   9.471  15.361  0.00  0.00    +0.000 HD
ATOM     11  H   UNL     1      48.243   9.459  14.931  0.00  0.00    +0.000 HD
ENDBRANCH   8   9
BRANCH   8  12
ATOM     12  C   UNL     1      47.245   9.953  12.678  0.00  0.00    +0.000 C 
BRANCH  12  13
ATOM     13  C   UNL     1      46.077  10.349  11.805  0.00  0.00    +0.000 A 
ATOM     14  C   UNL     1      46.187  11.382  10.863  0.00  0.00    +0.000 A 
ATOM     15  C   UNL     1      45.118  11.694  10.021  0.00  0.00    +0.000 A 
ATOM     16  C   UNL     1      43.921  10.986  10.124  0.00  0.00    +0.000 A 
ATOM     17  C   UNL     1      43.794   9.985  11.082  0.00  0.00    +0.000 A 
ATOM     18  C   UNL     1      44.857   9.665  11.914  0.00  0.00    +0.000 A 
ENDBRANCH  12  13
ENDBRANCH   8  12
ENDBRANCH   7   8
ENDBRANCH   1   7
BRANCH   4  19
ATOM     19  C   UNL     1      43.823   3.531  10.884  0.00  0.00    +0.000 C 
BRANCH  19  20
ATOM     20  N   UNL     1      44.015   3.252   9.461  0.00  0.00    +0.000 NA
ATOM     21  H   UNL     1      44.668   3.938   9.082  0.00  0.00    +0.000 HD
BRANCH  20  22
ATOM     22  C   UNL     1      44.562   1.910   9.223  0.00  0.00    +0.000 C 
BRANCH  22  23
ATOM     23  C   UNL     1      45.735   1.983   8.280  0.00  0.00    +0.000 A 
ATOM     24  C   UNL     1      46.125   3.174   7.697  0.00  0.00    +0.000 A 
ATOM     25  N   UNL     1      47.193   3.284   6.882  0.00  0.00    +0.000 NA
ATOM     26  C   UNL     1      47.855   2.133   6.687  0.00  0.00    +0.000 A 
ATOM     27  N   UNL     1      47.533   0.940   7.228  0.00  0.00    +0.000 NA
ATOM     28  N   UNL     1      46.449   0.862   8.042  0.00  0.00    +0.000 NA
ENDBRANCH  22  23
ENDBRANCH  20  22
ENDBRANCH  19  20
ENDBRANCH   4  19
TORSDOF 9
ENDMDL
MODEL 4
REMARK VINA RESULT:    -7.283      2.026      2.756
REMARK INTER + INTRA:         -11.860
REMARK INTER:                 -10.905
REMARK INTRA:                  -0.955
REMARK UNBOUND:                -0.958
REMARK  Name = 
REMARK  9 active torsions:
REMARK  status: ('A' for Active; 'I' for Inactive)
REMARK    1  A    between atoms: N_1  and  C_2
REMARK    2  A    between atoms: C_2  and  C_3
REMARK    3  A    between atoms: C_2  and  C_10
REMARK    4  A    between atoms: C_3  and  C_4
REMARK    5  A    between atoms: C_10  and  C_11
REMARK    6  A    between atoms: C_14  and  C_15
REMARK    7  A    between atoms: C_15  and  N_16
REMARK    8  A    between atoms: N_16  and  C_17
REMARK    9  A    between atoms: C_17  and  C_18
REMARK                            x       y       z     vdW  Elec       q    Type
REMARK                         _______ _______ _______ _____ _____    ______ ____
ROOT
ATOM      1  C   UNL     1      45.188   5.151  12.631  0.00  0.00    +0.000 A 
ATOM      2  C   UNL     1      46.442   4.831  13.173  0.00  0.00    +0.000 A 
ATOM      3  C   UNL     1      47.526   5.713  13.030  0.00  0.00    +0.000 A 
ATOM      4  C   UNL     1      47.367   6.941  12.383  0.00  0.00    +0.000 A 
ATOM      5  C   UNL     1      46.094   7.292  11.917  0.00  0.00    +0.000 A 
ATOM      6  C   UNL     1      45.017   6.400  12.038  0.00  0.00    +0.000 A 
ENDROOT
BRANCH   1   7
ATOM      7  C   UNL     1      44.059   4.137  12.640  0.00  0.00    +0.000 C 
BRANCH   7   8
ATOM      8  C   UNL     1      44.076   3.110  11.487  0.00  0.00    +0.000 C 
BRANCH   8   9
ATOM      9  N   UNL     1      42.995   2.116  11.680  0.00  0.00    +0.000 NA
ATOM     10  H   UNL     1      42.288   2.283  10.959  0.00  0.00    +0.000 HD
ATOM     11  H   UNL     1      42.511   2.302  12.558  0.00  0.00    +0.000 HD
ENDBRANCH   8   9
BRANCH   8  12
ATOM     12  C   UNL     1      43.933   3.773  10.092  0.00  0.00    +0.000 C 
BRANCH  12  13
ATOM     13  C   UNL     1      44.933   3.254   9.083  0.00  0.00    +0.000 A 
ATOM     14  C   UNL     1      45.590   4.119   8.197  0.00  0.00    +0.000 A 
ATOM     15  C   UNL     1      46.555   3.633   7.314  0.00  0.00    +0.000 A 
ATOM     16  C   UNL     1      46.863   2.273   7.299  0.00  0.00    +0.000 A 
ATOM     17  C   UNL     1      46.188   1.405   8.151  0.00  0.00    +0.000 A 
ATOM     18  C   UNL     1      45.234   1.884   9.037  0.00  0.00    +0.000 A 
ENDBRANCH  12  13
ENDBRANCH   8  12
ENDBRANCH   7   8
ENDBRANCH   1   7
BRANCH   4  19
ATOM     19  C   UNL     1      48.544   7.881  12.216  0.00  0.00    +0.000 C 
BRANCH  19  20
ATOM     20  N   UNL     1      49.727   7.366  12.907  0.00  0.00    +0.000 NA
ATOM     21  H   UNL     1      50.523   7.424  12.272  0.00  0.00    +0.000 HD
BRANCH  20  22
ATOM     22  C   UNL     1      50.044   8.132  14.119  0.00  0.00    +0.000 C 
BRANCH  22  23
ATOM     23  C   UNL     1      50.583   7.218  15.189  0.00  0.00    +0.000 A 
ATOM     24  C   UNL     1      51.886   7.314  15.640  0.00  0.00    +0.000 A 
ATOM     25  N   UNL     1      52.389   6.541  16.621  0.00  0.00    +0.000 NA
ATOM     26  C   UNL     1      51.510   5.666  17.135  0.00  0.00    +0.000 A 
ATOM     27  N   UNL     1      50.226   5.523  16.748  0.00  0.00    +0.000 NA
ATOM     28  N   UNL     1      49.750   6.315  15.753  0.00  0.00    +0.000 NA
ENDBRANCH  22  23
ENDBRANCH  20  22
ENDBRANCH  19  20
ENDBRANCH   4  19
TORSDOF 9
ENDMDL
MODEL 5
REMARK VINA RESULT:    -7.259      2.116      8.296
REMARK INTER + INTRA:         -11.824
REMARK INTER:                 -10.791
REMARK INTRA:                  -1.033
REMARK UNBOUND:                -0.958
REMARK  Name = 
REMARK  9 active torsions:
REMARK  status: ('A' for Active; 'I' for Inactive)
REMARK    1  A    between atoms: N_1  and  C_2
REMARK    2  A    between atoms: C_2  and  C_3
REMARK    3  A    between atoms: C_2  and  C_10
REMARK    4  A    between atoms: C_3  and  C_4
REMARK    5  A    between atoms: C_10  and  C_11
REMARK    6  A    between atoms: C_14  and  C_15
REMARK    7  A    between atoms: C_15  and  N_16
REMARK    8  A    between atoms: N_16  and  C_17
REMARK    9  A    between atoms: C_17  and  C_18
REMARK                            x       y       z     vdW  Elec       q    Type
REMARK                         _______ _______ _______ _____ _____    ______ ____
ROOT
ATOM      1  C   UNL     1      46.688   6.388  12.899  0.00  0.00    +0.000 A 
ATOM      2  C   UNL     1      46.186   6.712  11.629  0.00  0.00    +0.000 A 
ATOM      3  C   UNL     1      45.382   5.798  10.927  0.00  0.00    +0.000 A 
ATOM      4  C   UNL     1      45.034   4.570  11.494  0.00  0.00    +0.000 A 
ATOM      5  C   UNL     1      45.469   4.286  12.794  0.00  0.00    +0.000 A 
ATOM      6  C   UNL     1      46.293   5.188  13.486  0.00  0.00    +0.000 A 
ENDROOT
BRANCH   1   7
ATOM      7  C   UNL     1      47.685   7.298  13.592  0.00  0.00    +0.000 C 
BRANCH   7   8
ATOM      8  C   UNL     1      48.792   6.585  14.398  0.00  0.00    +0.000 C 
BRANCH   8   9
ATOM      9  N   UNL     1      50.120   7.117  14.013  0.00  0.00    +0.000 NA
ATOM     10  H   UNL     1      50.391   7.809  14.717  0.00  0.00    +0.000 HD
ATOM     11  H   UNL     1      50.037   7.652  13.149  0.00  0.00    +0.000 HD
ENDBRANCH   8   9
BRANCH   8  12
ATOM     12  C   UNL     1      48.599   6.718  15.931  0.00  0.00    +0.000 C 
BRANCH  12  13
ATOM     13  C   UNL     1      48.614   5.388  16.650  0.00  0.00    +0.000 A 
ATOM     14  C   UNL     1      47.450   4.618  16.784  0.00  0.00    +0.000 A 
ATOM     15  C   UNL     1      47.495   3.364  17.396  0.00  0.00    +0.000 A 
ATOM     16  C   UNL     1      48.702   2.874  17.893  0.00  0.00    +0.000 A 
ATOM     17  C   UNL     1      49.852   3.650  17.795  0.00  0.00    +0.000 A 
ATOM     18  C   UNL     1      49.815   4.893  17.180  0.00  0.00    +0.000 A 
ENDBRANCH  12  13
ENDBRANCH   8  12
ENDBRANCH   7   8
ENDBRANCH   1   7
BRANCH   4  19
ATOM     19  C   UNL     1      44.182   3.581  10.725  0.00  0.00    +0.000 C 
BRANCH  19  20
ATOM     20  N   UNL     1      44.940   2.369  10.410  0.00  0.00    +0.000 NA
ATOM     21  H   UNL     1      44.662   1.636  11.062  0.00  0.00    +0.000 HD
BRANCH  20  22
ATOM     22  C   UNL     1      44.692   1.893   9.043  0.00  0.00    +0.000 C 
BRANCH  22  23
ATOM     23  C   UNL     1      45.920   2.085   8.192  0.00  0.00    +0.000 A 
ATOM     24  C   UNL     1      46.684   1.015   7.766  0.00  0.00    +0.000 A 
ATOM     25  N   UNL     1      47.765   1.147   6.972  0.00  0.00    +0.000 NA
ATOM     26  C   UNL     1      48.035   2.413   6.619  0.00  0.00    +0.000 A 
ATOM     27  N   UNL     1      47.330   3.500   6.993  0.00  0.00    +0.000 NA
ATOM     28  N   UNL     1      46.248   3.335   7.797  0.00  0.00    +0.000 NA
ENDBRANCH  22  23
ENDBRANCH  20  22
ENDBRANCH  19  20
ENDBRANCH   4  19
TORSDOF 9
ENDMDL
MODEL 6
REMARK VINA RESULT:    -7.180      4.105      6.278
REMARK INTER + INTRA:         -11.705
REMARK INTER:                 -11.592
REMARK INTRA:                  -0.114
REMARK UNBOUND:                -0.958
REMARK  Name = 
REMARK  9 active torsions:
REMARK  status: ('A' for Active; 'I' for Inactive)
REMARK    1  A    between atoms: N_1  and  C_2
REMARK    2  A    between atoms: C_2  and  C_3
REMARK    3  A    between atoms: C_2  and  C_10
REMARK    4  A    between atoms: C_3  and  C_4
REMARK    5  A    between atoms: C_10  and  C_11
REMARK    6  A    between atoms: C_14  and  C_15
REMARK    7  A    between atoms: C_15  and  N_16
REMARK    8  A    between atoms: N_16  and  C_17
REMARK    9  A    between atoms: C_17  and  C_18
REMARK                            x       y       z     vdW  Elec       q    Type
REMARK                         _______ _______ _______ _____ _____    ______ ____
ROOT
ATOM      1  C   UNL     1      45.372   4.818  12.019  0.00  0.00    +0.000 A 
ATOM      2  C   UNL     1      46.236   5.330  12.999  0.00  0.00    +0.000 A 
ATOM      3  C   UNL     1      46.409   6.717  13.141  0.00  0.00    +0.000 A 
ATOM      4  C   UNL     1      45.697   7.612  12.339  0.00  0.00    +0.000 A 
ATOM      5  C   UNL     1      44.775   7.098  11.420  0.00  0.00    +0.000 A 
ATOM      6  C   UNL     1      44.619   5.712  11.261  0.00  0.00    +0.000 A 
ENDROOT
BRANCH   1   7
ATOM      7  C   UNL     1      45.302   3.326  11.753  0.00  0.00    +0.000 C 
BRANCH   7   8
ATOM      8  C   UNL     1      44.171   2.869  10.806  0.00  0.00    +0.000 C 
BRANCH   8   9
ATOM      9  N   UNL     1      42.853   3.167  11.412  0.00  0.00    +0.000 NA
ATOM     10  H   UNL     1      43.022   3.580  12.333  0.00  0.00    +0.000 HD
ATOM     11  H   UNL     1      42.363   2.296  11.610  0.00  0.00    +0.000 HD
ENDBRANCH   8   9
BRANCH   8  12
ATOM     12  C   UNL     1      44.262   3.525   9.403  0.00  0.00    +0.000 C 
BRANCH  12  13
ATOM     13  C   UNL     1      45.365   2.947   8.547  0.00  0.00    +0.000 A 
ATOM     14  C   UNL     1      45.681   1.581   8.588  0.00  0.00    +0.000 A 
ATOM     15  C   UNL     1      46.661   1.053   7.746  0.00  0.00    +0.000 A 
ATOM     16  C   UNL     1      47.346   1.889   6.864  0.00  0.00    +0.000 A 
ATOM     17  C   UNL     1      47.062   3.250   6.845  0.00  0.00    +0.000 A 
ATOM     18  C   UNL     1      46.082   3.779   7.674  0.00  0.00    +0.000 A 
ENDBRANCH  12  13
ENDBRANCH   8  12
ENDBRANCH   7   8
ENDBRANCH   1   7
BRANCH   4  19
ATOM     19  C   UNL     1      45.901   9.106  12.485  0.00  0.00    +0.000 C 
BRANCH  19  20
ATOM     20  N   UNL     1      44.620   9.797  12.638  0.00  0.00    +0.000 NA
ATOM     21  H   UNL     1      44.636  10.316  13.516  0.00  0.00    +0.000 HD
BRANCH  20  22
ATOM     22  C   UNL     1      44.361  10.743  11.545  0.00  0.00    +0.000 C 
BRANCH  22  23
ATOM     23  C   UNL     1      42.881  10.994  11.410  0.00  0.00    +0.000 A 
ATOM     24  C   UNL     1      42.046  10.093  10.776  0.00  0.00    +0.000 A 
ATOM     25  N   UNL     1      40.714  10.265  10.673  0.00  0.00    +0.000 NA
ATOM     26  C   UNL     1      40.260  11.390  11.248  0.00  0.00    +0.000 A 
ATOM     27  N   UNL     1      41.016  12.306  11.886  0.00  0.00    +0.000 NA
ATOM     28  N   UNL     1      42.356  12.106  11.970  0.00  0.00    +0.000 NA
ENDBRANCH  22  23
ENDBRANCH  20  22
ENDBRANCH  19  20
ENDBRANCH   4  19
TORSDOF 9
ENDMDL
MODEL 7
REMARK VINA RESULT:    -6.736      1.705      2.492
REMARK INTER + INTRA:         -11.041
REMARK INTER:                 -10.374
REMARK INTRA:                  -0.667
REMARK UNBOUND:                -0.958
REMARK  Name = 
REMARK  9 active torsions:
REMARK  status: ('A' for Active; 'I' for Inactive)
REMARK    1  A    between atoms: N_1  and  C_2
REMARK    2  A    between atoms: C_2  and  C_3
REMARK    3  A    between atoms: C_2  and  C_10
REMARK    4  A    between atoms: C_3  and  C_4
REMARK    5  A    between atoms: C_10  and  C_11
REMARK    6  A    between atoms: C_14  and  C_15
REMARK    7  A    between atoms: C_15  and  N_16
REMARK    8  A    between atoms: N_16  and  C_17
REMARK    9  A    between atoms: C_17  and  C_18
REMARK                            x       y       z     vdW  Elec       q    Type
REMARK                         _______ _______ _______ _____ _____    ______ ____
ROOT
ATOM      1  C   UNL     1      46.129   5.793  11.640  0.00  0.00    +0.000 A 
ATOM      2  C   UNL     1      46.188   4.708  12.528  0.00  0.00    +0.000 A 
ATOM      3  C   UNL     1      46.911   4.808  13.728  0.00  0.00    +0.000 A 
ATOM      4  C   UNL     1      47.551   6.000  14.078  0.00  0.00    +0.000 A 
ATOM      5  C   UNL     1      47.420   7.105  13.229  0.00  0.00    +0.000 A 
ATOM      6  C   UNL     1      46.717   6.997  12.018  0.00  0.00    +0.000 A 
ENDROOT
BRANCH   1   7
ATOM      7  C   UNL     1      45.487   5.639  10.273  0.00  0.00    +0.000 C 
BRANCH   7   8
ATOM      8  C   UNL     1      44.660   4.352  10.065  0.00  0.00    +0.000 C 
BRANCH   8   9
ATOM      9  N   UNL     1      43.338   4.489  10.720  0.00  0.00    +0.000 NA
ATOM     10  H   UNL     1      43.235   5.466  11.008  0.00  0.00    +0.000 HD
ATOM     11  H   UNL     1      43.333   3.965  11.594  0.00  0.00    +0.000 HD
ENDBRANCH   8   9
BRANCH   8  12
ATOM     12  C   UNL     1      44.467   3.999   8.568  0.00  0.00    +0.000 C 
BRANCH  12  13
ATOM     13  C   UNL     1      45.558   3.106   8.022  0.00  0.00    +0.000 A 
ATOM     14  C   UNL     1      45.703   1.781   8.457  0.00  0.00    +0.000 A 
ATOM     15  C   UNL     1      46.677   0.952   7.898  0.00  0.00    +0.000 A 
ATOM     16  C   UNL     1      47.526   1.445   6.908  0.00  0.00    +0.000 A 
ATOM     17  C   UNL     1      47.411   2.769   6.499  0.00  0.00    +0.000 A 
ATOM     18  C   UNL     1      46.439   3.595   7.045  0.00  0.00    +0.000 A 
ENDBRANCH  12  13
ENDBRANCH   8  12
ENDBRANCH   7   8
ENDBRANCH   1   7
BRANCH   4  19
ATOM     19  C   UNL     1      48.345   6.097  15.366  0.00  0.00    +0.000 C 
BRANCH  19  20
ATOM     20  N   UNL     1      48.391   4.805  16.052  0.00  0.00    +0.000 NA
ATOM     21  H   UNL     1      49.364   4.587  16.263  0.00  0.00    +0.000 HD
BRANCH  20  22
ATOM     22  C   UNL     1      47.632   4.813  17.310  0.00  0.00    +0.000 C 
BRANCH  22  23
ATOM     23  C   UNL     1      48.572   4.872  18.486  0.00  0.00    +0.000 A 
ATOM     24  C   UNL     1      49.923   4.616  18.350  0.00  0.00    +0.000 A 
ATOM     25  N   UNL     1      50.798   4.698  19.372  0.00  0.00    +0.000 NA
ATOM     26  C   UNL     1      50.246   5.060  20.540  0.00  0.00    +0.000 A 
ATOM     27  N   UNL     1      48.939   5.329  20.741  0.00  0.00    +0.000 NA
ATOM     28  N   UNL     1      48.082   5.233  19.692  0.00  0.00    +0.000 NA
ENDBRANCH  22  23
ENDBRANCH  20  22
ENDBRANCH  19  20
ENDBRANCH   4  19
TORSDOF 9
ENDMDL
MODEL 8
REMARK VINA RESULT:    -6.614      2.276      8.433
REMARK INTER + INTRA:         -10.859
REMARK INTER:                 -10.520
REMARK INTRA:                  -0.338
REMARK UNBOUND:                -0.958
REMARK  Name = 
REMARK  9 active torsions:
REMARK  status: ('A' for Active; 'I' for Inactive)
REMARK    1  A    between atoms: N_1  and  C_2
REMARK    2  A    between atoms: C_2  and  C_3
REMARK    3  A    between atoms: C_2  and  C_10
REMARK    4  A    between atoms: C_3  and  C_4
REMARK    5  A    between atoms: C_10  and  C_11
REMARK    6  A    between atoms: C_14  and  C_15
REMARK    7  A    between atoms: C_15  and  N_16
REMARK    8  A    between atoms: N_16  and  C_17
REMARK    9  A    between atoms: C_17  and  C_18
REMARK                            x       y       z     vdW  Elec       q    Type
REMARK                         _______ _______ _______ _____ _____    ______ ____
ROOT
ATOM      1  C   UNL     1      46.270   4.877  13.731  0.00  0.00    +0.000 A 
ATOM      2  C   UNL     1      45.574   6.013  13.291  0.00  0.00    +0.000 A 
ATOM      3  C   UNL     1      44.691   5.930  12.202  0.00  0.00    +0.000 A 
ATOM      4  C   UNL     1      44.458   4.710  11.562  0.00  0.00    +0.000 A 
ATOM      5  C   UNL     1      45.092   3.564  12.057  0.00  0.00    +0.000 A 
ATOM      6  C   UNL     1      45.994   3.651  13.130  0.00  0.00    +0.000 A 
ENDROOT
BRANCH   1   7
ATOM      7  C   UNL     1      47.343   4.992  14.798  0.00  0.00    +0.000 C 
BRANCH   7   8
ATOM      8  C   UNL     1      47.284   3.933  15.920  0.00  0.00    +0.000 C 
BRANCH   8   9
ATOM      9  N   UNL     1      48.052   2.730  15.521  0.00  0.00    +0.000 NA
ATOM     10  H   UNL     1      48.301   2.836  14.534  0.00  0.00    +0.000 HD
ATOM     11  H   UNL     1      47.443   1.913  15.544  0.00  0.00    +0.000 HD
ENDBRANCH   8   9
BRANCH   8  12
ATOM     12  C   UNL     1      47.815   4.466  17.276  0.00  0.00    +0.000 C 
BRANCH  12  13
ATOM     13  C   UNL     1      49.323   4.543  17.335  0.00  0.00    +0.000 A 
ATOM     14  C   UNL     1      50.009   5.708  16.961  0.00  0.00    +0.000 A 
ATOM     15  C   UNL     1      51.397   5.784  17.080  0.00  0.00    +0.000 A 
ATOM     16  C   UNL     1      52.116   4.690  17.562  0.00  0.00    +0.000 A 
ATOM     17  C   UNL     1      51.445   3.520  17.900  0.00  0.00    +0.000 A 
ATOM     18  C   UNL     1      50.064   3.442  17.792  0.00  0.00    +0.000 A 
ENDBRANCH  12  13
ENDBRANCH   8  12
ENDBRANCH   7   8
ENDBRANCH   1   7
BRANCH   4  19
ATOM     19  C   UNL     1      43.518   4.630  10.376  0.00  0.00    +0.000 C 
BRANCH  19  20
ATOM     20  N   UNL     1      43.903   3.541   9.477  0.00  0.00    +0.000 NA
ATOM     21  H   UNL     1      43.055   3.084   9.144  0.00  0.00    +0.000 HD
BRANCH  20  22
ATOM     22  C   UNL     1      44.660   4.020   8.313  0.00  0.00    +0.000 C 
BRANCH  22  23
ATOM     23  C   UNL     1      45.678   2.990   7.893  0.00  0.00    +0.000 A 
ATOM     24  C   UNL     1      46.723   3.305   7.045  0.00  0.00    +0.000 A 
ATOM     25  N   UNL     1      47.672   2.420   6.682  0.00  0.00    +0.000 NA
ATOM     26  C   UNL     1      47.522   1.200   7.220  0.00  0.00    +0.000 A 
ATOM     27  N   UNL     1      46.531   0.828   8.056  0.00  0.00    +0.000 NA
ATOM     28  N   UNL     1      45.587   1.742   8.401  0.00  0.00    +0.000 NA
ENDBRANCH  22  23
ENDBRANCH  20  22
ENDBRANCH  19  20
ENDBRANCH   4  19
TORSDOF 9
ENDMDL
MODEL 9
REMARK VINA RESULT:    -6.592      3.264      7.757
REMARK INTER + INTRA:         -10.826
REMARK INTER:                  -9.945
REMARK INTRA:                  -0.881
REMARK UNBOUND:                -0.958
REMARK  Name = 
REMARK  9 active torsions:
REMARK  status: ('A' for Active; 'I' for Inactive)
REMARK    1  A    between atoms: N_1  and  C_2
REMARK    2  A    between atoms: C_2  and  C_3
REMARK    3  A    between atoms: C_2  and  C_10
REMARK    4  A    between atoms: C_3  and  C_4
REMARK    5  A    between atoms: C_10  and  C_11
REMARK    6  A    between atoms: C_14  and  C_15
REMARK    7  A    between atoms: C_15  and  N_16
REMARK    8  A    between atoms: N_16  and  C_17
REMARK    9  A    between atoms: C_17  and  C_18
REMARK                            x       y       z     vdW  Elec       q    Type
REMARK                         _______ _______ _______ _____ _____    ______ ____
ROOT
ATOM      1  C   UNL     1      46.839   6.807  12.911  0.00  0.00    +0.000 A 
ATOM      2  C   UNL     1      46.792   5.503  13.428  0.00  0.00    +0.000 A 
ATOM      3  C   UNL     1      45.913   4.553  12.882  0.00  0.00    +0.000 A 
ATOM      4  C   UNL     1      45.100   4.874  11.792  0.00  0.00    +0.000 A 
ATOM      5  C   UNL     1      45.211   6.150  11.228  0.00  0.00    +0.000 A 
ATOM      6  C   UNL     1      46.072   7.108  11.788  0.00  0.00    +0.000 A 
ENDROOT
BRANCH   1   7
ATOM      7  C   UNL     1      47.665   7.881  13.595  0.00  0.00    +0.000 C 
BRANCH   7   8
ATOM      8  C   UNL     1      49.178   7.854  13.291  0.00  0.00    +0.000 C 
BRANCH   8   9
ATOM      9  N   UNL     1      49.883   7.031  14.301  0.00  0.00    +0.000 NA
ATOM     10  H   UNL     1      49.172   6.542  14.852  0.00  0.00    +0.000 HD
ATOM     11  H   UNL     1      50.351   7.639  14.972  0.00  0.00    +0.000 HD
ENDBRANCH   8   9
BRANCH   8  12
ATOM     12  C   UNL     1      49.495   7.321  11.869  0.00  0.00    +0.000 C 
BRANCH  12  13
ATOM     13  C   UNL     1      50.653   8.037  11.211  0.00  0.00    +0.000 A 
ATOM     14  C   UNL     1      51.606   7.341  10.455  0.00  0.00    +0.000 A 
ATOM     15  C   UNL     1      52.633   8.025   9.802  0.00  0.00    +0.000 A 
ATOM     16  C   UNL     1      52.725   9.413   9.911  0.00  0.00    +0.000 A 
ATOM     17  C   UNL     1      51.803  10.105  10.689  0.00  0.00    +0.000 A 
ATOM     18  C   UNL     1      50.775   9.430  11.333  0.00  0.00    +0.000 A 
ENDBRANCH  12  13
ENDBRANCH   8  12
ENDBRANCH   7   8
ENDBRANCH   1   7
BRANCH   4  19
ATOM     19  C   UNL     1      44.141   3.850  11.219  0.00  0.00    +0.000 C 
BRANCH  19  20
ATOM     20  N   UNL     1      44.849   2.630  10.830  0.00  0.00    +0.000 NA
ATOM     21  H   UNL     1      44.657   1.910  11.525  0.00  0.00    +0.000 HD
BRANCH  20  22
ATOM     22  C   UNL     1      44.422   2.132   9.515  0.00  0.00    +0.000 C 
BRANCH  22  23
ATOM     23  C   UNL     1      45.515   2.338   8.498  0.00  0.00    +0.000 A 
ATOM     24  C   UNL     1      45.732   3.565   7.902  0.00  0.00    +0.000 A 
ATOM     25  N   UNL     1      46.724   3.795   7.020  0.00  0.00    +0.000 NA
ATOM     26  C   UNL     1      47.496   2.726   6.772  0.00  0.00    +0.000 A 
ATOM     27  N   UNL     1      47.344   1.503   7.321  0.00  0.00    +0.000 NA
ATOM     28  N   UNL     1      46.332   1.303   8.204  0.00  0.00    +0.000 NA
ENDBRANCH  22  23
ENDBRANCH  20  22
ENDBRANCH  19  20
ENDBRANCH   4  19
TORSDOF 9
ENDMDL
