MODEL 1
REMARK VINA RESULT:    -7.948      0.000      0.000
REMARK INTER + INTRA:         -12.980
REMARK INTER:                 -11.665
REMARK INTRA:                  -1.315
REMARK UNBOUND:                -1.315
REMARK  Name = 
REMARK  12 active torsions:
REMARK  status: ('A' for Active; 'I' for Inactive)
REMARK    1  A    between atoms: C_1  and  O_2
REMARK    2  A    between atoms: O_2  and  C_3
REMARK    3  A    between atoms: C_5  and  C_6
REMARK    4  A    between atoms: C_6  and  C_7
REMARK    5  A    between atoms: C_6  and  C_8
REMARK    6  A    between atoms: C_6  and  C_9
REMARK    7  A    between atoms: C_9  and  O_10
REMARK    8  A    between atoms: O_10  and  C_11
REMARK    9  A    between atoms: C_14  and  C_15
REMARK   10  A    between atoms: C_15  and  O_17
REMARK   11  A    between atoms: C_22  and  C_23
REMARK   12  A    between atoms: C_23  and  N_24
REMARK                            x       y       z     vdW  Elec       q    Type
REMARK                         _______ _______ _______ _____ _____    ______ ____
ROOT
ATOM      1  C   UNL     1      43.729   4.527  11.775  0.00  0.00    +0.000 C 
ATOM      2  C   UNL     1      43.589   3.200  12.556  0.00  0.00    +0.000 C 
ATOM      3  C   UNL     1      42.569   5.467  12.166  0.00  0.00    +0.000 C 
ENDROOT
BRANCH   1   6
ATOM      4  C   UNL     1      47.019   5.369  13.627  0.00  0.00    +0.000 A 
ATOM      5  C   UNL     1      45.787   4.799  13.275  0.00  0.00    +0.000 A 
ATOM      6  C   UNL     1      45.075   5.199  12.124  0.00  0.00    +0.000 A 
ATOM      7  C   UNL     1      45.640   6.219  11.344  0.00  0.00    +0.000 A 
ATOM      8  C   UNL     1      46.870   6.785  11.678  0.00  0.00    +0.000 A 
ATOM      9  C   UNL     1      47.585   6.354  12.804  0.00  0.00    +0.000 A 
BRANCH   4  11
ATOM     10  C   UNL     1      47.146   4.082  15.635  0.00  0.00    +0.000 C 
ATOM     11  O   UNL     1      47.718   5.048  14.762  0.00  0.00    +0.000 OA
ENDBRANCH   4  11
BRANCH   9  12
ATOM     12  C   UNL     1      48.952   6.940  13.059  0.00  0.00    +0.000 C 
BRANCH  12  13
ATOM     13  N   UNL     1      49.016   7.550  14.389  0.00  0.00    +0.000 NA
ATOM     14  H   UNL     1      49.974   7.859  14.549  0.00  0.00    +0.000 HD
ATOM     15  H   UNL     1      48.824   6.837  15.089  0.00  0.00    +0.000 HD
ENDBRANCH  12  13
ENDBRANCH   9  12
ENDBRANCH   1   6
BRANCH   1  16
ATOM     16  C   UNL     1      43.618   4.217  10.257  0.00  0.00    +0.000 C 
BRANCH  16  17
ATOM     17  O   UNL     1      43.873   2.839   9.945  0.00  0.00    +0.000 OA
BRANCH  17  18
ATOM     18  C   UNL     1      44.918   2.721   9.047  0.00  0.00    +0.000 A 
ATOM     19  C   UNL     1      45.345   3.877   8.412  0.00  0.00    +0.000 A 
ATOM     20  C   UNL     1      46.401   3.782   7.501  0.00  0.00    +0.000 A 
ATOM     21  C   UNL     1      46.996   2.538   7.271  0.00  0.00    +0.000 A 
ATOM     22  C   UNL     1      46.489   1.437   7.938  0.00  0.00    +0.000 A 
ATOM     23  N   UNL     1      45.471   1.507   8.827  0.00  0.00    +0.000 NA
BRANCH  21  24
ATOM     24  C   UNL     1      48.106   2.311   6.325  0.00  0.00    +0.000 C 
ATOM     25  O   UNL     1      48.049   1.481   5.435  0.00  0.00    +0.000 OA
BRANCH  24  26
ATOM     26  O   UNL     1      49.197   3.069   6.557  0.00  0.00    +0.000 OA
ATOM     27  H   UNL     1      49.179   3.598   7.375  0.00  0.00    +0.000 HD
ENDBRANCH  24  26
ENDBRANCH  21  24
ENDBRANCH  17  18
ENDBRANCH  16  17
ENDBRANCH   1  16
TORSDOF 9
ENDMDL
MODEL 2
REMARK VINA RESULT:    -7.114      1.909      2.496
REMARK INTER + INTRA:         -11.756
REMARK INTER:                 -10.600
REMARK INTRA:                  -1.156
REMARK UNBOUND:                -1.315
REMARK  Name = 
REMARK  12 active torsions:
REMARK  status: ('A' for Active; 'I' for Inactive)
REMARK    1  A    between atoms: C_1  and  O_2
REMARK    2  A    between atoms: O_2  and  C_3
REMARK    3  A    between atoms: C_5  and  C_6
REMARK    4  A    between atoms: C_6  and  C_7
REMARK    5  A    between atoms: C_6  and  C_8
REMARK    6  A    between atoms: C_6  and  C_9
REMARK    7  A    between atoms: C_9  and  O_10
REMARK    8  A    between atoms: O_10  and  C_11
REMARK    9  A    between atoms: C_14  and  C_15
REMARK   10  A    between atoms: C_15  and  O_17
REMARK   11  A    between atoms: C_22  and  C_23
REMARK   12  A    between atoms: C_23  and  N_24
REMARK                            x       y       z     vdW  Elec       q    Type
REMARK                         _______ _______ _______ _____ _____    ______ ____
ROOT
ATOM      1  C   UNL     1      44.104   4.824  12.053  0.00  0.00    +0.000 C 
ATOM      2  C   UNL     1      44.767   3.553  12.630  0.00  0.00    +0.000 C 
ATOM      3  C   UNL     1      42.882   5.194  12.921  0.00  0.00    +0.000 C 
ENDROOT
BRANCH   1   6
ATOM      4  C   UNL     1      45.539   8.411  12.257  0.00  0.00    +0.000 A 
ATOM      5  C   UNL     1      44.660   7.318  12.225  0.00  0.00    +0.000 A 
ATOM      6  C   UNL     1      45.115   5.992  12.066  0.00  0.00    +0.000 A 
ATOM      7  C   UNL     1      46.496   5.803  11.914  0.00  0.00    +0.000 A 
ATOM      8  C   UNL     1      47.381   6.879  11.957  0.00  0.00    +0.000 A 
ATOM      9  C   UNL     1      46.920   8.189  12.152  0.00  0.00    +0.000 A 
BRANCH   4  11
ATOM     10  C   UNL     1      44.117  10.161  11.472  0.00  0.00    +0.000 C 
ATOM     11  O   UNL     1      45.137   9.718  12.358  0.00  0.00    +0.000 OA
ENDBRANCH   4  11
BRANCH   9  12
ATOM     12  C   UNL     1      47.934   9.300  12.281  0.00  0.00    +0.000 C 
BRANCH  12  13
ATOM     13  N   UNL     1      47.756  10.022  13.543  0.00  0.00    +0.000 NA
ATOM     14  H   UNL     1      47.272  10.896  13.341  0.00  0.00    +0.000 HD
ATOM     15  H   UNL     1      48.670  10.278  13.909  0.00  0.00    +0.000 HD
ENDBRANCH  12  13
ENDBRANCH   9  12
ENDBRANCH   1   6
BRANCH   1  16
ATOM     16  C   UNL     1      43.607   4.510  10.615  0.00  0.00    +0.000 C 
BRANCH  16  17
ATOM     17  O   UNL     1      43.774   3.131  10.252  0.00  0.00    +0.000 OA
BRANCH  17  18
ATOM     18  C   UNL     1      44.716   2.996   9.249  0.00  0.00    +0.000 A 
ATOM     19  C   UNL     1      45.083   4.142   8.562  0.00  0.00    +0.000 A 
ATOM     20  C   UNL     1      46.036   4.030   7.544  0.00  0.00    +0.000 A 
ATOM     21  C   UNL     1      46.591   2.778   7.264  0.00  0.00    +0.000 A 
ATOM     22  C   UNL     1      46.148   1.688   7.990  0.00  0.00    +0.000 A 
ATOM     23  N   UNL     1      45.231   1.774   8.982  0.00  0.00    +0.000 NA
BRANCH  21  24
ATOM     24  C   UNL     1      47.592   2.532   6.207  0.00  0.00    +0.000 C 
ATOM     25  O   UNL     1      47.353   2.703   5.025  0.00  0.00    +0.000 OA
BRANCH  24  26
ATOM     26  O   UNL     1      48.774   2.065   6.660  0.00  0.00    +0.000 OA
ATOM     27  H   UNL     1      49.156   2.543   7.418  0.00  0.00    +0.000 HD
ENDBRANCH  24  26
ENDBRANCH  21  24
ENDBRANCH  17  18
ENDBRANCH  16  17
ENDBRANCH   1  16
TORSDOF 9
ENDMDL
MODEL 3
REMARK VINA RESULT:    -6.721      1.525      2.277
REMARK INTER + INTRA:         -11.180
REMARK INTER:                 -10.434
REMARK INTRA:                  -0.746
REMARK UNBOUND:                -1.315
REMARK  Name = 
REMARK  12 active torsions:
REMARK  status: ('A' for Active; 'I' for Inactive)
REMARK    1  A    between atoms: C_1  and  O_2
REMARK    2  A    between atoms: O_2  and  C_3
REMARK    3  A    between atoms: C_5  and  C_6
REMARK    4  A    between atoms: C_6  and  C_7
REMARK    5  A    between atoms: C_6  and  C_8
REMARK    6  A    between atoms: C_6  and  C_9
REMARK    7  A    between atoms: C_9  and  O_10
REMARK    8  A    between atoms: O_10  and  C_11
REMARK    9  A    between atoms: C_14  and  C_15
REMARK   10  A    between atoms: C_15  and  O_17
REMARK   11  A    between atoms: C_22  and  C_23
REMARK   12  A    between atoms: C_23  and  N_24
REMARK                            x       y       z     vdW  Elec       q    Type
REMARK                         _______ _______ _______ _____ _____    ______ ____
ROOT
ATOM      1  C   UNL     1      44.011   4.711  12.142  0.00  0.00    +0.000 C 
ATOM      2  C   UNL     1      43.017   4.432  13.293  0.00  0.00    +0.000 C 
ATOM      3  C   UNL     1      43.359   5.689  11.140  0.00  0.00    +0.000 C 
ENDROOT
BRANCH   1   6
ATOM      4  C   UNL     1      46.612   7.365  13.221  0.00  0.00    +0.000 A 
ATOM      5  C   UNL     1      45.464   6.743  12.705  0.00  0.00    +0.000 A 
ATOM      6  C   UNL     1      45.302   5.342  12.708  0.00  0.00    +0.000 A 
ATOM      7  C   UNL     1      46.355   4.577  13.232  0.00  0.00    +0.000 A 
ATOM      8  C   UNL     1      47.495   5.183  13.758  0.00  0.00    +0.000 A 
ATOM      9  C   UNL     1      47.629   6.578  13.782  0.00  0.00    +0.000 A 
BRANCH   4  11
ATOM     10  C   UNL     1      46.326   9.441  12.076  0.00  0.00    +0.000 C 
ATOM     11  O   UNL     1      46.833   8.717  13.190  0.00  0.00    +0.000 OA
ENDBRANCH   4  11
BRANCH   9  12
ATOM     12  C   UNL     1      48.845   7.175  14.449  0.00  0.00    +0.000 C 
BRANCH  12  13
ATOM     13  N   UNL     1      49.329   6.304  15.522  0.00  0.00    +0.000 NA
ATOM     14  H   UNL     1      50.302   6.543  15.707  0.00  0.00    +0.000 HD
ATOM     15  H   UNL     1      49.328   5.342  15.193  0.00  0.00    +0.000 HD
ENDBRANCH  12  13
ENDBRANCH   9  12
ENDBRANCH   1   6
BRANCH   1  16
ATOM     16  C   UNL     1      44.299   3.374  11.405  0.00  0.00    +0.000 C 
BRANCH  16  17
ATOM     17  O   UNL     1      43.676   3.298  10.114  0.00  0.00    +0.000 OA
BRANCH  17  18
ATOM     18  C   UNL     1      44.617   3.081   9.125  0.00  0.00    +0.000 A 
ATOM     19  C   UNL     1      45.245   1.846   9.104  0.00  0.00    +0.000 A 
ATOM     20  C   UNL     1      46.199   1.602   8.111  0.00  0.00    +0.000 A 
ATOM     21  C   UNL     1      46.477   2.600   7.173  0.00  0.00    +0.000 A 
ATOM     22  C   UNL     1      45.813   3.808   7.285  0.00  0.00    +0.000 A 
ATOM     23  N   UNL     1      44.883   4.063   8.235  0.00  0.00    +0.000 NA
BRANCH  21  24
ATOM     24  C   UNL     1      47.471   2.466   6.089  0.00  0.00    +0.000 C 
ATOM     25  O   UNL     1      47.297   2.935   4.979  0.00  0.00    +0.000 OA
BRANCH  24  26
ATOM     26  O   UNL     1      48.562   1.747   6.423  0.00  0.00    +0.000 OA
ATOM     27  H   UNL     1      48.842   1.075   5.775  0.00  0.00    +0.000 HD
ENDBRANCH  24  26
ENDBRANCH  21  24
ENDBRANCH  17  18
ENDBRANCH  16  17
ENDBRANCH   1  16
TORSDOF 9
ENDMDL
MODEL 4
REMARK VINA RESULT:    -6.384      2.139      6.556
REMARK INTER + INTRA:         -10.684
REMARK INTER:                  -9.548
REMARK INTRA:                  -1.136
REMARK UNBOUND:                -1.315
REMARK  Name = 
REMARK  12 active torsions:
REMARK  status: ('A' for Active; 'I' for Inactive)
REMARK    1  A    between atoms: C_1  and  O_2
REMARK    2  A    between atoms: O_2  and  C_3
REMARK    3  A    between atoms: C_5  and  C_6
REMARK    4  A    between atoms: C_6  and  C_7
REMARK    5  A    between atoms: C_6  and  C_8
REMARK    6  A    between atoms: C_6  and  C_9
REMARK    7  A    between atoms: C_9  and  O_10
REMARK    8  A    between atoms: O_10  and  C_11
REMARK    9  A    between atoms: C_14  and  C_15
REMARK   10  A    between atoms: C_15  and  O_17
REMARK   11  A    between atoms: C_22  and  C_23
REMARK   12  A    between atoms: C_23  and  N_24
REMARK                            x       y       z     vdW  Elec       q    Type
REMARK                         _______ _______ _______ _____ _____    ______ ____
ROOT
ATOM      1  C   UNL     1      44.401   3.319  10.743  0.00  0.00    +0.000 C 
ATOM      2  C   UNL     1      43.441   4.529  10.682  0.00  0.00    +0.000 C 
ATOM      3  C   UNL     1      43.577   2.034  10.976  0.00  0.00    +0.000 C 
ENDROOT
BRANCH   1   6
ATOM      4  C   UNL     1      46.471   1.808   7.845  0.00  0.00    +0.000 A 
ATOM      5  C   UNL     1      45.770   1.972   9.049  0.00  0.00    +0.000 A 
ATOM      6  C   UNL     1      45.174   3.198   9.411  0.00  0.00    +0.000 A 
ATOM      7  C   UNL     1      45.329   4.273   8.523  0.00  0.00    +0.000 A 
ATOM      8  C   UNL     1      46.012   4.119   7.318  0.00  0.00    +0.000 A 
ATOM      9  C   UNL     1      46.569   2.886   6.952  0.00  0.00    +0.000 A 
BRANCH   4  11
ATOM     10  C   UNL     1      46.406  -0.571   7.657  0.00  0.00    +0.000 C 
ATOM     11  O   UNL     1      47.109   0.652   7.477  0.00  0.00    +0.000 OA
ENDBRANCH   4  11
BRANCH   9  12
ATOM     12  C   UNL     1      47.216   2.760   5.594  0.00  0.00    +0.000 C 
BRANCH  12  13
ATOM     13  N   UNL     1      48.566   2.204   5.711  0.00  0.00    +0.000 NA
ATOM     14  H   UNL     1      48.548   1.482   6.430  0.00  0.00    +0.000 HD
ATOM     15  H   UNL     1      49.194   2.929   6.049  0.00  0.00    +0.000 HD
ENDBRANCH  12  13
ENDBRANCH   9  12
ENDBRANCH   1   6
BRANCH   1  16
ATOM     16  C   UNL     1      45.360   3.512  11.950  0.00  0.00    +0.000 C 
BRANCH  16  17
ATOM     17  O   UNL     1      45.100   4.717  12.686  0.00  0.00    +0.000 OA
BRANCH  17  18
ATOM     18  C   UNL     1      46.217   5.531  12.708  0.00  0.00    +0.000 A 
ATOM     19  C   UNL     1      46.486   6.274  11.570  0.00  0.00    +0.000 A 
ATOM     20  C   UNL     1      47.609   7.107  11.570  0.00  0.00    +0.000 A 
ATOM     21  C   UNL     1      48.411   7.171  12.713  0.00  0.00    +0.000 A 
ATOM     22  C   UNL     1      48.074   6.378  13.795  0.00  0.00    +0.000 A 
ATOM     23  N   UNL     1      46.989   5.569  13.818  0.00  0.00    +0.000 NA
BRANCH  21  24
ATOM     24  C   UNL     1      49.627   8.000  12.828  0.00  0.00    +0.000 C 
ATOM     25  O   UNL     1      49.756   9.060  12.242  0.00  0.00    +0.000 OA
BRANCH  24  26
ATOM     26  O   UNL     1      50.594   7.464  13.602  0.00  0.00    +0.000 OA
ATOM     27  H   UNL     1      51.287   6.967  13.130  0.00  0.00    +0.000 HD
ENDBRANCH  24  26
ENDBRANCH  21  24
ENDBRANCH  17  18
ENDBRANCH  16  17
ENDBRANCH   1  16
TORSDOF 9
ENDMDL
MODEL 5
REMARK VINA RESULT:    -6.189      3.942      6.685
REMARK INTER + INTRA:         -10.398
REMARK INTER:                  -9.721
REMARK INTRA:                  -0.677
REMARK UNBOUND:                -1.315
REMARK  Name = 
REMARK  12 active torsions:
REMARK  status: ('A' for Active; 'I' for Inactive)
REMARK    1  A    between atoms: C_1  and  O_2
REMARK    2  A    between atoms: O_2  and  C_3
REMARK    3  A    between atoms: C_5  and  C_6
REMARK    4  A    between atoms: C_6  and  C_7
REMARK    5  A    between atoms: C_6  and  C_8
REMARK    6  A    between atoms: C_6  and  C_9
REMARK    7  A    between atoms: C_9  and  O_10
REMARK    8  A    between atoms: O_10  and  C_11
REMARK    9  A    between atoms: C_14  and  C_15
REMARK   10  A    between atoms: C_15  and  O_17
REMARK   11  A    between atoms: C_22  and  C_23
REMARK   12  A    between atoms: C_23  and  N_24
REMARK                            x       y       z     vdW  Elec       q    Type
REMARK                         _______ _______ _______ _____ _____    ______ ____
ROOT
ATOM      1  C   UNL     1      48.199   4.837  16.964  0.00  0.00    +0.000 C 
ATOM      2  C   UNL     1      47.281   4.793  18.208  0.00  0.00    +0.000 C 
ATOM      3  C   UNL     1      48.658   6.292  16.729  0.00  0.00    +0.000 C 
ENDROOT
BRANCH   1   6
ATOM      4  C   UNL     1      51.811   3.742  17.814  0.00  0.00    +0.000 A 
ATOM      5  C   UNL     1      50.664   4.515  17.579  0.00  0.00    +0.000 A 
ATOM      6  C   UNL     1      49.435   3.939  17.195  0.00  0.00    +0.000 A 
ATOM      7  C   UNL     1      49.403   2.547  17.030  0.00  0.00    +0.000 A 
ATOM      8  C   UNL     1      50.533   1.766  17.273  0.00  0.00    +0.000 A 
ATOM      9  C   UNL     1      51.739   2.347  17.689  0.00  0.00    +0.000 A 
BRANCH   4  11
ATOM     10  C   UNL     1      53.558   5.285  17.296  0.00  0.00    +0.000 C 
ATOM     11  O   UNL     1      53.037   4.264  18.138  0.00  0.00    +0.000 OA
ENDBRANCH   4  11
BRANCH   9  12
ATOM     12  C   UNL     1      52.899   1.440  18.024  0.00  0.00    +0.000 C 
BRANCH  12  13
ATOM     13  N   UNL     1      52.460   0.045  18.110  0.00  0.00    +0.000 NA
ATOM     14  H   UNL     1      51.998  -0.085  19.009  0.00  0.00    +0.000 HD
ATOM     15  H   UNL     1      53.278  -0.559  18.118  0.00  0.00    +0.000 HD
ENDBRANCH  12  13
ENDBRANCH   9  12
ENDBRANCH   1   6
BRANCH   1  16
ATOM     16  C   UNL     1      47.376   4.376  15.730  0.00  0.00    +0.000 C 
BRANCH  16  17
ATOM     17  O   UNL     1      47.715   5.089  14.531  0.00  0.00    +0.000 OA
BRANCH  17  18
ATOM     18  C   UNL     1      46.800   4.830  13.527  0.00  0.00    +0.000 A 
ATOM     19  C   UNL     1      46.481   5.872  12.672  0.00  0.00    +0.000 A 
ATOM     20  C   UNL     1      45.558   5.633  11.649  0.00  0.00    +0.000 A 
ATOM     21  C   UNL     1      45.002   4.357  11.515  0.00  0.00    +0.000 A 
ATOM     22  C   UNL     1      45.368   3.385  12.429  0.00  0.00    +0.000 A 
ATOM     23  N   UNL     1      46.262   3.594  13.424  0.00  0.00    +0.000 NA
BRANCH  21  24
ATOM     24  C   UNL     1      44.010   3.988  10.486  0.00  0.00    +0.000 C 
ATOM     25  O   UNL     1      43.699   2.832  10.261  0.00  0.00    +0.000 OA
BRANCH  24  26
ATOM     26  O   UNL     1      43.514   5.034   9.793  0.00  0.00    +0.000 OA
ATOM     27  H   UNL     1      43.384   4.887   8.839  0.00  0.00    +0.000 HD
ENDBRANCH  24  26
ENDBRANCH  21  24
ENDBRANCH  17  18
ENDBRANCH  16  17
ENDBRANCH   1  16
TORSDOF 9
ENDMDL
MODEL 6
REMARK VINA RESULT:    -6.047      2.564      7.480
REMARK INTER + INTRA:         -10.190
REMARK INTER:                  -8.933
REMARK INTRA:                  -1.257
REMARK UNBOUND:                -1.315
REMARK  Name = 
REMARK  12 active torsions:
REMARK  status: ('A' for Active; 'I' for Inactive)
REMARK    1  A    between atoms: C_1  and  O_2
REMARK    2  A    between atoms: O_2  and  C_3
REMARK    3  A    between atoms: C_5  and  C_6
REMARK    4  A    between atoms: C_6  and  C_7
REMARK    5  A    between atoms: C_6  and  C_8
REMARK    6  A    between atoms: C_6  and  C_9
REMARK    7  A    between atoms: C_9  and  O_10
REMARK    8  A    between atoms: O_10  and  C_11
REMARK    9  A    between atoms: C_14  and  C_15
REMARK   10  A    between atoms: C_15  and  O_17
REMARK   11  A    between atoms: C_22  and  C_23
REMARK   12  A    between atoms: C_23  and  N_24
REMARK                            x       y       z     vdW  Elec       q    Type
REMARK                         _______ _______ _______ _____ _____    ______ ____
ROOT
ATOM      1  C   UNL     1      47.047   8.017  12.307  0.00  0.00    +0.000 C 
ATOM      2  C   UNL     1      48.277   7.725  11.417  0.00  0.00    +0.000 C 
ATOM      3  C   UNL     1      46.432   9.370  11.889  0.00  0.00    +0.000 C 
ENDROOT
BRANCH   1   6
ATOM      4  C   UNL     1      45.261   4.867  10.945  0.00  0.00    +0.000 A 
ATOM      5  C   UNL     1      46.178   5.911  11.137  0.00  0.00    +0.000 A 
ATOM      6  C   UNL     1      45.997   6.898  12.128  0.00  0.00    +0.000 A 
ATOM      7  C   UNL     1      44.837   6.814  12.911  0.00  0.00    +0.000 A 
ATOM      8  C   UNL     1      43.923   5.775  12.738  0.00  0.00    +0.000 A 
ATOM      9  C   UNL     1      44.133   4.779  11.774  0.00  0.00    +0.000 A 
BRANCH   4  11
ATOM     10  C   UNL     1      45.052   4.311   8.632  0.00  0.00    +0.000 C 
ATOM     11  O   UNL     1      45.371   3.918   9.961  0.00  0.00    +0.000 OA
ENDBRANCH   4  11
BRANCH   9  12
ATOM     12  C   UNL     1      43.155   3.631  11.698  0.00  0.00    +0.000 C 
BRANCH  12  13
ATOM     13  N   UNL     1      43.725   2.423  12.299  0.00  0.00    +0.000 NA
ATOM     14  H   UNL     1      43.196   1.621  11.958  0.00  0.00    +0.000 HD
ATOM     15  H   UNL     1      43.580   2.454  13.305  0.00  0.00    +0.000 HD
ENDBRANCH  12  13
ENDBRANCH   9  12
ENDBRANCH   1   6
BRANCH   1  16
ATOM     16  C   UNL     1      47.523   8.129  13.782  0.00  0.00    +0.000 C 
BRANCH  16  17
ATOM     17  O   UNL     1      48.699   7.352  14.053  0.00  0.00    +0.000 OA
BRANCH  17  18
ATOM     18  C   UNL     1      48.432   6.357  14.974  0.00  0.00    +0.000 A 
ATOM     19  C   UNL     1      47.550   5.357  14.594  0.00  0.00    +0.000 A 
ATOM     20  C   UNL     1      47.266   4.339  15.509  0.00  0.00    +0.000 A 
ATOM     21  C   UNL     1      47.884   4.356  16.763  0.00  0.00    +0.000 A 
ATOM     22  C   UNL     1      48.735   5.405  17.059  0.00  0.00    +0.000 A 
ATOM     23  N   UNL     1      49.028   6.398  16.187  0.00  0.00    +0.000 NA
BRANCH  21  24
ATOM     24  C   UNL     1      47.653   3.346  17.815  0.00  0.00    +0.000 C 
ATOM     25  O   UNL     1      48.489   3.076  18.659  0.00  0.00    +0.000 OA
BRANCH  24  26
ATOM     26  O   UNL     1      46.459   2.723  17.734  0.00  0.00    +0.000 OA
ATOM     27  H   UNL     1      46.462   1.858  17.286  0.00  0.00    +0.000 HD
ENDBRANCH  24  26
ENDBRANCH  21  24
ENDBRANCH  17  18
ENDBRANCH  16  17
ENDBRANCH   1  16
TORSDOF 9
ENDMDL
MODEL 7
REMARK VINA RESULT:    -5.896      1.645      2.752
REMARK INTER + INTRA:          -9.968
REMARK INTER:                  -9.417
REMARK INTRA:                  -0.551
REMARK UNBOUND:                -1.315
REMARK  Name = 
REMARK  12 active torsions:
REMARK  status: ('A' for Active; 'I' for Inactive)
REMARK    1  A    between atoms: C_1  and  O_2
REMARK    2  A    between atoms: O_2  and  C_3
REMARK    3  A    between atoms: C_5  and  C_6
REMARK    4  A    between atoms: C_6  and  C_7
REMARK    5  A    between atoms: C_6  and  C_8
REMARK    6  A    between atoms: C_6  and  C_9
REMARK    7  A    between atoms: C_9  and  O_10
REMARK    8  A    between atoms: O_10  and  C_11
REMARK    9  A    between atoms: C_14  and  C_15
REMARK   10  A    between atoms: C_15  and  O_17
REMARK   11  A    between atoms: C_22  and  C_23
REMARK   12  A    between atoms: C_23  and  N_24
REMARK                            x       y       z     vdW  Elec       q    Type
REMARK                         _______ _______ _______ _____ _____    ______ ____
ROOT
ATOM      1  C   UNL     1      45.419   5.582  12.455  0.00  0.00    +0.000 C 
ATOM      2  C   UNL     1      44.077   6.135  12.988  0.00  0.00    +0.000 C 
ATOM      3  C   UNL     1      45.946   6.521  11.347  0.00  0.00    +0.000 C 
ENDROOT
BRANCH   1   6
ATOM      4  C   UNL     1      48.371   6.520  14.773  0.00  0.00    +0.000 A 
ATOM      5  C   UNL     1      47.423   6.528  13.739  0.00  0.00    +0.000 A 
ATOM      6  C   UNL     1      46.450   5.515  13.604  0.00  0.00    +0.000 A 
ATOM      7  C   UNL     1      46.477   4.471  14.539  0.00  0.00    +0.000 A 
ATOM      8  C   UNL     1      47.407   4.458  15.578  0.00  0.00    +0.000 A 
ATOM      9  C   UNL     1      48.346   5.488  15.724  0.00  0.00    +0.000 A 
BRANCH   4  11
ATOM     10  C   UNL     1      50.082   7.828  13.742  0.00  0.00    +0.000 C 
ATOM     11  O   UNL     1      49.365   7.453  14.912  0.00  0.00    +0.000 OA
ENDBRANCH   4  11
BRANCH   9  12
ATOM     12  C   UNL     1      49.265   5.464  16.922  0.00  0.00    +0.000 C 
BRANCH  12  13
ATOM     13  N   UNL     1      49.914   4.157  17.052  0.00  0.00    +0.000 NA
ATOM     14  H   UNL     1      49.239   3.442  16.786  0.00  0.00    +0.000 HD
ATOM     15  H   UNL     1      50.133   3.994  18.031  0.00  0.00    +0.000 HD
ENDBRANCH  12  13
ENDBRANCH   9  12
ENDBRANCH   1   6
BRANCH   1  16
ATOM     16  C   UNL     1      45.162   4.183  11.831  0.00  0.00    +0.000 C 
BRANCH  16  17
ATOM     17  O   UNL     1      44.385   4.240  10.626  0.00  0.00    +0.000 OA
BRANCH  17  18
ATOM     18  C   UNL     1      45.067   3.662   9.571  0.00  0.00    +0.000 A 
ATOM     19  C   UNL     1      45.642   4.515   8.642  0.00  0.00    +0.000 A 
ATOM     20  C   UNL     1      46.339   3.954   7.567  0.00  0.00    +0.000 A 
ATOM     21  C   UNL     1      46.442   2.562   7.472  0.00  0.00    +0.000 A 
ATOM     22  C   UNL     1      45.819   1.793   8.438  0.00  0.00    +0.000 A 
ATOM     23  N   UNL     1      45.144   2.315   9.489  0.00  0.00    +0.000 NA
BRANCH  21  24
ATOM     24  C   UNL     1      47.138   1.855   6.380  0.00  0.00    +0.000 C 
ATOM     25  O   UNL     1      47.583   2.432   5.403  0.00  0.00    +0.000 OA
BRANCH  24  26
ATOM     26  O   UNL     1      47.202   0.517   6.538  0.00  0.00    +0.000 OA
ATOM     27  H   UNL     1      47.435   0.206   7.431  0.00  0.00    +0.000 HD
ENDBRANCH  24  26
ENDBRANCH  21  24
ENDBRANCH  17  18
ENDBRANCH  16  17
ENDBRANCH   1  16
TORSDOF 9
ENDMDL
MODEL 8
REMARK VINA RESULT:    -5.654      3.390      5.842
REMARK INTER + INTRA:          -9.614
REMARK INTER:                  -8.277
REMARK INTRA:                  -1.336
REMARK UNBOUND:                -1.315
REMARK  Name = 
REMARK  12 active torsions:
REMARK  status: ('A' for Active; 'I' for Inactive)
REMARK    1  A    between atoms: C_1  and  O_2
REMARK    2  A    between atoms: O_2  and  C_3
REMARK    3  A    between atoms: C_5  and  C_6
REMARK    4  A    between atoms: C_6  and  C_7
REMARK    5  A    between atoms: C_6  and  C_8
REMARK    6  A    between atoms: C_6  and  C_9
REMARK    7  A    between atoms: C_9  and  O_10
REMARK    8  A    between atoms: O_10  and  C_11
REMARK    9  A    between atoms: C_14  and  C_15
REMARK   10  A    between atoms: C_15  and  O_17
REMARK   11  A    between atoms: C_22  and  C_23
REMARK   12  A    between atoms: C_23  and  N_24
REMARK                            x       y       z     vdW  Elec       q    Type
REMARK                         _______ _______ _______ _____ _____    ______ ____
ROOT
ATOM      1  C   UNL     1      48.855   8.052  14.396  0.00  0.00    +0.000 C 
ATOM      2  C   UNL     1      48.286   9.305  15.102  0.00  0.00    +0.000 C 
ATOM      3  C   UNL     1      50.380   8.221  14.223  0.00  0.00    +0.000 C 
ENDROOT
BRANCH   1   6
ATOM      4  C   UNL     1      47.761   4.474  15.379  0.00  0.00    +0.000 A 
ATOM      5  C   UNL     1      48.024   5.643  14.650  0.00  0.00    +0.000 A 
ATOM      6  C   UNL     1      48.570   6.797  15.250  0.00  0.00    +0.000 A 
ATOM      7  C   UNL     1      48.824   6.743  16.628  0.00  0.00    +0.000 A 
ATOM      8  C   UNL     1      48.578   5.583  17.362  0.00  0.00    +0.000 A 
ATOM      9  C   UNL     1      48.069   4.431  16.748  0.00  0.00    +0.000 A 
BRANCH   4  11
ATOM     10  C   UNL     1      46.659   3.442  13.530  0.00  0.00    +0.000 C 
ATOM     11  O   UNL     1      47.184   3.350  14.849  0.00  0.00    +0.000 OA
ENDBRANCH   4  11
BRANCH   9  12
ATOM     12  C   UNL     1      47.912   3.180  17.577  0.00  0.00    +0.000 C 
BRANCH  12  13
ATOM     13  N   UNL     1      46.500   2.808  17.694  0.00  0.00    +0.000 NA
ATOM     14  H   UNL     1      46.028   3.087  16.834  0.00  0.00    +0.000 HD
ATOM     15  H   UNL     1      46.076   3.350  18.442  0.00  0.00    +0.000 HD
ENDBRANCH  12  13
ENDBRANCH   9  12
ENDBRANCH   1   6
BRANCH   1  16
ATOM     16  C   UNL     1      48.209   7.947  12.987  0.00  0.00    +0.000 C 
BRANCH  16  17
ATOM     17  O   UNL     1      46.819   8.305  12.977  0.00  0.00    +0.000 OA
BRANCH  17  18
ATOM     18  C   UNL     1      46.059   7.314  12.385  0.00  0.00    +0.000 A 
ATOM     19  C   UNL     1      46.540   6.759  11.210  0.00  0.00    +0.000 A 
ATOM     20  C   UNL     1      45.789   5.753  10.594  0.00  0.00    +0.000 A 
ATOM     21  C   UNL     1      44.592   5.336  11.184  0.00  0.00    +0.000 A 
ATOM     22  C   UNL     1      44.183   5.963  12.348  0.00  0.00    +0.000 A 
ATOM     23  N   UNL     1      44.897   6.934  12.963  0.00  0.00    +0.000 NA
BRANCH  21  24
ATOM     24  C   UNL     1      43.708   4.297  10.622  0.00  0.00    +0.000 C 
ATOM     25  O   UNL     1      42.831   3.758  11.275  0.00  0.00    +0.000 OA
BRANCH  24  26
ATOM     26  O   UNL     1      43.981   3.968   9.343  0.00  0.00    +0.000 OA
ATOM     27  H   UNL     1      44.916   4.037   9.078  0.00  0.00    +0.000 HD
ENDBRANCH  24  26
ENDBRANCH  21  24
ENDBRANCH  17  18
ENDBRANCH  16  17
ENDBRANCH   1  16
TORSDOF 9
ENDMDL
MODEL 9
REMARK VINA RESULT:    -5.544      3.298      6.246
REMARK INTER + INTRA:          -9.452
REMARK INTER:                  -8.497
REMARK INTRA:                  -0.955
REMARK UNBOUND:                -1.315
REMARK  Name = 
REMARK  12 active torsions:
REMARK  status: ('A' for Active; 'I' for Inactive)
REMARK    1  A    between atoms: C_1  and  O_2
REMARK    2  A    between atoms: O_2  and  C_3
REMARK    3  A    between atoms: C_5  and  C_6
REMARK    4  A    between atoms: C_6  and  C_7
REMARK    5  A    between atoms: C_6  and  C_8
REMARK    6  A    between atoms: C_6  and  C_9
REMARK    7  A    between atoms: C_9  and  O_10
REMARK    8  A    between atoms: O_10  and  C_11
REMARK    9  A    between atoms: C_14  and  C_15
REMARK   10  A    between atoms: C_15  and  O_17
REMARK   11  A    between atoms: C_22  and  C_23
REMARK   12  A    between atoms: C_23  and  N_24
REMARK                            x       y       z     vdW  Elec       q    Type
REMARK                         _______ _______ _______ _____ _____    ______ ____
ROOT
ATOM      1  C   UNL     1      49.176   7.400  15.113  0.00  0.00    +0.000 C 
ATOM      2  C   UNL     1      48.369   8.716  15.172  0.00  0.00    +0.000 C 
ATOM      3  C   UNL     1      50.644   7.724  14.760  0.00  0.00    +0.000 C 
ENDROOT
BRANCH   1   6
ATOM      4  C   UNL     1      49.873   4.850  17.938  0.00  0.00    +0.000 A 
ATOM      5  C   UNL     1      49.876   5.520  16.706  0.00  0.00    +0.000 A 
ATOM      6  C   UNL     1      49.123   6.693  16.486  0.00  0.00    +0.000 A 
ATOM      7  C   UNL     1      48.339   7.160  17.550  0.00  0.00    +0.000 A 
ATOM      8  C   UNL     1      48.336   6.510  18.784  0.00  0.00    +0.000 A 
ATOM      9  C   UNL     1      49.117   5.366  19.002  0.00  0.00    +0.000 A 
BRANCH   4  11
ATOM     10  C   UNL     1      50.212   2.554  17.381  0.00  0.00    +0.000 C 
ATOM     11  O   UNL     1      50.547   3.681  18.180  0.00  0.00    +0.000 OA
ENDBRANCH   4  11
BRANCH   9  12
ATOM     12  C   UNL     1      49.142   4.762  20.385  0.00  0.00    +0.000 C 
BRANCH  12  13
ATOM     13  N   UNL     1      48.340   3.537  20.431  0.00  0.00    +0.000 NA
ATOM     14  H   UNL     1      48.072   3.299  19.477  0.00  0.00    +0.000 HD
ATOM     15  H   UNL     1      47.476   3.726  20.933  0.00  0.00    +0.000 HD
ENDBRANCH  12  13
ENDBRANCH   9  12
ENDBRANCH   1   6
BRANCH   1  16
ATOM     16  C   UNL     1      48.585   6.510  13.985  0.00  0.00    +0.000 C 
BRANCH  16  17
ATOM     17  O   UNL     1      47.626   5.557  14.466  0.00  0.00    +0.000 OA
BRANCH  17  18
ATOM     18  C   UNL     1      46.737   5.204  13.467  0.00  0.00    +0.000 A 
ATOM     19  C   UNL     1      46.571   6.095  12.419  0.00  0.00    +0.000 A 
ATOM     20  C   UNL     1      45.678   5.759  11.396  0.00  0.00    +0.000 A 
ATOM     21  C   UNL     1      44.997   4.540  11.459  0.00  0.00    +0.000 A 
ATOM     22  C   UNL     1      45.213   3.724  12.554  0.00  0.00    +0.000 A 
ATOM     23  N   UNL     1      46.076   4.028  13.552  0.00  0.00    +0.000 NA
BRANCH  21  24
ATOM     24  C   UNL     1      44.022   4.083  10.449  0.00  0.00    +0.000 C 
ATOM     25  O   UNL     1      43.867   2.906  10.174  0.00  0.00    +0.000 OA
BRANCH  24  26
ATOM     26  O   UNL     1      43.352   5.078   9.834  0.00  0.00    +0.000 OA
ATOM     27  H   UNL     1      42.813   4.815   9.066  0.00  0.00    +0.000 HD
ENDBRANCH  24  26
ENDBRANCH  21  24
ENDBRANCH  17  18
ENDBRANCH  16  17
ENDBRANCH   1  16
TORSDOF 9
ENDMDL
