MODEL 1
REMARK VINA RESULT:    -8.332      0.000      0.000
REMARK INTER + INTRA:         -11.510
REMARK INTER:                 -10.767
REMARK INTRA:                  -0.743
REMARK UNBOUND:                -0.743
REMARK  Name = 
REMARK  6 active torsions:
REMARK  status: ('A' for Active; 'I' for Inactive)
REMARK    1  A    between atoms: C_1  and  C_2
REMARK    2  A    between atoms: C_2  and  N_3
REMARK    3  A    between atoms: C_2  and  C_16
REMARK    4  A    between atoms: C_4  and  C_6
REMARK    5  A    between atoms: C_19  and  O_20
REMARK    6  A    between atoms: O_20  and  C_21
REMARK                            x       y       z     vdW  Elec       q    Type
REMARK                         _______ _______ _______ _____ _____    ______ ____
ROOT
ATOM      1  C   UNL     1      45.530   8.796  12.840  0.00  0.00    +0.000 C 
ATOM      2  C   UNL     1      46.573   7.687  12.688  0.00  0.00    +0.000 C 
ENDROOT
BRANCH   2   3
ATOM      3  C   UNL     1      46.068   6.558  11.806  0.00  0.00    +0.000 A 
ATOM      4  C   UNL     1      45.247   5.569  12.365  0.00  0.00    +0.000 A 
ATOM      5  C   UNL     1      44.737   4.537  11.578  0.00  0.00    +0.000 A 
ATOM      6  C   UNL     1      44.979   4.514  10.202  0.00  0.00    +0.000 A 
ATOM      7  C   UNL     1      45.829   5.468   9.641  0.00  0.00    +0.000 A 
ATOM      8  C   UNL     1      46.375   6.480  10.439  0.00  0.00    +0.000 A 
BRANCH   6   9
ATOM      9  O   UNL     1      44.467   3.570   9.341  0.00  0.00    +0.000 OA
BRANCH   9  10
ATOM     10  C   UNL     1      45.306   2.922   8.468  0.00  0.00    +0.000 A 
ATOM     11  C   UNL     1      45.836   3.485   7.307  0.00  0.00    +0.000 A 
ATOM     12  C   UNL     1      46.642   2.711   6.476  0.00  0.00    +0.000 A 
ATOM     13  C   UNL     1      46.939   1.415   6.868  0.00  0.00    +0.000 A 
ATOM     14  N   UNL     1      46.497   0.860   8.016  0.00  0.00    +0.000 NA
ATOM     15  C   UNL     1      45.693   1.629   8.791  0.00  0.00    +0.000 A 
ENDBRANCH   9  10
ENDBRANCH   6   9
ENDBRANCH   2   3
BRANCH   2  16
ATOM     16  N   UNL     1      46.981   7.167  13.977  0.00  0.00    +0.000 N 
ATOM     17  C   UNL     1      48.230   6.655  14.212  0.00  0.00    +0.000 C 
ATOM     18  O   UNL     1      49.092   6.605  13.340  0.00  0.00    +0.000 OA
ATOM     19  H   UNL     1      46.263   7.077  14.687  0.00  0.00    +0.000 HD
BRANCH  17  20
ATOM     20  C   UNL     1      48.505   6.218  15.588  0.00  0.00    +0.000 A 
ATOM     21  C   UNL     1      49.202   7.058  16.446  0.00  0.00    +0.000 A 
ATOM     22  S   UNL     1      49.389   6.425  18.020  0.00  0.00    +0.000 S 
ATOM     23  C   UNL     1      48.586   4.986  17.594  0.00  0.00    +0.000 A 
ATOM     24  N   UNL     1      48.412   3.990  18.503  0.00  0.00    +0.000 NA
ATOM     25  C   UNL     1      47.820   2.940  18.039  0.00  0.00    +0.000 A 
ATOM     26  N   UNL     1      47.382   2.800  16.748  0.00  0.00    +0.000 N 
ATOM     27  C   UNL     1      47.489   3.798  15.809  0.00  0.00    +0.000 A 
ATOM     28  O   UNL     1      47.006   3.669  14.692  0.00  0.00    +0.000 OA
ATOM     29  C   UNL     1      48.168   4.992  16.275  0.00  0.00    +0.000 A 
ATOM     30  H   UNL     1      46.911   1.957  16.451  0.00  0.00    +0.000 HD
ENDBRANCH  17  20
ENDBRANCH   2  16
TORSDOF 5
ENDMDL
MODEL 2
REMARK VINA RESULT:    -7.700      2.819      4.254
REMARK INTER + INTRA:         -10.694
REMARK INTER:                  -9.734
REMARK INTRA:                  -0.960
REMARK UNBOUND:                -0.743
REMARK  Name = 
REMARK  6 active torsions:
REMARK  status: ('A' for Active; 'I' for Inactive)
REMARK    1  A    between atoms: C_1  and  C_2
REMARK    2  A    between atoms: C_2  and  N_3
REMARK    3  A    between atoms: C_2  and  C_16
REMARK    4  A    between atoms: C_4  and  C_6
REMARK    5  A    between atoms: C_19  and  O_20
REMARK    6  A    between atoms: O_20  and  C_21
REMARK                            x       y       z     vdW  Elec       q    Type
REMARK                         _______ _______ _______ _____ _____    ______ ____
ROOT
ATOM      1  C   UNL     1      46.585   4.774  14.428  0.00  0.00    +0.000 C 
ATOM      2  C   UNL     1      46.134   5.769  13.357  0.00  0.00    +0.000 C 
ENDROOT
BRANCH   2   3
ATOM      3  C   UNL     1      45.696   5.066  12.085  0.00  0.00    +0.000 A 
ATOM      4  C   UNL     1      45.813   5.734  10.858  0.00  0.00    +0.000 A 
ATOM      5  C   UNL     1      45.452   5.106   9.666  0.00  0.00    +0.000 A 
ATOM      6  C   UNL     1      45.036   3.772   9.670  0.00  0.00    +0.000 A 
ATOM      7  C   UNL     1      44.875   3.109  10.888  0.00  0.00    +0.000 A 
ATOM      8  C   UNL     1      45.197   3.754  12.088  0.00  0.00    +0.000 A 
BRANCH   6   9
ATOM      9  O   UNL     1      44.720   3.056   8.538  0.00  0.00    +0.000 OA
BRANCH   9  10
ATOM     10  C   UNL     1      45.721   2.659   7.685  0.00  0.00    +0.000 A 
ATOM     11  C   UNL     1      46.152   3.381   6.573  0.00  0.00    +0.000 A 
ATOM     12  C   UNL     1      47.149   2.851   5.756  0.00  0.00    +0.000 A 
ATOM     13  C   UNL     1      47.723   1.643   6.118  0.00  0.00    +0.000 A 
ATOM     14  N   UNL     1      47.376   0.949   7.223  0.00  0.00    +0.000 NA
ATOM     15  C   UNL     1      46.384   1.476   7.983  0.00  0.00    +0.000 A 
ENDBRANCH   9  10
ENDBRANCH   6   9
ENDBRANCH   2   3
BRANCH   2  16
ATOM     16  N   UNL     1      47.177   6.731  13.059  0.00  0.00    +0.000 N 
ATOM     17  C   UNL     1      46.963   8.084  13.055  0.00  0.00    +0.000 C 
ATOM     18  O   UNL     1      45.867   8.575  13.308  0.00  0.00    +0.000 OA
ATOM     19  H   UNL     1      48.062   6.365  12.725  0.00  0.00    +0.000 HD
BRANCH  17  20
ATOM     20  C   UNL     1      48.137   8.927  12.786  0.00  0.00    +0.000 A 
ATOM     21  C   UNL     1      47.995  10.070  12.012  0.00  0.00    +0.000 A 
ATOM     22  S   UNL     1      49.439  10.964  11.842  0.00  0.00    +0.000 S 
ATOM     23  C   UNL     1      50.313   9.827  12.758  0.00  0.00    +0.000 A 
ATOM     24  N   UNL     1      51.643   9.991  12.987  0.00  0.00    +0.000 NA
ATOM     25  C   UNL     1      52.192   9.036  13.663  0.00  0.00    +0.000 A 
ATOM     26  N   UNL     1      51.526   7.936  14.136  0.00  0.00    +0.000 N 
ATOM     27  C   UNL     1      50.173   7.752  13.973  0.00  0.00    +0.000 A 
ATOM     28  O   UNL     1      49.599   6.801  14.486  0.00  0.00    +0.000 OA
ATOM     29  C   UNL     1      49.514   8.787  13.199  0.00  0.00    +0.000 A 
ATOM     30  H   UNL     1      52.010   7.231  14.673  0.00  0.00    +0.000 HD
ENDBRANCH  17  20
ENDBRANCH   2  16
TORSDOF 5
ENDMDL
MODEL 3
REMARK VINA RESULT:    -7.499      4.066      9.458
REMARK INTER + INTRA:         -10.434
REMARK INTER:                  -9.236
REMARK INTRA:                  -1.198
REMARK UNBOUND:                -0.743
REMARK  Name = 
REMARK  6 active torsions:
REMARK  status: ('A' for Active; 'I' for Inactive)
REMARK    1  A    between atoms: C_1  and  C_2
REMARK    2  A    between atoms: C_2  and  N_3
REMARK    3  A    between atoms: C_2  and  C_16
REMARK    4  A    between atoms: C_4  and  C_6
REMARK    5  A    between atoms: C_19  and  O_20
REMARK    6  A    between atoms: O_20  and  C_21
REMARK                            x       y       z     vdW  Elec       q    Type
REMARK                         _______ _______ _______ _____ _____    ______ ____
ROOT
ATOM      1  C   UNL     1      47.771   3.091  16.830  0.00  0.00    +0.000 C 
ATOM      2  C   UNL     1      48.053   4.491  16.282  0.00  0.00    +0.000 C 
ENDROOT
BRANCH   2   3
ATOM      3  C   UNL     1      48.070   5.534  17.386  0.00  0.00    +0.000 A 
ATOM      4  C   UNL     1      47.224   5.374  18.491  0.00  0.00    +0.000 A 
ATOM      5  C   UNL     1      47.237   6.294  19.539  0.00  0.00    +0.000 A 
ATOM      6  C   UNL     1      48.150   7.352  19.537  0.00  0.00    +0.000 A 
ATOM      7  C   UNL     1      48.969   7.546  18.423  0.00  0.00    +0.000 A 
ATOM      8  C   UNL     1      48.925   6.647  17.352  0.00  0.00    +0.000 A 
BRANCH   6   9
ATOM      9  O   UNL     1      48.275   8.269  20.555  0.00  0.00    +0.000 OA
BRANCH   9  10
ATOM     10  C   UNL     1      47.304   9.224  20.732  0.00  0.00    +0.000 A 
ATOM     11  C   UNL     1      46.887  10.127  19.754  0.00  0.00    +0.000 A 
ATOM     12  C   UNL     1      45.922  11.081  20.067  0.00  0.00    +0.000 A 
ATOM     13  C   UNL     1      45.362  11.058  21.334  0.00  0.00    +0.000 A 
ATOM     14  N   UNL     1      45.694  10.158  22.284  0.00  0.00    +0.000 NA
ATOM     15  C   UNL     1      46.656   9.260  21.959  0.00  0.00    +0.000 A 
ENDBRANCH   9  10
ENDBRANCH   6   9
ENDBRANCH   2   3
BRANCH   2  16
ATOM     16  N   UNL     1      47.091   4.861  15.263  0.00  0.00    +0.000 N 
ATOM     17  C   UNL     1      47.429   5.579  14.146  0.00  0.00    +0.000 C 
ATOM     18  O   UNL     1      48.577   5.956  13.932  0.00  0.00    +0.000 OA
ATOM     19  H   UNL     1      46.114   4.677  15.461  0.00  0.00    +0.000 HD
BRANCH  17  20
ATOM     20  C   UNL     1      46.348   5.826  13.181  0.00  0.00    +0.000 A 
ATOM     21  C   UNL     1      46.020   7.132  12.841  0.00  0.00    +0.000 A 
ATOM     22  S   UNL     1      44.784   7.243  11.670  0.00  0.00    +0.000 S 
ATOM     23  C   UNL     1      44.612   5.550  11.614  0.00  0.00    +0.000 A 
ATOM     24  N   UNL     1      43.691   4.971  10.799  0.00  0.00    +0.000 NA
ATOM     25  C   UNL     1      43.639   3.682  10.882  0.00  0.00    +0.000 A 
ATOM     26  N   UNL     1      44.430   2.923  11.703  0.00  0.00    +0.000 N 
ATOM     27  C   UNL     1      45.410   3.460  12.505  0.00  0.00    +0.000 A 
ATOM     28  O   UNL     1      46.156   2.742  13.157  0.00  0.00    +0.000 OA
ATOM     29  C   UNL     1      45.493   4.908  12.465  0.00  0.00    +0.000 A 
ATOM     30  H   UNL     1      44.352   1.916  11.710  0.00  0.00    +0.000 HD
ENDBRANCH  17  20
ENDBRANCH   2  16
TORSDOF 5
ENDMDL
MODEL 4
REMARK VINA RESULT:    -7.362      2.396      3.295
REMARK INTER + INTRA:         -10.257
REMARK INTER:                  -9.087
REMARK INTRA:                  -1.170
REMARK UNBOUND:                -0.743
REMARK  Name = 
REMARK  6 active torsions:
REMARK  status: ('A' for Active; 'I' for Inactive)
REMARK    1  A    between atoms: C_1  and  C_2
REMARK    2  A    between atoms: C_2  and  N_3
REMARK    3  A    between atoms: C_2  and  C_16
REMARK    4  A    between atoms: C_4  and  C_6
REMARK    5  A    between atoms: C_19  and  O_20
REMARK    6  A    between atoms: O_20  and  C_21
REMARK                            x       y       z     vdW  Elec       q    Type
REMARK                         _______ _______ _______ _____ _____    ______ ____
ROOT
ATOM      1  C   UNL     1      48.084   9.032  14.041  0.00  0.00    +0.000 C 
ATOM      2  C   UNL     1      48.200   7.509  14.125  0.00  0.00    +0.000 C 
ENDROOT
BRANCH   2   3
ATOM      3  C   UNL     1      47.156   6.818  13.266  0.00  0.00    +0.000 A 
ATOM      4  C   UNL     1      46.526   7.539  12.243  0.00  0.00    +0.000 A 
ATOM      5  C   UNL     1      45.587   6.927  11.413  0.00  0.00    +0.000 A 
ATOM      6  C   UNL     1      45.315   5.563  11.542  0.00  0.00    +0.000 A 
ATOM      7  C   UNL     1      45.904   4.843  12.583  0.00  0.00    +0.000 A 
ATOM      8  C   UNL     1      46.814   5.468  13.443  0.00  0.00    +0.000 A 
BRANCH   6   9
ATOM      9  O   UNL     1      44.451   4.865  10.729  0.00  0.00    +0.000 OA
BRANCH   9  10
ATOM     10  C   UNL     1      44.956   4.031   9.761  0.00  0.00    +0.000 A 
ATOM     11  C   UNL     1      44.849   2.641   9.772  0.00  0.00    +0.000 A 
ATOM     12  C   UNL     1      45.443   1.899   8.754  0.00  0.00    +0.000 A 
ATOM     13  C   UNL     1      46.073   2.580   7.725  0.00  0.00    +0.000 A 
ATOM     14  N   UNL     1      46.140   3.926   7.648  0.00  0.00    +0.000 NA
ATOM     15  C   UNL     1      45.576   4.620   8.668  0.00  0.00    +0.000 A 
ENDBRANCH   9  10
ENDBRANCH   6   9
ENDBRANCH   2   3
BRANCH   2  16
ATOM     16  N   UNL     1      48.101   7.048  15.496  0.00  0.00    +0.000 N 
ATOM     17  C   UNL     1      49.172   6.558  16.196  0.00  0.00    +0.000 C 
ATOM     18  O   UNL     1      50.294   6.480  15.706  0.00  0.00    +0.000 OA
ATOM     19  H   UNL     1      47.171   6.981  15.895  0.00  0.00    +0.000 HD
BRANCH  17  20
ATOM     20  C   UNL     1      48.917   6.183  17.594  0.00  0.00    +0.000 A 
ATOM     21  C   UNL     1      49.235   4.903  18.027  0.00  0.00    +0.000 A 
ATOM     22  S   UNL     1      48.929   4.647  19.686  0.00  0.00    +0.000 S 
ATOM     23  C   UNL     1      48.316   6.224  19.871  0.00  0.00    +0.000 A 
ATOM     24  N   UNL     1      47.858   6.657  21.076  0.00  0.00    +0.000 NA
ATOM     25  C   UNL     1      47.385   7.859  21.068  0.00  0.00    +0.000 A 
ATOM     26  N   UNL     1      47.337   8.669  19.963  0.00  0.00    +0.000 N 
ATOM     27  C   UNL     1      47.835   8.294  18.738  0.00  0.00    +0.000 A 
ATOM     28  O   UNL     1      47.855   9.077  17.798  0.00  0.00    +0.000 OA
ATOM     29  C   UNL     1      48.356   6.941  18.688  0.00  0.00    +0.000 A 
ATOM     30  H   UNL     1      46.969   9.608  20.027  0.00  0.00    +0.000 HD
ENDBRANCH  17  20
ENDBRANCH   2  16
TORSDOF 5
ENDMDL
MODEL 5
REMARK VINA RESULT:    -7.358      2.635      4.783
REMARK INTER + INTRA:         -10.252
REMARK INTER:                 -10.399
REMARK INTRA:                   0.146
REMARK UNBOUND:                -0.743
REMARK  Name = 
REMARK  6 active torsions:
REMARK  status: ('A' for Active; 'I' for Inactive)
REMARK    1  A    between atoms: C_1  and  C_2
REMARK    2  A    between atoms: C_2  and  N_3
REMARK    3  A    between atoms: C_2  and  C_16
REMARK    4  A    between atoms: C_4  and  C_6
REMARK    5  A    between atoms: C_19  and  O_20
REMARK    6  A    between atoms: O_20  and  C_21
REMARK                            x       y       z     vdW  Elec       q    Type
REMARK                         _______ _______ _______ _____ _____    ______ ____
ROOT
ATOM      1  C   UNL     1      46.914   4.494  14.408  0.00  0.00    +0.000 C 
ATOM      2  C   UNL     1      45.887   5.366  13.683  0.00  0.00    +0.000 C 
ENDROOT
BRANCH   2   3
ATOM      3  C   UNL     1      45.502   4.780  12.336  0.00  0.00    +0.000 A 
ATOM      4  C   UNL     1      45.692   5.546  11.178  0.00  0.00    +0.000 A 
ATOM      5  C   UNL     1      45.382   5.027   9.921  0.00  0.00    +0.000 A 
ATOM      6  C   UNL     1      44.946   3.706   9.791  0.00  0.00    +0.000 A 
ATOM      7  C   UNL     1      44.715   2.946  10.939  0.00  0.00    +0.000 A 
ATOM      8  C   UNL     1      44.985   3.482  12.204  0.00  0.00    +0.000 A 
BRANCH   6   9
ATOM      9  O   UNL     1      44.677   3.094   8.588  0.00  0.00    +0.000 OA
BRANCH   9  10
ATOM     10  C   UNL     1      45.715   2.727   7.767  0.00  0.00    +0.000 A 
ATOM     11  C   UNL     1      46.210   3.498   6.716  0.00  0.00    +0.000 A 
ATOM     12  C   UNL     1      47.240   2.997   5.923  0.00  0.00    +0.000 A 
ATOM     13  C   UNL     1      47.782   1.764   6.250  0.00  0.00    +0.000 A 
ATOM     14  N   UNL     1      47.372   1.020   7.300  0.00  0.00    +0.000 NA
ATOM     15  C   UNL     1      46.349   1.522   8.036  0.00  0.00    +0.000 A 
ENDBRANCH   9  10
ENDBRANCH   6   9
ENDBRANCH   2   3
BRANCH   2  16
ATOM     16  N   UNL     1      46.372   6.721  13.516  0.00  0.00    +0.000 N 
ATOM     17  C   UNL     1      47.660   7.011  13.150  0.00  0.00    +0.000 C 
ATOM     18  O   UNL     1      48.493   6.136  12.935  0.00  0.00    +0.000 OA
ATOM     19  H   UNL     1      45.754   7.472  13.802  0.00  0.00    +0.000 HD
BRANCH  17  20
ATOM     20  C   UNL     1      47.979   8.434  12.969  0.00  0.00    +0.000 A 
ATOM     21  C   UNL     1      49.274   8.879  13.197  0.00  0.00    +0.000 A 
ATOM     22  S   UNL     1      49.490  10.543  12.890  0.00  0.00    +0.000 S 
ATOM     23  C   UNL     1      47.846  10.737  12.490  0.00  0.00    +0.000 A 
ATOM     24  N   UNL     1      47.354  11.954  12.136  0.00  0.00    +0.000 NA
ATOM     25  C   UNL     1      46.085  11.967  11.895  0.00  0.00    +0.000 A 
ATOM     26  N   UNL     1      45.266  10.871  11.970  0.00  0.00    +0.000 N 
ATOM     27  C   UNL     1      45.728   9.611  12.272  0.00  0.00    +0.000 A 
ATOM     28  O   UNL     1      44.983   8.641  12.242  0.00  0.00    +0.000 OA
ATOM     29  C   UNL     1      47.146   9.547  12.575  0.00  0.00    +0.000 A 
ATOM     30  H   UNL     1      44.283  10.944  11.753  0.00  0.00    +0.000 HD
ENDBRANCH  17  20
ENDBRANCH   2  16
TORSDOF 5
ENDMDL
MODEL 6
REMARK VINA RESULT:    -7.349      3.363      7.913
REMARK INTER + INTRA:         -10.240
REMARK INTER:                  -9.028
REMARK INTRA:                  -1.212
REMARK UNBOUND:                -0.743
REMARK  Name = 
REMARK  6 active torsions:
REMARK  status: ('A' for Active; 'I' for Inactive)
REMARK    1  A    between atoms: C_1  and  C_2
REMARK    2  A    between atoms: C_2  and  N_3
REMARK    3  A    between atoms: C_2  and  C_16
REMARK    4  A    between atoms: C_4  and  C_6
REMARK    5  A    between atoms: C_19  and  O_20
REMARK    6  A    between atoms: O_20  and  C_21
REMARK                            x       y       z     vdW  Elec       q    Type
REMARK                         _______ _______ _______ _____ _____    ______ ____
ROOT
ATOM      1  C   UNL     1      49.438   7.717  12.645  0.00  0.00    +0.000 C 
ATOM      2  C   UNL     1      48.228   7.223  13.440  0.00  0.00    +0.000 C 
ENDROOT
BRANCH   2   3
ATOM      3  C   UNL     1      48.643   6.575  14.750  0.00  0.00    +0.000 A 
ATOM      4  C   UNL     1      47.847   5.558  15.292  0.00  0.00    +0.000 A 
ATOM      5  C   UNL     1      48.215   4.917  16.475  0.00  0.00    +0.000 A 
ATOM      6  C   UNL     1      49.426   5.231  17.099  0.00  0.00    +0.000 A 
ATOM      7  C   UNL     1      50.208   6.270  16.592  0.00  0.00    +0.000 A 
ATOM      8  C   UNL     1      49.816   6.942  15.428  0.00  0.00    +0.000 A 
BRANCH   6   9
ATOM      9  O   UNL     1      49.897   4.607  18.232  0.00  0.00    +0.000 OA
BRANCH   9  10
ATOM     10  C   UNL     1      50.846   3.621  18.118  0.00  0.00    +0.000 A 
ATOM     11  C   UNL     1      50.675   2.428  17.416  0.00  0.00    +0.000 A 
ATOM     12  C   UNL     1      51.698   1.483  17.411  0.00  0.00    +0.000 A 
ATOM     13  C   UNL     1      52.883   1.792  18.060  0.00  0.00    +0.000 A 
ATOM     14  N   UNL     1      53.107   2.963  18.693  0.00  0.00    +0.000 NA
ATOM     15  C   UNL     1      52.083   3.851  18.705  0.00  0.00    +0.000 A 
ENDBRANCH   9  10
ENDBRANCH   6   9
ENDBRANCH   2   3
BRANCH   2  16
ATOM     16  N   UNL     1      47.427   6.300  12.661  0.00  0.00    +0.000 N 
ATOM     17  C   UNL     1      46.392   6.706  11.860  0.00  0.00    +0.000 C 
ATOM     18  O   UNL     1      46.075   7.886  11.746  0.00  0.00    +0.000 OA
ATOM     19  H   UNL     1      47.575   5.310  12.821  0.00  0.00    +0.000 HD
BRANCH  17  20
ATOM     20  C   UNL     1      45.713   5.652  11.093  0.00  0.00    +0.000 A 
ATOM     21  C   UNL     1      45.797   5.653   9.707  0.00  0.00    +0.000 A 
ATOM     22  S   UNL     1      45.001   4.334   8.973  0.00  0.00    +0.000 S 
ATOM     23  C   UNL     1      44.476   3.744  10.480  0.00  0.00    +0.000 A 
ATOM     24  N   UNL     1      43.718   2.618  10.562  0.00  0.00    +0.000 NA
ATOM     25  C   UNL     1      43.356   2.302  11.761  0.00  0.00    +0.000 A 
ATOM     26  N   UNL     1      43.692   3.008  12.887  0.00  0.00    +0.000 N 
ATOM     27  C   UNL     1      44.498   4.122  12.859  0.00  0.00    +0.000 A 
ATOM     28  O   UNL     1      44.849   4.673  13.893  0.00  0.00    +0.000 OA
ATOM     29  C   UNL     1      44.912   4.532  11.530  0.00  0.00    +0.000 A 
ATOM     30  H   UNL     1      43.390   2.699  13.800  0.00  0.00    +0.000 HD
ENDBRANCH  17  20
ENDBRANCH   2  16
TORSDOF 5
ENDMDL
MODEL 7
REMARK VINA RESULT:    -7.292      2.127      2.944
REMARK INTER + INTRA:         -10.167
REMARK INTER:                  -9.481
REMARK INTRA:                  -0.686
REMARK UNBOUND:                -0.743
REMARK  Name = 
REMARK  6 active torsions:
REMARK  status: ('A' for Active; 'I' for Inactive)
REMARK    1  A    between atoms: C_1  and  C_2
REMARK    2  A    between atoms: C_2  and  N_3
REMARK    3  A    between atoms: C_2  and  C_16
REMARK    4  A    between atoms: C_4  and  C_6
REMARK    5  A    between atoms: C_19  and  O_20
REMARK    6  A    between atoms: O_20  and  C_21
REMARK                            x       y       z     vdW  Elec       q    Type
REMARK                         _______ _______ _______ _____ _____    ______ ____
ROOT
ATOM      1  C   UNL     1      49.118   8.568  13.580  0.00  0.00    +0.000 C 
ATOM      2  C   UNL     1      48.738   7.188  14.121  0.00  0.00    +0.000 C 
ENDROOT
BRANCH   2   3
ATOM      3  C   UNL     1      47.604   6.566  13.326  0.00  0.00    +0.000 A 
ATOM      4  C   UNL     1      47.138   7.216  12.175  0.00  0.00    +0.000 A 
ATOM      5  C   UNL     1      46.121   6.657  11.402  0.00  0.00    +0.000 A 
ATOM      6  C   UNL     1      45.601   5.400  11.723  0.00  0.00    +0.000 A 
ATOM      7  C   UNL     1      46.027   4.762  12.889  0.00  0.00    +0.000 A 
ATOM      8  C   UNL     1      47.017   5.344  13.688  0.00  0.00    +0.000 A 
BRANCH   6   9
ATOM      9  O   UNL     1      44.642   4.747  10.983  0.00  0.00    +0.000 OA
BRANCH   9  10
ATOM     10  C   UNL     1      45.021   3.973   9.913  0.00  0.00    +0.000 A 
ATOM     11  C   UNL     1      44.936   2.583   9.866  0.00  0.00    +0.000 A 
ATOM     12  C   UNL     1      45.395   1.905   8.738  0.00  0.00    +0.000 A 
ATOM     13  C   UNL     1      45.869   2.650   7.671  0.00  0.00    +0.000 A 
ATOM     14  N   UNL     1      45.906   4.000   7.656  0.00  0.00    +0.000 NA
ATOM     15  C   UNL     1      45.478   4.630   8.779  0.00  0.00    +0.000 A 
ENDBRANCH   9  10
ENDBRANCH   6   9
ENDBRANCH   2   3
BRANCH   2  16
ATOM     16  N   UNL     1      48.385   7.251  15.525  0.00  0.00    +0.000 N 
ATOM     17  C   UNL     1      49.159   6.701  16.512  0.00  0.00    +0.000 C 
ATOM     18  O   UNL     1      50.210   6.116  16.272  0.00  0.00    +0.000 OA
ATOM     19  H   UNL     1      47.468   7.615  15.755  0.00  0.00    +0.000 HD
BRANCH  17  20
ATOM     20  C   UNL     1      48.690   6.898  17.891  0.00  0.00    +0.000 A 
ATOM     21  C   UNL     1      48.271   8.158  18.297  0.00  0.00    +0.000 A 
ATOM     22  S   UNL     1      47.706   8.206  19.906  0.00  0.00    +0.000 S 
ATOM     23  C   UNL     1      48.048   6.553  20.131  0.00  0.00    +0.000 A 
ATOM     24  N   UNL     1      47.805   5.947  21.324  0.00  0.00    +0.000 NA
ATOM     25  C   UNL     1      48.145   4.702  21.370  0.00  0.00    +0.000 A 
ATOM     26  N   UNL     1      48.700   4.007  20.327  0.00  0.00    +0.000 N 
ATOM     27  C   UNL     1      48.916   4.564  19.088  0.00  0.00    +0.000 A 
ATOM     28  O   UNL     1      49.331   3.888  18.156  0.00  0.00    +0.000 OA
ATOM     29  C   UNL     1      48.572   5.970  18.991  0.00  0.00    +0.000 A 
ATOM     30  H   UNL     1      48.930   3.028  20.422  0.00  0.00    +0.000 HD
ENDBRANCH  17  20
ENDBRANCH   2  16
TORSDOF 5
ENDMDL
MODEL 8
REMARK VINA RESULT:    -7.138      3.265      8.497
REMARK INTER + INTRA:          -9.967
REMARK INTER:                  -8.865
REMARK INTRA:                  -1.102
REMARK UNBOUND:                -0.743
REMARK  Name = 
REMARK  6 active torsions:
REMARK  status: ('A' for Active; 'I' for Inactive)
REMARK    1  A    between atoms: C_1  and  C_2
REMARK    2  A    between atoms: C_2  and  N_3
REMARK    3  A    between atoms: C_2  and  C_16
REMARK    4  A    between atoms: C_4  and  C_6
REMARK    5  A    between atoms: C_19  and  O_20
REMARK    6  A    between atoms: O_20  and  C_21
REMARK                            x       y       z     vdW  Elec       q    Type
REMARK                         _______ _______ _______ _____ _____    ______ ____
ROOT
ATOM      1  C   UNL     1      49.643   7.582  12.466  0.00  0.00    +0.000 C 
ATOM      2  C   UNL     1      48.359   7.232  13.221  0.00  0.00    +0.000 C 
ENDROOT
BRANCH   2   3
ATOM      3  C   UNL     1      48.654   6.677  14.604  0.00  0.00    +0.000 A 
ATOM      4  C   UNL     1      47.858   5.640  15.108  0.00  0.00    +0.000 A 
ATOM      5  C   UNL     1      48.121   5.082  16.359  0.00  0.00    +0.000 A 
ATOM      6  C   UNL     1      49.230   5.502  17.099  0.00  0.00    +0.000 A 
ATOM      7  C   UNL     1      50.005   6.562  16.627  0.00  0.00    +0.000 A 
ATOM      8  C   UNL     1      49.715   7.150  15.390  0.00  0.00    +0.000 A 
BRANCH   6   9
ATOM      9  O   UNL     1      49.600   4.966  18.311  0.00  0.00    +0.000 OA
BRANCH   9  10
ATOM     10  C   UNL     1      48.913   5.321  19.447  0.00  0.00    +0.000 A 
ATOM     11  C   UNL     1      48.221   6.519  19.618  0.00  0.00    +0.000 A 
ATOM     12  C   UNL     1      47.599   6.784  20.836  0.00  0.00    +0.000 A 
ATOM     13  C   UNL     1      47.640   5.811  21.821  0.00  0.00    +0.000 A 
ATOM     14  N   UNL     1      48.245   4.614  21.667  0.00  0.00    +0.000 NA
ATOM     15  C   UNL     1      48.865   4.396  20.481  0.00  0.00    +0.000 A 
ENDBRANCH   9  10
ENDBRANCH   6   9
ENDBRANCH   2   3
BRANCH   2  16
ATOM     16  N   UNL     1      47.546   6.295  12.472  0.00  0.00    +0.000 N 
ATOM     17  C   UNL     1      46.449   6.677  11.745  0.00  0.00    +0.000 C 
ATOM     18  O   UNL     1      46.082   7.846  11.677  0.00  0.00    +0.000 OA
ATOM     19  H   UNL     1      47.740   5.309  12.601  0.00  0.00    +0.000 HD
BRANCH  17  20
ATOM     20  C   UNL     1      45.763   5.613  10.998  0.00  0.00    +0.000 A 
ATOM     21  C   UNL     1      45.854   5.584   9.612  0.00  0.00    +0.000 A 
ATOM     22  S   UNL     1      45.049   4.257   8.903  0.00  0.00    +0.000 S 
ATOM     23  C   UNL     1      44.510   3.704  10.420  0.00  0.00    +0.000 A 
ATOM     24  N   UNL     1      43.741   2.588  10.522  0.00  0.00    +0.000 NA
ATOM     25  C   UNL     1      43.370   2.302  11.727  0.00  0.00    +0.000 A 
ATOM     26  N   UNL     1      43.707   3.030  12.838  0.00  0.00    +0.000 N 
ATOM     27  C   UNL     1      44.525   4.134  12.790  0.00  0.00    +0.000 A 
ATOM     28  O   UNL     1      44.876   4.705  13.814  0.00  0.00    +0.000 OA
ATOM     29  C   UNL     1      44.949   4.511  11.455  0.00  0.00    +0.000 A 
ATOM     30  H   UNL     1      43.398   2.743  13.756  0.00  0.00    +0.000 HD
ENDBRANCH  17  20
ENDBRANCH   2  16
TORSDOF 5
ENDMDL
MODEL 9
REMARK VINA RESULT:    -6.793      2.982      8.454
REMARK INTER + INTRA:          -9.521
REMARK INTER:                  -8.348
REMARK INTRA:                  -1.173
REMARK UNBOUND:                -0.743
REMARK  Name = 
REMARK  6 active torsions:
REMARK  status: ('A' for Active; 'I' for Inactive)
REMARK    1  A    between atoms: C_1  and  C_2
REMARK    2  A    between atoms: C_2  and  N_3
REMARK    3  A    between atoms: C_2  and  C_16
REMARK    4  A    between atoms: C_4  and  C_6
REMARK    5  A    between atoms: C_19  and  O_20
REMARK    6  A    between atoms: O_20  and  C_21
REMARK                            x       y       z     vdW  Elec       q    Type
REMARK                         _______ _______ _______ _____ _____    ______ ____
ROOT
ATOM      1  C   UNL     1      48.891   8.034  11.393  0.00  0.00    +0.000 C 
ATOM      2  C   UNL     1      47.786   7.895  12.442  0.00  0.00    +0.000 C 
ENDROOT
BRANCH   2   3
ATOM      3  C   UNL     1      48.344   7.933  13.854  0.00  0.00    +0.000 A 
ATOM      4  C   UNL     1      48.002   9.000  14.696  0.00  0.00    +0.000 A 
ATOM      5  C   UNL     1      48.468   9.050  16.009  0.00  0.00    +0.000 A 
ATOM      6  C   UNL     1      49.224   7.997  16.530  0.00  0.00    +0.000 A 
ATOM      7  C   UNL     1      49.605   6.949  15.690  0.00  0.00    +0.000 A 
ATOM      8  C   UNL     1      49.173   6.920  14.360  0.00  0.00    +0.000 A 
BRANCH   6   9
ATOM      9  O   UNL     1      49.672   7.933  17.830  0.00  0.00    +0.000 OA
BRANCH   9  10
ATOM     10  C   UNL     1      49.142   6.999  18.685  0.00  0.00    +0.000 A 
ATOM     11  C   UNL     1      47.785   6.864  18.975  0.00  0.00    +0.000 A 
ATOM     12  C   UNL     1      47.372   5.904  19.897  0.00  0.00    +0.000 A 
ATOM     13  C   UNL     1      48.330   5.070  20.450  0.00  0.00    +0.000 A 
ATOM     14  N   UNL     1      49.643   5.128  20.143  0.00  0.00    +0.000 NA
ATOM     15  C   UNL     1      50.017   6.091  19.264  0.00  0.00    +0.000 A 
ENDBRANCH   9  10
ENDBRANCH   6   9
ENDBRANCH   2   3
BRANCH   2  16
ATOM     16  N   UNL     1      47.020   6.681  12.242  0.00  0.00    +0.000 N 
ATOM     17  C   UNL     1      45.652   6.667  12.175  0.00  0.00    +0.000 C 
ATOM     18  O   UNL     1      44.980   7.689  12.276  0.00  0.00    +0.000 OA
ATOM     19  H   UNL     1      47.527   5.804  12.277  0.00  0.00    +0.000 HD
BRANCH  17  20
ATOM     20  C   UNL     1      45.028   5.362  11.914  0.00  0.00    +0.000 A 
ATOM     21  C   UNL     1      44.349   4.712  12.937  0.00  0.00    +0.000 A 
ATOM     22  S   UNL     1      43.638   3.237  12.455  0.00  0.00    +0.000 S 
ATOM     23  C   UNL     1      44.254   3.394  10.876  0.00  0.00    +0.000 A 
ATOM     24  N   UNL     1      44.015   2.440   9.937  0.00  0.00    +0.000 NA
ATOM     25  C   UNL     1      44.572   2.665   8.793  0.00  0.00    +0.000 A 
ATOM     26  N   UNL     1      45.340   3.762   8.503  0.00  0.00    +0.000 N 
ATOM     27  C   UNL     1      45.565   4.777   9.403  0.00  0.00    +0.000 A 
ATOM     28  O   UNL     1      46.182   5.783   9.079  0.00  0.00    +0.000 OA
ATOM     29  C   UNL     1      44.980   4.561  10.713  0.00  0.00    +0.000 A 
ATOM     30  H   UNL     1      45.734   3.888   7.582  0.00  0.00    +0.000 HD
ENDBRANCH  17  20
ENDBRANCH   2  16
TORSDOF 5
ENDMDL
