MODEL 1
REMARK VINA RESULT:    -8.263      0.000      0.000
REMARK INTER + INTRA:         -13.146
REMARK INTER:                 -12.128
REMARK INTRA:                  -1.018
REMARK UNBOUND:                -1.018
REMARK  Name = 
REMARK  9 active torsions:
REMARK  status: ('A' for Active; 'I' for Inactive)
REMARK    1  A    between atoms: C_1  and  C_2
REMARK    2  A    between atoms: C_2  and  C_3
REMARK    3  A    between atoms: C_2  and  N_10
REMARK    4  A    between atoms: C_3  and  C_4
REMARK    5  A    between atoms: N_10  and  C_11
REMARK    6  A    between atoms: C_11  and  C_12
REMARK    7  A    between atoms: C_15  and  C_16
REMARK    8  A    between atoms: C_16  and  N_17
REMARK    9  A    between atoms: C_18  and  C_20
REMARK                            x       y       z     vdW  Elec       q    Type
REMARK                         _______ _______ _______ _____ _____    ______ ____
ROOT
ATOM      1  C   UNL     1      44.747   5.771  11.984  0.00  0.00    +0.000 A 
ATOM      2  C   UNL     1      45.447   6.919  11.594  0.00  0.00    +0.000 A 
ATOM      3  C   UNL     1      46.650   7.260  12.219  0.00  0.00    +0.000 A 
ATOM      4  C   UNL     1      47.170   6.462  13.245  0.00  0.00    +0.000 A 
ATOM      5  C   UNL     1      46.451   5.336  13.660  0.00  0.00    +0.000 A 
ATOM      6  C   UNL     1      45.256   4.988  13.027  0.00  0.00    +0.000 A 
ENDROOT
BRANCH   1   7
ATOM      7  C   UNL     1      43.452   5.381  11.308  0.00  0.00    +0.000 C 
BRANCH   7   8
ATOM      8  N   UNL     1      43.650   5.098   9.887  0.00  0.00    +0.000 NA
ATOM      9  H   UNL     1      42.742   4.918   9.459  0.00  0.00    +0.000 HD
BRANCH   8  11
ATOM     10  C   UNL     1      43.981   2.760  10.430  0.00  0.00    +0.000 C 
ATOM     11  C   UNL     1      44.538   3.948   9.632  0.00  0.00    +0.000 C 
BRANCH  11  12
ATOM     12  C   UNL     1      44.630   3.610   8.123  0.00  0.00    +0.000 C 
BRANCH  12  13
ATOM     13  C   UNL     1      45.860   2.842   7.707  0.00  0.00    +0.000 A 
ATOM     14  C   UNL     1      45.987   1.490   8.030  0.00  0.00    +0.000 A 
ATOM     15  C   UNL     1      47.111   0.806   7.595  0.00  0.00    +0.000 A 
ATOM     16  N   UNL     1      48.101   1.371   6.871  0.00  0.00    +0.000 NA
ATOM     17  C   UNL     1      47.955   2.676   6.563  0.00  0.00    +0.000 A 
ATOM     18  C   UNL     1      46.867   3.443   6.948  0.00  0.00    +0.000 A 
ENDBRANCH  12  13
ENDBRANCH  11  12
ENDBRANCH   8  11
ENDBRANCH   7   8
ENDBRANCH   1   7
BRANCH   4  19
ATOM     19  C   UNL     1      48.457   6.828  13.933  0.00  0.00    +0.000 C 
BRANCH  19  20
ATOM     20  N   UNL     1      48.319   6.733  15.362  0.00  0.00    +0.000 N 
ATOM     21  C   UNL     1      49.061   7.525  16.199  0.00  0.00    +0.000 C 
ATOM     22  O   UNL     1      49.842   8.371  15.769  0.00  0.00    +0.000 OA
ATOM     23  H   UNL     1      47.860   5.905  15.728  0.00  0.00    +0.000 HD
BRANCH  21  24
ATOM     24  C   UNL     1      48.825   7.359  17.637  0.00  0.00    +0.000 A 
ATOM     25  C   UNL     1      48.484   8.464  18.405  0.00  0.00    +0.000 A 
ATOM     26  S   UNL     1      48.187   8.095  20.043  0.00  0.00    +0.000 S 
ATOM     27  C   UNL     1      48.556   6.453  19.794  0.00  0.00    +0.000 A 
ATOM     28  N   UNL     1      48.517   5.565  20.824  0.00  0.00    +0.000 NA
ATOM     29  C   UNL     1      48.848   4.360  20.502  0.00  0.00    +0.000 A 
ATOM     30  N   UNL     1      49.207   3.958  19.241  0.00  0.00    +0.000 N 
ATOM     31  C   UNL     1      49.235   4.815  18.166  0.00  0.00    +0.000 A 
ATOM     32  O   UNL     1      49.526   4.414  17.043  0.00  0.00    +0.000 OA
ATOM     33  C   UNL     1      48.882   6.187  18.476  0.00  0.00    +0.000 A 
ATOM     34  H   UNL     1      49.447   2.998  19.051  0.00  0.00    +0.000 HD
ENDBRANCH  21  24
ENDBRANCH  19  20
ENDBRANCH   4  19
TORSDOF 8
ENDMDL
MODEL 2
REMARK VINA RESULT:    -8.219      1.298      2.015
REMARK INTER + INTRA:         -13.080
REMARK INTER:                 -12.105
REMARK INTRA:                  -0.976
REMARK UNBOUND:                -1.018
REMARK  Name = 
REMARK  9 active torsions:
REMARK  status: ('A' for Active; 'I' for Inactive)
REMARK    1  A    between atoms: C_1  and  C_2
REMARK    2  A    between atoms: C_2  and  C_3
REMARK    3  A    between atoms: C_2  and  N_10
REMARK    4  A    between atoms: C_3  and  C_4
REMARK    5  A    between atoms: N_10  and  C_11
REMARK    6  A    between atoms: C_11  and  C_12
REMARK    7  A    between atoms: C_15  and  C_16
REMARK    8  A    between atoms: C_16  and  N_17
REMARK    9  A    between atoms: C_18  and  C_20
REMARK                            x       y       z     vdW  Elec       q    Type
REMARK                         _______ _______ _______ _____ _____    ______ ____
ROOT
ATOM      1  C   UNL     1      44.702   5.646  12.248  0.00  0.00    +0.000 A 
ATOM      2  C   UNL     1      45.360   6.862  12.023  0.00  0.00    +0.000 A 
ATOM      3  C   UNL     1      46.536   7.167  12.713  0.00  0.00    +0.000 A 
ATOM      4  C   UNL     1      47.073   6.265  13.640  0.00  0.00    +0.000 A 
ATOM      5  C   UNL     1      46.395   5.067  13.891  0.00  0.00    +0.000 A 
ATOM      6  C   UNL     1      45.227   4.755  13.193  0.00  0.00    +0.000 A 
ENDROOT
BRANCH   1   7
ATOM      7  C   UNL     1      43.436   5.294  11.499  0.00  0.00    +0.000 C 
BRANCH   7   8
ATOM      8  N   UNL     1      43.687   5.118  10.069  0.00  0.00    +0.000 NA
ATOM      9  H   UNL     1      42.793   5.009   9.591  0.00  0.00    +0.000 HD
BRANCH   8  11
ATOM     10  C   UNL     1      43.927   2.739  10.456  0.00  0.00    +0.000 C 
ATOM     11  C   UNL     1      44.545   3.960   9.758  0.00  0.00    +0.000 C 
BRANCH  11  12
ATOM     12  C   UNL     1      44.668   3.724   8.232  0.00  0.00    +0.000 C 
BRANCH  12  13
ATOM     13  C   UNL     1      45.859   2.903   7.800  0.00  0.00    +0.000 A 
ATOM     14  C   UNL     1      45.921   1.542   8.102  0.00  0.00    +0.000 A 
ATOM     15  C   UNL     1      47.008   0.810   7.653  0.00  0.00    +0.000 A 
ATOM     16  N   UNL     1      48.023   1.337   6.934  0.00  0.00    +0.000 NA
ATOM     17  C   UNL     1      47.940   2.653   6.647  0.00  0.00    +0.000 A 
ATOM     18  C   UNL     1      46.892   3.466   7.048  0.00  0.00    +0.000 A 
ENDBRANCH  12  13
ENDBRANCH  11  12
ENDBRANCH   8  11
ENDBRANCH   7   8
ENDBRANCH   1   7
BRANCH   4  19
ATOM     19  C   UNL     1      48.331   6.590  14.396  0.00  0.00    +0.000 C 
BRANCH  19  20
ATOM     20  N   UNL     1      48.135   6.423  15.812  0.00  0.00    +0.000 N 
ATOM     21  C   UNL     1      49.179   6.094  16.637  0.00  0.00    +0.000 C 
ATOM     22  O   UNL     1      50.326   5.965  16.214  0.00  0.00    +0.000 OA
ATOM     23  H   UNL     1      47.181   6.303  16.136  0.00  0.00    +0.000 HD
BRANCH  21  24
ATOM     24  C   UNL     1      48.871   5.968  18.065  0.00  0.00    +0.000 A 
ATOM     25  C   UNL     1      49.116   4.765  18.714  0.00  0.00    +0.000 A 
ATOM     26  S   UNL     1      48.760   4.801  20.380  0.00  0.00    +0.000 S 
ATOM     27  C   UNL     1      48.215   6.409  20.284  0.00  0.00    +0.000 A 
ATOM     28  N   UNL     1      47.738   7.051  21.384  0.00  0.00    +0.000 NA
ATOM     29  C   UNL     1      47.330   8.256  21.164  0.00  0.00    +0.000 A 
ATOM     30  N   UNL     1      47.364   8.882  19.944  0.00  0.00    +0.000 N 
ATOM     31  C   UNL     1      47.860   8.279  18.811  0.00  0.00    +0.000 A 
ATOM     32  O   UNL     1      47.909   8.882  17.742  0.00  0.00    +0.000 OA
ATOM     33  C   UNL     1      48.322   6.918  19.002  0.00  0.00    +0.000 A 
ATOM     34  H   UNL     1      47.038   9.829  19.837  0.00  0.00    +0.000 HD
ENDBRANCH  21  24
ENDBRANCH  19  20
ENDBRANCH   4  19
TORSDOF 8
ENDMDL
MODEL 3
REMARK VINA RESULT:    -7.833      2.221      2.848
REMARK INTER + INTRA:         -12.514
REMARK INTER:                 -11.391
REMARK INTRA:                  -1.124
REMARK UNBOUND:                -1.018
REMARK  Name = 
REMARK  9 active torsions:
REMARK  status: ('A' for Active; 'I' for Inactive)
REMARK    1  A    between atoms: C_1  and  C_2
REMARK    2  A    between atoms: C_2  and  C_3
REMARK    3  A    between atoms: C_2  and  N_10
REMARK    4  A    between atoms: C_3  and  C_4
REMARK    5  A    between atoms: N_10  and  C_11
REMARK    6  A    between atoms: C_11  and  C_12
REMARK    7  A    between atoms: C_15  and  C_16
REMARK    8  A    between atoms: C_16  and  N_17
REMARK    9  A    between atoms: C_18  and  C_20
REMARK                            x       y       z     vdW  Elec       q    Type
REMARK                         _______ _______ _______ _____ _____    ______ ____
ROOT
ATOM      1  C   UNL     1      46.583   6.310  11.987  0.00  0.00    +0.000 A 
ATOM      2  C   UNL     1      47.060   5.423  12.960  0.00  0.00    +0.000 A 
ATOM      3  C   UNL     1      47.717   5.905  14.095  0.00  0.00    +0.000 A 
ATOM      4  C   UNL     1      47.912   7.281  14.275  0.00  0.00    +0.000 A 
ATOM      5  C   UNL     1      47.469   8.164  13.285  0.00  0.00    +0.000 A 
ATOM      6  C   UNL     1      46.801   7.684  12.157  0.00  0.00    +0.000 A 
ENDROOT
BRANCH   1   7
ATOM      7  C   UNL     1      45.857   5.805  10.761  0.00  0.00    +0.000 C 
BRANCH   7   8
ATOM      8  N   UNL     1      44.744   4.926  11.117  0.00  0.00    +0.000 NA
ATOM      9  H   UNL     1      44.729   4.810  12.130  0.00  0.00    +0.000 HD
BRANCH   8  11
ATOM     10  C   UNL     1      43.632   2.776  11.015  0.00  0.00    +0.000 C 
ATOM     11  C   UNL     1      44.815   3.597  10.480  0.00  0.00    +0.000 C 
BRANCH  11  12
ATOM     12  C   UNL     1      44.771   3.692   8.935  0.00  0.00    +0.000 C 
BRANCH  12  13
ATOM     13  C   UNL     1      45.825   2.894   8.209  0.00  0.00    +0.000 A 
ATOM     14  C   UNL     1      45.922   1.515   8.405  0.00  0.00    +0.000 A 
ATOM     15  C   UNL     1      46.874   0.806   7.690  0.00  0.00    +0.000 A 
ATOM     16  N   UNL     1      47.723   1.372   6.806  0.00  0.00    +0.000 NA
ATOM     17  C   UNL     1      47.609   2.704   6.625  0.00  0.00    +0.000 A 
ATOM     18  C   UNL     1      46.686   3.497   7.290  0.00  0.00    +0.000 A 
ENDBRANCH  12  13
ENDBRANCH  11  12
ENDBRANCH   8  11
ENDBRANCH   7   8
ENDBRANCH   1   7
BRANCH   4  19
ATOM     19  C   UNL     1      48.629   7.808  15.487  0.00  0.00    +0.000 C 
BRANCH  19  20
ATOM     20  N   UNL     1      49.675   6.908  15.894  0.00  0.00    +0.000 N 
ATOM     21  C   UNL     1      49.631   6.275  17.109  0.00  0.00    +0.000 C 
ATOM     22  O   UNL     1      48.686   6.417  17.882  0.00  0.00    +0.000 OA
ATOM     23  H   UNL     1      50.551   6.954  15.383  0.00  0.00    +0.000 HD
BRANCH  21  24
ATOM     24  C   UNL     1      50.740   5.364  17.414  0.00  0.00    +0.000 A 
ATOM     25  C   UNL     1      51.960   5.886  17.824  0.00  0.00    +0.000 A 
ATOM     26  S   UNL     1      53.124   4.697  18.195  0.00  0.00    +0.000 S 
ATOM     27  C   UNL     1      52.056   3.443  17.771  0.00  0.00    +0.000 A 
ATOM     28  N   UNL     1      52.445   2.142  17.839  0.00  0.00    +0.000 NA
ATOM     29  C   UNL     1      51.547   1.296  17.459  0.00  0.00    +0.000 A 
ATOM     30  N   UNL     1      50.290   1.632  17.026  0.00  0.00    +0.000 N 
ATOM     31  C   UNL     1      49.846   2.932  16.965  0.00  0.00    +0.000 A 
ATOM     32  O   UNL     1      48.701   3.195  16.606  0.00  0.00    +0.000 OA
ATOM     33  C   UNL     1      50.821   3.925  17.370  0.00  0.00    +0.000 A 
ATOM     34  H   UNL     1      49.629   0.923  16.750  0.00  0.00    +0.000 HD
ENDBRANCH  21  24
ENDBRANCH  19  20
ENDBRANCH   4  19
TORSDOF 8
ENDMDL
MODEL 4
REMARK VINA RESULT:    -7.590      3.947      9.475
REMARK INTER + INTRA:         -12.158
REMARK INTER:                  -9.364
REMARK INTRA:                  -2.793
REMARK UNBOUND:                -1.018
REMARK  Name = 
REMARK  9 active torsions:
REMARK  status: ('A' for Active; 'I' for Inactive)
REMARK    1  A    between atoms: C_1  and  C_2
REMARK    2  A    between atoms: C_2  and  C_3
REMARK    3  A    between atoms: C_2  and  N_10
REMARK    4  A    between atoms: C_3  and  C_4
REMARK    5  A    between atoms: N_10  and  C_11
REMARK    6  A    between atoms: C_11  and  C_12
REMARK    7  A    between atoms: C_15  and  C_16
REMARK    8  A    between atoms: C_16  and  N_17
REMARK    9  A    between atoms: C_18  and  C_20
REMARK                            x       y       z     vdW  Elec       q    Type
REMARK                         _______ _______ _______ _____ _____    ______ ____
ROOT
ATOM      1  C   UNL     1      48.179   5.629  20.567  0.00  0.00    +0.000 A 
ATOM      2  C   UNL     1      47.174   6.096  19.711  0.00  0.00    +0.000 A 
ATOM      3  C   UNL     1      46.946   5.472  18.482  0.00  0.00    +0.000 A 
ATOM      4  C   UNL     1      47.719   4.372  18.087  0.00  0.00    +0.000 A 
ATOM      5  C   UNL     1      48.747   3.929  18.926  0.00  0.00    +0.000 A 
ATOM      6  C   UNL     1      48.967   4.544  20.160  0.00  0.00    +0.000 A 
ENDROOT
BRANCH   1   7
ATOM      7  C   UNL     1      48.429   6.284  21.907  0.00  0.00    +0.000 C 
BRANCH   7   8
ATOM      8  N   UNL     1      49.654   7.082  21.896  0.00  0.00    +0.000 NA
ATOM      9  H   UNL     1      49.772   7.513  22.812  0.00  0.00    +0.000 HD
BRANCH   8  11
ATOM     10  C   UNL     1      49.707   9.485  21.591  0.00  0.00    +0.000 C 
ATOM     11  C   UNL     1      49.665   8.134  20.862  0.00  0.00    +0.000 C 
BRANCH  11  12
ATOM     12  C   UNL     1      50.867   7.986  19.897  0.00  0.00    +0.000 C 
BRANCH  12  13
ATOM     13  C   UNL     1      50.527   7.491  18.513  0.00  0.00    +0.000 A 
ATOM     14  C   UNL     1      51.216   6.408  17.965  0.00  0.00    +0.000 A 
ATOM     15  C   UNL     1      50.849   5.952  16.709  0.00  0.00    +0.000 A 
ATOM     16  N   UNL     1      49.855   6.497  15.973  0.00  0.00    +0.000 NA
ATOM     17  C   UNL     1      49.197   7.538  16.524  0.00  0.00    +0.000 A 
ATOM     18  C   UNL     1      49.488   8.061  17.774  0.00  0.00    +0.000 A 
ENDBRANCH  12  13
ENDBRANCH  11  12
ENDBRANCH   8  11
ENDBRANCH   7   8
ENDBRANCH   1   7
BRANCH   4  19
ATOM     19  C   UNL     1      47.489   3.702  16.760  0.00  0.00    +0.000 C 
BRANCH  19  20
ATOM     20  N   UNL     1      47.015   4.647  15.784  0.00  0.00    +0.000 N 
ATOM     21  C   UNL     1      46.913   4.307  14.461  0.00  0.00    +0.000 C 
ATOM     22  O   UNL     1      47.184   3.178  14.058  0.00  0.00    +0.000 OA
ATOM     23  H   UNL     1      47.005   5.626  16.054  0.00  0.00    +0.000 HD
BRANCH  21  24
ATOM     24  C   UNL     1      46.399   5.341  13.556  0.00  0.00    +0.000 A 
ATOM     25  C   UNL     1      47.182   6.452  13.274  0.00  0.00    +0.000 A 
ATOM     26  S   UNL     1      46.468   7.529  12.163  0.00  0.00    +0.000 S 
ATOM     27  C   UNL     1      45.063   6.575  12.059  0.00  0.00    +0.000 A 
ATOM     28  N   UNL     1      44.019   6.953  11.275  0.00  0.00    +0.000 NA
ATOM     29  C   UNL     1      43.006   6.154  11.313  0.00  0.00    +0.000 A 
ATOM     30  N   UNL     1      42.945   5.004  12.058  0.00  0.00    +0.000 N 
ATOM     31  C   UNL     1      43.987   4.571  12.845  0.00  0.00    +0.000 A 
ATOM     32  O   UNL     1      43.912   3.517  13.471  0.00  0.00    +0.000 OA
ATOM     33  C   UNL     1      45.147   5.440  12.847  0.00  0.00    +0.000 A 
ATOM     34  H   UNL     1      42.128   4.416  12.039  0.00  0.00    +0.000 HD
ENDBRANCH  21  24
ENDBRANCH  19  20
ENDBRANCH   4  19
TORSDOF 8
ENDMDL
MODEL 5
REMARK VINA RESULT:    -7.571      4.012     10.194
REMARK INTER + INTRA:         -12.129
REMARK INTER:                  -9.919
REMARK INTRA:                  -2.210
REMARK UNBOUND:                -1.018
REMARK  Name = 
REMARK  9 active torsions:
REMARK  status: ('A' for Active; 'I' for Inactive)
REMARK    1  A    between atoms: C_1  and  C_2
REMARK    2  A    between atoms: C_2  and  C_3
REMARK    3  A    between atoms: C_2  and  N_10
REMARK    4  A    between atoms: C_3  and  C_4
REMARK    5  A    between atoms: N_10  and  C_11
REMARK    6  A    between atoms: C_11  and  C_12
REMARK    7  A    between atoms: C_15  and  C_16
REMARK    8  A    between atoms: C_16  and  N_17
REMARK    9  A    between atoms: C_18  and  C_20
REMARK                            x       y       z     vdW  Elec       q    Type
REMARK                         _______ _______ _______ _____ _____    ______ ____
ROOT
ATOM      1  C   UNL     1      51.423   4.322  17.744  0.00  0.00    +0.000 A 
ATOM      2  C   UNL     1      50.562   5.372  17.405  0.00  0.00    +0.000 A 
ATOM      3  C   UNL     1      49.228   5.116  17.077  0.00  0.00    +0.000 A 
ATOM      4  C   UNL     1      48.733   3.806  17.081  0.00  0.00    +0.000 A 
ATOM      5  C   UNL     1      49.603   2.752  17.384  0.00  0.00    +0.000 A 
ATOM      6  C   UNL     1      50.932   3.009  17.723  0.00  0.00    +0.000 A 
ENDROOT
BRANCH   1   7
ATOM      7  C   UNL     1      52.865   4.584  18.115  0.00  0.00    +0.000 C 
BRANCH   7   8
ATOM      8  N   UNL     1      52.981   5.169  19.451  0.00  0.00    +0.000 NA
ATOM      9  H   UNL     1      53.944   5.470  19.594  0.00  0.00    +0.000 HD
BRANCH   8  11
ATOM     10  C   UNL     1      53.897   3.700  21.146  0.00  0.00    +0.000 C 
ATOM     11  C   UNL     1      52.597   4.245  20.535  0.00  0.00    +0.000 C 
BRANCH  11  12
ATOM     12  C   UNL     1      51.728   4.943  21.610  0.00  0.00    +0.000 C 
BRANCH  12  13
ATOM     13  C   UNL     1      50.440   5.546  21.107  0.00  0.00    +0.000 A 
ATOM     14  C   UNL     1      49.299   4.753  20.969  0.00  0.00    +0.000 A 
ATOM     15  C   UNL     1      48.122   5.349  20.545  0.00  0.00    +0.000 A 
ATOM     16  N   UNL     1      48.008   6.663  20.253  0.00  0.00    +0.000 NA
ATOM     17  C   UNL     1      49.120   7.413  20.400  0.00  0.00    +0.000 A 
ATOM     18  C   UNL     1      50.340   6.909  20.822  0.00  0.00    +0.000 A 
ENDBRANCH  12  13
ENDBRANCH  11  12
ENDBRANCH   8  11
ENDBRANCH   7   8
ENDBRANCH   1   7
BRANCH   4  19
ATOM     19  C   UNL     1      47.302   3.519  16.717  0.00  0.00    +0.000 C 
BRANCH  19  20
ATOM     20  N   UNL     1      46.810   4.485  15.772  0.00  0.00    +0.000 N 
ATOM     21  C   UNL     1      46.826   4.231  14.425  0.00  0.00    +0.000 C 
ATOM     22  O   UNL     1      47.223   3.160  13.972  0.00  0.00    +0.000 OA
ATOM     23  H   UNL     1      46.695   5.439  16.102  0.00  0.00    +0.000 HD
BRANCH  21  24
ATOM     24  C   UNL     1      46.282   5.278  13.554  0.00  0.00    +0.000 A 
ATOM     25  C   UNL     1      47.043   6.407  13.286  0.00  0.00    +0.000 A 
ATOM     26  S   UNL     1      46.294   7.500  12.213  0.00  0.00    +0.000 S 
ATOM     27  C   UNL     1      44.903   6.527  12.109  0.00  0.00    +0.000 A 
ATOM     28  N   UNL     1      43.840   6.907  11.351  0.00  0.00    +0.000 NA
ATOM     29  C   UNL     1      42.840   6.092  11.386  0.00  0.00    +0.000 A 
ATOM     30  N   UNL     1      42.809   4.924  12.104  0.00  0.00    +0.000 N 
ATOM     31  C   UNL     1      43.870   4.488  12.864  0.00  0.00    +0.000 A 
ATOM     32  O   UNL     1      43.821   3.419  13.466  0.00  0.00    +0.000 OA
ATOM     33  C   UNL     1      45.017   5.375  12.868  0.00  0.00    +0.000 A 
ATOM     34  H   UNL     1      42.000   4.324  12.084  0.00  0.00    +0.000 HD
ENDBRANCH  21  24
ENDBRANCH  19  20
ENDBRANCH   4  19
TORSDOF 8
ENDMDL
MODEL 6
REMARK VINA RESULT:    -7.505      3.285      8.645
REMARK INTER + INTRA:         -12.033
REMARK INTER:                  -9.635
REMARK INTRA:                  -2.398
REMARK UNBOUND:                -1.018
REMARK  Name = 
REMARK  9 active torsions:
REMARK  status: ('A' for Active; 'I' for Inactive)
REMARK    1  A    between atoms: C_1  and  C_2
REMARK    2  A    between atoms: C_2  and  C_3
REMARK    3  A    between atoms: C_2  and  N_10
REMARK    4  A    between atoms: C_3  and  C_4
REMARK    5  A    between atoms: N_10  and  C_11
REMARK    6  A    between atoms: C_11  and  C_12
REMARK    7  A    between atoms: C_15  and  C_16
REMARK    8  A    between atoms: C_16  and  N_17
REMARK    9  A    between atoms: C_18  and  C_20
REMARK                            x       y       z     vdW  Elec       q    Type
REMARK                         _______ _______ _______ _____ _____    ______ ____
ROOT
ATOM      1  C   UNL     1      49.567   8.184  16.040  0.00  0.00    +0.000 A 
ATOM      2  C   UNL     1      50.128   7.366  15.052  0.00  0.00    +0.000 A 
ATOM      3  C   UNL     1      49.545   7.286  13.784  0.00  0.00    +0.000 A 
ATOM      4  C   UNL     1      48.391   8.020  13.484  0.00  0.00    +0.000 A 
ATOM      5  C   UNL     1      47.809   8.808  14.483  0.00  0.00    +0.000 A 
ATOM      6  C   UNL     1      48.398   8.898  15.745  0.00  0.00    +0.000 A 
ENDROOT
BRANCH   1   7
ATOM      7  C   UNL     1      50.194   8.292  17.411  0.00  0.00    +0.000 C 
BRANCH   7   8
ATOM      8  N   UNL     1      49.297   7.795  18.454  0.00  0.00    +0.000 NA
ATOM      9  H   UNL     1      49.599   8.172  19.353  0.00  0.00    +0.000 HD
BRANCH   8  11
ATOM     10  C   UNL     1      49.667   5.939  19.967  0.00  0.00    +0.000 C 
ATOM     11  C   UNL     1      49.249   6.323  18.540  0.00  0.00    +0.000 C 
BRANCH  11  12
ATOM     12  C   UNL     1      47.842   5.769  18.205  0.00  0.00    +0.000 C 
BRANCH  12  13
ATOM     13  C   UNL     1      47.802   4.721  17.121  0.00  0.00    +0.000 A 
ATOM     14  C   UNL     1      47.312   5.040  15.853  0.00  0.00    +0.000 A 
ATOM     15  C   UNL     1      47.330   4.065  14.869  0.00  0.00    +0.000 A 
ATOM     16  N   UNL     1      47.796   2.812  15.061  0.00  0.00    +0.000 NA
ATOM     17  C   UNL     1      48.272   2.526  16.291  0.00  0.00    +0.000 A 
ATOM     18  C   UNL     1      48.300   3.435  17.337  0.00  0.00    +0.000 A 
ENDBRANCH  12  13
ENDBRANCH  11  12
ENDBRANCH   8  11
ENDBRANCH   7   8
ENDBRANCH   1   7
BRANCH   4  19
ATOM     19  C   UNL     1      47.749   7.930  12.127  0.00  0.00    +0.000 C 
BRANCH  19  20
ATOM     20  N   UNL     1      47.026   6.695  11.983  0.00  0.00    +0.000 N 
ATOM     21  C   UNL     1      45.657   6.681  11.904  0.00  0.00    +0.000 C 
ATOM     22  O   UNL     1      44.995   7.716  11.915  0.00  0.00    +0.000 OA
ATOM     23  H   UNL     1      47.526   5.838  12.197  0.00  0.00    +0.000 HD
BRANCH  21  24
ATOM     24  C   UNL     1      45.024   5.368  11.738  0.00  0.00    +0.000 A 
ATOM     25  C   UNL     1      44.355   4.792  12.810  0.00  0.00    +0.000 A 
ATOM     26  S   UNL     1      43.626   3.296  12.439  0.00  0.00    +0.000 S 
ATOM     27  C   UNL     1      44.224   3.340  10.847  0.00  0.00    +0.000 A 
ATOM     28  N   UNL     1      43.976   2.322   9.980  0.00  0.00    +0.000 NA
ATOM     29  C   UNL     1      44.514   2.468   8.816  0.00  0.00    +0.000 A 
ATOM     30  N   UNL     1      45.272   3.546   8.436  0.00  0.00    +0.000 N 
ATOM     31  C   UNL     1      45.527   4.609   9.270  0.00  0.00    +0.000 A 
ATOM     32  O   UNL     1      46.179   5.575   8.885  0.00  0.00    +0.000 OA
ATOM     33  C   UNL     1      44.954   4.489  10.597  0.00  0.00    +0.000 A 
ATOM     34  H   UNL     1      45.658   3.607   7.507  0.00  0.00    +0.000 HD
ENDBRANCH  21  24
ENDBRANCH  19  20
ENDBRANCH   4  19
TORSDOF 8
ENDMDL
MODEL 7
REMARK VINA RESULT:    -7.302      3.076      4.296
REMARK INTER + INTRA:         -11.735
REMARK INTER:                 -10.513
REMARK INTRA:                  -1.222
REMARK UNBOUND:                -1.018
REMARK  Name = 
REMARK  9 active torsions:
REMARK  status: ('A' for Active; 'I' for Inactive)
REMARK    1  A    between atoms: C_1  and  C_2
REMARK    2  A    between atoms: C_2  and  C_3
REMARK    3  A    between atoms: C_2  and  N_10
REMARK    4  A    between atoms: C_3  and  C_4
REMARK    5  A    between atoms: N_10  and  C_11
REMARK    6  A    between atoms: C_11  and  C_12
REMARK    7  A    between atoms: C_15  and  C_16
REMARK    8  A    between atoms: C_16  and  N_17
REMARK    9  A    between atoms: C_18  and  C_20
REMARK                            x       y       z     vdW  Elec       q    Type
REMARK                         _______ _______ _______ _____ _____    ______ ____
ROOT
ATOM      1  C   UNL     1      46.808   4.639  14.208  0.00  0.00    +0.000 A 
ATOM      2  C   UNL     1      46.979   3.958  15.419  0.00  0.00    +0.000 A 
ATOM      3  C   UNL     1      47.770   4.504  16.433  0.00  0.00    +0.000 A 
ATOM      4  C   UNL     1      48.407   5.739  16.253  0.00  0.00    +0.000 A 
ATOM      5  C   UNL     1      48.267   6.401  15.028  0.00  0.00    +0.000 A 
ATOM      6  C   UNL     1      47.466   5.862  14.020  0.00  0.00    +0.000 A 
ENDROOT
BRANCH   1   7
ATOM      7  C   UNL     1      45.944   4.069  13.107  0.00  0.00    +0.000 C 
BRANCH   7   8
ATOM      8  N   UNL     1      45.877   4.966  11.954  0.00  0.00    +0.000 NA
ATOM      9  H   UNL     1      46.598   5.681  12.053  0.00  0.00    +0.000 HD
BRANCH   8  11
ATOM     10  C   UNL     1      44.836   7.097  11.455  0.00  0.00    +0.000 C 
ATOM     11  C   UNL     1      44.566   5.623  11.793  0.00  0.00    +0.000 C 
BRANCH  11  12
ATOM     12  C   UNL     1      43.712   4.947  10.691  0.00  0.00    +0.000 C 
BRANCH  12  13
ATOM     13  C   UNL     1      44.472   4.053   9.743  0.00  0.00    +0.000 A 
ATOM     14  C   UNL     1      45.301   4.607   8.767  0.00  0.00    +0.000 A 
ATOM     15  C   UNL     1      46.017   3.755   7.941  0.00  0.00    +0.000 A 
ATOM     16  N   UNL     1      45.961   2.408   8.021  0.00  0.00    +0.000 NA
ATOM     17  C   UNL     1      45.159   1.893   8.976  0.00  0.00    +0.000 A 
ATOM     18  C   UNL     1      44.409   2.662   9.851  0.00  0.00    +0.000 A 
ENDBRANCH  12  13
ENDBRANCH  11  12
ENDBRANCH   8  11
ENDBRANCH   7   8
ENDBRANCH   1   7
BRANCH   4  19
ATOM     19  C   UNL     1      49.271   6.328  17.333  0.00  0.00    +0.000 C 
BRANCH  19  20
ATOM     20  N   UNL     1      50.254   5.377  17.778  0.00  0.00    +0.000 N 
ATOM     21  C   UNL     1      51.518   5.363  17.247  0.00  0.00    +0.000 C 
ATOM     22  O   UNL     1      51.875   6.179  16.401  0.00  0.00    +0.000 OA
ATOM     23  H   UNL     1      49.918   4.571  18.296  0.00  0.00    +0.000 HD
BRANCH  21  24
ATOM     24  C   UNL     1      52.445   4.364  17.789  0.00  0.00    +0.000 A 
ATOM     25  C   UNL     1      53.629   4.783  18.382  0.00  0.00    +0.000 A 
ATOM     26  S   UNL     1      54.567   3.507  19.012  0.00  0.00    +0.000 S 
ATOM     27  C   UNL     1      53.450   2.345  18.469  0.00  0.00    +0.000 A 
ATOM     28  N   UNL     1      53.668   1.018  18.670  0.00  0.00    +0.000 NA
ATOM     29  C   UNL     1      52.757   0.246  18.180  0.00  0.00    +0.000 A 
ATOM     30  N   UNL     1      51.640   0.682  17.514  0.00  0.00    +0.000 N 
ATOM     31  C   UNL     1      51.366   2.014  17.310  0.00  0.00    +0.000 A 
ATOM     32  O   UNL     1      50.338   2.370  16.741  0.00  0.00    +0.000 OA
ATOM     33  C   UNL     1      52.366   2.925  17.832  0.00  0.00    +0.000 A 
ATOM     34  H   UNL     1      50.959   0.029  17.162  0.00  0.00    +0.000 HD
ENDBRANCH  21  24
ENDBRANCH  19  20
ENDBRANCH   4  19
TORSDOF 8
ENDMDL
MODEL 8
REMARK VINA RESULT:    -7.201      3.639      8.945
REMARK INTER + INTRA:         -11.586
REMARK INTER:                  -9.552
REMARK INTRA:                  -2.034
REMARK UNBOUND:                -1.018
REMARK  Name = 
REMARK  9 active torsions:
REMARK  status: ('A' for Active; 'I' for Inactive)
REMARK    1  A    between atoms: C_1  and  C_2
REMARK    2  A    between atoms: C_2  and  C_3
REMARK    3  A    between atoms: C_2  and  N_10
REMARK    4  A    between atoms: C_3  and  C_4
REMARK    5  A    between atoms: N_10  and  C_11
REMARK    6  A    between atoms: C_11  and  C_12
REMARK    7  A    between atoms: C_15  and  C_16
REMARK    8  A    between atoms: C_16  and  N_17
REMARK    9  A    between atoms: C_18  and  C_20
REMARK                            x       y       z     vdW  Elec       q    Type
REMARK                         _______ _______ _______ _____ _____    ______ ____
ROOT
ATOM      1  C   UNL     1      50.262   8.111  14.364  0.00  0.00    +0.000 A 
ATOM      2  C   UNL     1      49.278   8.855  15.026  0.00  0.00    +0.000 A 
ATOM      3  C   UNL     1      47.954   8.832  14.580  0.00  0.00    +0.000 A 
ATOM      4  C   UNL     1      47.591   8.068  13.464  0.00  0.00    +0.000 A 
ATOM      5  C   UNL     1      48.582   7.354  12.780  0.00  0.00    +0.000 A 
ATOM      6  C   UNL     1      49.903   7.367  13.232  0.00  0.00    +0.000 A 
ENDROOT
BRANCH   1   7
ATOM      7  C   UNL     1      51.696   8.115  14.842  0.00  0.00    +0.000 C 
BRANCH   7   8
ATOM      8  N   UNL     1      51.792   7.766  16.260  0.00  0.00    +0.000 NA
ATOM      9  H   UNL     1      52.723   8.014  16.595  0.00  0.00    +0.000 HD
BRANCH   8  11
ATOM     10  C   UNL     1      52.827   5.769  17.159  0.00  0.00    +0.000 C 
ATOM     11  C   UNL     1      51.544   6.339  16.535  0.00  0.00    +0.000 C 
BRANCH  11  12
ATOM     12  C   UNL     1      50.330   6.132  17.474  0.00  0.00    +0.000 C 
BRANCH  12  13
ATOM     13  C   UNL     1      49.335   5.092  17.023  0.00  0.00    +0.000 A 
ATOM     14  C   UNL     1      49.437   3.777  17.480  0.00  0.00    +0.000 A 
ATOM     15  C   UNL     1      48.481   2.857  17.080  0.00  0.00    +0.000 A 
ATOM     16  N   UNL     1      47.446   3.157  16.266  0.00  0.00    +0.000 NA
ATOM     17  C   UNL     1      47.360   4.434  15.842  0.00  0.00    +0.000 A 
ATOM     18  C   UNL     1      48.264   5.425  16.191  0.00  0.00    +0.000 A 
ENDBRANCH  12  13
ENDBRANCH  11  12
ENDBRANCH   8  11
ENDBRANCH   7   8
ENDBRANCH   1   7
BRANCH   4  19
ATOM     19  C   UNL     1      46.172   8.046  12.968  0.00  0.00    +0.000 C 
BRANCH  19  20
ATOM     20  N   UNL     1      45.783   6.715  12.584  0.00  0.00    +0.000 N 
ATOM     21  C   UNL     1      44.710   6.502  11.759  0.00  0.00    +0.000 C 
ATOM     22  O   UNL     1      44.060   7.431  11.285  0.00  0.00    +0.000 OA
ATOM     23  H   UNL     1      46.156   5.947  13.133  0.00  0.00    +0.000 HD
BRANCH  21  24
ATOM     24  C   UNL     1      44.415   5.107  11.415  0.00  0.00    +0.000 A 
ATOM     25  C   UNL     1      43.649   4.337  12.280  0.00  0.00    +0.000 A 
ATOM     26  S   UNL     1      43.348   2.759  11.710  0.00  0.00    +0.000 S 
ATOM     27  C   UNL     1      44.275   3.031  10.310  0.00  0.00    +0.000 A 
ATOM     28  N   UNL     1      44.448   2.049   9.386  0.00  0.00    +0.000 NA
ATOM     29  C   UNL     1      45.198   2.380   8.389  0.00  0.00    +0.000 A 
ATOM     30  N   UNL     1      45.786   3.608   8.227  0.00  0.00    +0.000 N 
ATOM     31  C   UNL     1      45.618   4.638   9.123  0.00  0.00    +0.000 A 
ATOM     32  O   UNL     1      46.129   5.737   8.928  0.00  0.00    +0.000 OA
ATOM     33  C   UNL     1      44.791   4.315  10.270  0.00  0.00    +0.000 A 
ATOM     34  H   UNL     1      46.355   3.809   7.421  0.00  0.00    +0.000 HD
ENDBRANCH  21  24
ENDBRANCH  19  20
ENDBRANCH   4  19
TORSDOF 8
ENDMDL
MODEL 9
REMARK VINA RESULT:    -7.054      3.408      9.570
REMARK INTER + INTRA:         -11.370
REMARK INTER:                  -8.530
REMARK INTRA:                  -2.840
REMARK UNBOUND:                -1.018
REMARK  Name = 
REMARK  9 active torsions:
REMARK  status: ('A' for Active; 'I' for Inactive)
REMARK    1  A    between atoms: C_1  and  C_2
REMARK    2  A    between atoms: C_2  and  C_3
REMARK    3  A    between atoms: C_2  and  N_10
REMARK    4  A    between atoms: C_3  and  C_4
REMARK    5  A    between atoms: N_10  and  C_11
REMARK    6  A    between atoms: C_11  and  C_12
REMARK    7  A    between atoms: C_15  and  C_16
REMARK    8  A    between atoms: C_16  and  N_17
REMARK    9  A    between atoms: C_18  and  C_20
REMARK                            x       y       z     vdW  Elec       q    Type
REMARK                         _______ _______ _______ _____ _____    ______ ____
ROOT
ATOM      1  C   UNL     1      47.927   6.841  20.648  0.00  0.00    +0.000 A 
ATOM      2  C   UNL     1      47.007   6.257  19.767  0.00  0.00    +0.000 A 
ATOM      3  C   UNL     1      47.422   5.793  18.516  0.00  0.00    +0.000 A 
ATOM      4  C   UNL     1      48.762   5.906  18.123  0.00  0.00    +0.000 A 
ATOM      5  C   UNL     1      49.673   6.523  18.987  0.00  0.00    +0.000 A 
ATOM      6  C   UNL     1      49.262   6.976  20.242  0.00  0.00    +0.000 A 
ENDROOT
BRANCH   1   7
ATOM      7  C   UNL     1      47.497   7.335  22.010  0.00  0.00    +0.000 C 
BRANCH   7   8
ATOM      8  N   UNL     1      47.717   8.773  22.156  0.00  0.00    +0.000 NA
ATOM      9  H   UNL     1      47.499   9.042  23.115  0.00  0.00    +0.000 HD
BRANCH   8  11
ATOM     10  C   UNL     1      45.815  10.271  22.065  0.00  0.00    +0.000 C 
ATOM     11  C   UNL     1      46.910   9.591  21.231  0.00  0.00    +0.000 C 
BRANCH  11  12
ATOM     12  C   UNL     1      47.770  10.639  20.483  0.00  0.00    +0.000 C 
BRANCH  12  13
ATOM     13  C   UNL     1      48.338  10.184  19.161  0.00  0.00    +0.000 A 
ATOM     14  C   UNL     1      47.502   9.631  18.190  0.00  0.00    +0.000 A 
ATOM     15  C   UNL     1      48.050   9.264  16.971  0.00  0.00    +0.000 A 
ATOM     16  N   UNL     1      49.357   9.409  16.662  0.00  0.00    +0.000 NA
ATOM     17  C   UNL     1      50.146   9.952  17.611  0.00  0.00    +0.000 A 
ATOM     18  C   UNL     1      49.690  10.354  18.856  0.00  0.00    +0.000 A 
ENDBRANCH  12  13
ENDBRANCH  11  12
ENDBRANCH   8  11
ENDBRANCH   7   8
ENDBRANCH   1   7
BRANCH   4  19
ATOM     19  C   UNL     1      49.215   5.422  16.774  0.00  0.00    +0.000 C 
BRANCH  19  20
ATOM     20  N   UNL     1      48.149   5.514  15.811  0.00  0.00    +0.000 N 
ATOM     21  C   UNL     1      48.316   6.196  14.634  0.00  0.00    +0.000 C 
ATOM     22  O   UNL     1      49.385   6.721  14.333  0.00  0.00    +0.000 OA
ATOM     23  H   UNL     1      47.213   5.289  16.134  0.00  0.00    +0.000 HD
BRANCH  21  24
ATOM     24  C   UNL     1      47.170   6.210  13.718  0.00  0.00    +0.000 A 
ATOM     25  C   UNL     1      46.690   7.423  13.242  0.00  0.00    +0.000 A 
ATOM     26  S   UNL     1      45.396   7.265  12.144  0.00  0.00    +0.000 S 
ATOM     27  C   UNL     1      45.397   5.571  12.305  0.00  0.00    +0.000 A 
ATOM     28  N   UNL     1      44.496   4.806  11.632  0.00  0.00    +0.000 NA
ATOM     29  C   UNL     1      44.588   3.540  11.869  0.00  0.00    +0.000 A 
ATOM     30  N   UNL     1      45.506   2.968  12.712  0.00  0.00    +0.000 N 
ATOM     31  C   UNL     1      46.451   3.700  13.392  0.00  0.00    +0.000 A 
ATOM     32  O   UNL     1      47.281   3.152  14.111  0.00  0.00    +0.000 OA
ATOM     33  C   UNL     1      46.384   5.132  13.170  0.00  0.00    +0.000 A 
ATOM     34  H   UNL     1      45.534   1.971  12.849  0.00  0.00    +0.000 HD
ENDBRANCH  21  24
ENDBRANCH  19  20
ENDBRANCH   4  19
TORSDOF 8
ENDMDL
