MODEL 1
REMARK VINA RESULT:    -8.420      0.000      0.000
REMARK INTER + INTRA:         -12.434
REMARK INTER:                 -11.866
REMARK INTRA:                  -0.568
REMARK UNBOUND:                -0.568
REMARK  Name = 
REMARK  10 active torsions:
REMARK  status: ('A' for Active; 'I' for Inactive)
REMARK    1  A    between atoms: C_1  and  O_2
REMARK    2  A    between atoms: O_2  and  C_3
REMARK    3  A    between atoms: C_5  and  C_6
REMARK    4  A    between atoms: C_13  and  C_14
REMARK    5  A    between atoms: C_14  and  C_15
REMARK    6  A    between atoms: C_14  and  C_16
REMARK    7  A    between atoms: C_14  and  C_17
REMARK    8  A    between atoms: C_17  and  O_18
REMARK    9  A    between atoms: O_18  and  C_19
REMARK   10  A    between atoms: C_22  and  C_23
REMARK                            x       y       z     vdW  Elec       q    Type
REMARK                         _______ _______ _______ _____ _____    ______ ____
ROOT
ATOM      1  C   UNL     1      43.831   5.302  12.026  0.00  0.00    +0.000 C 
ATOM      2  C   UNL     1      42.844   4.900  13.142  0.00  0.00    +0.000 C 
ATOM      3  C   UNL     1      43.194   6.491  11.265  0.00  0.00    +0.000 C 
ENDROOT
BRANCH   1   8
ATOM      4  C   UNL     1      47.104   5.018  14.069  0.00  0.00    +0.000 A 
ATOM      5  C   UNL     1      47.813   6.135  13.628  0.00  0.00    +0.000 A 
ATOM      6  C   UNL     1      47.265   7.020  12.686  0.00  0.00    +0.000 A 
ATOM      7  C   UNL     1      45.965   6.751  12.212  0.00  0.00    +0.000 A 
ATOM      8  C   UNL     1      45.216   5.635  12.629  0.00  0.00    +0.000 A 
ATOM      9  C   UNL     1      45.813   4.786  13.581  0.00  0.00    +0.000 A 
BRANCH   6  10
ATOM     10  C   UNL     1      48.039   8.173  12.178  0.00  0.00    +0.000 A 
ATOM     11  C   UNL     1      49.387   8.067  11.806  0.00  0.00    +0.000 A 
ATOM     12  C   UNL     1      50.092   9.186  11.362  0.00  0.00    +0.000 A 
ATOM     13  C   UNL     1      49.423  10.394  11.282  0.00  0.00    +0.000 A 
ATOM     14  N   UNL     1      48.129  10.553  11.618  0.00  0.00    +0.000 NA
ATOM     15  C   UNL     1      47.479   9.449  12.060  0.00  0.00    +0.000 A 
ENDBRANCH   6  10
BRANCH   4  17
ATOM     16  C   UNL     1      47.707   4.503  16.311  0.00  0.00    +0.000 C 
ATOM     17  O   UNL     1      47.573   4.085  14.955  0.00  0.00    +0.000 OA
ENDBRANCH   4  17
ENDBRANCH   1   8
BRANCH   1  18
ATOM     18  C   UNL     1      44.003   4.125  11.025  0.00  0.00    +0.000 C 
BRANCH  18  19
ATOM     19  O   UNL     1      43.934   4.562   9.657  0.00  0.00    +0.000 OA
BRANCH  19  20
ATOM     20  C   UNL     1      44.910   3.973   8.873  0.00  0.00    +0.000 A 
ATOM     21  N   UNL     1      45.733   4.786   8.169  0.00  0.00    +0.000 NA
ATOM     22  C   UNL     1      46.665   4.203   7.382  0.00  0.00    +0.000 A 
ATOM     23  C   UNL     1      46.823   2.834   7.255  0.00  0.00    +0.000 A 
ATOM     24  C   UNL     1      45.976   2.010   8.010  0.00  0.00    +0.000 A 
ATOM     25  C   UNL     1      45.004   2.584   8.832  0.00  0.00    +0.000 A 
ATOM     26 CL   UNL     1      43.961   1.558   9.743  0.00  0.00    +0.000 Cl
BRANCH  23  27
ATOM     27  C   UNL     1      47.832   2.219   6.360  0.00  0.00    +0.000 C 
ATOM     28  N   UNL     1      48.182   2.870   5.209  0.00  0.00    +0.000 N 
ATOM     29  O   UNL     1      48.339   1.140   6.635  0.00  0.00    +0.000 OA
ATOM     30  H   UNL     1      47.796   3.736   4.865  0.00  0.00    +0.000 HD
ATOM     31  H   UNL     1      48.851   2.398   4.613  0.00  0.00    +0.000 HD
ENDBRANCH  23  27
ENDBRANCH  19  20
ENDBRANCH  18  19
ENDBRANCH   1  18
TORSDOF 7
ENDMDL
MODEL 2
REMARK VINA RESULT:    -7.645      4.024      7.974
REMARK INTER + INTRA:         -11.342
REMARK INTER:                 -10.111
REMARK INTRA:                  -1.231
REMARK UNBOUND:                -0.568
REMARK  Name = 
REMARK  10 active torsions:
REMARK  status: ('A' for Active; 'I' for Inactive)
REMARK    1  A    between atoms: C_1  and  O_2
REMARK    2  A    between atoms: O_2  and  C_3
REMARK    3  A    between atoms: C_5  and  C_6
REMARK    4  A    between atoms: C_13  and  C_14
REMARK    5  A    between atoms: C_14  and  C_15
REMARK    6  A    between atoms: C_14  and  C_16
REMARK    7  A    between atoms: C_14  and  C_17
REMARK    8  A    between atoms: C_17  and  O_18
REMARK    9  A    between atoms: O_18  and  C_19
REMARK   10  A    between atoms: C_22  and  C_23
REMARK                            x       y       z     vdW  Elec       q    Type
REMARK                         _______ _______ _______ _____ _____    ______ ____
ROOT
ATOM      1  C   UNL     1      49.272   8.331  12.340  0.00  0.00    +0.000 C 
ATOM      2  C   UNL     1      50.043   7.850  11.092  0.00  0.00    +0.000 C 
ATOM      3  C   UNL     1      49.622   9.826  12.541  0.00  0.00    +0.000 C 
ENDROOT
BRANCH   1   8
ATOM      4  C   UNL     1      45.448   8.910  12.219  0.00  0.00    +0.000 A 
ATOM      5  C   UNL     1      44.994   7.698  11.699  0.00  0.00    +0.000 A 
ATOM      6  C   UNL     1      45.884   6.658  11.392  0.00  0.00    +0.000 A 
ATOM      7  C   UNL     1      47.254   6.871  11.642  0.00  0.00    +0.000 A 
ATOM      8  C   UNL     1      47.756   8.078  12.164  0.00  0.00    +0.000 A 
ATOM      9  C   UNL     1      46.816   9.084  12.460  0.00  0.00    +0.000 A 
BRANCH   6  10
ATOM     10  C   UNL     1      45.406   5.394  10.788  0.00  0.00    +0.000 A 
ATOM     11  C   UNL     1      45.491   5.140   9.412  0.00  0.00    +0.000 A 
ATOM     12  C   UNL     1      44.999   3.950   8.877  0.00  0.00    +0.000 A 
ATOM     13  C   UNL     1      44.443   3.022   9.740  0.00  0.00    +0.000 A 
ATOM     14  N   UNL     1      44.342   3.209  11.070  0.00  0.00    +0.000 NA
ATOM     15  C   UNL     1      44.816   4.383  11.554  0.00  0.00    +0.000 A 
ENDBRANCH   6  10
BRANCH   4  17
ATOM     16  C   UNL     1      43.886  10.526  11.443  0.00  0.00    +0.000 C 
ATOM     17  O   UNL     1      44.658   9.988  12.514  0.00  0.00    +0.000 OA
ENDBRANCH   4  17
ENDBRANCH   1   8
BRANCH   1  18
ATOM     18  C   UNL     1      49.757   7.549  13.593  0.00  0.00    +0.000 C 
BRANCH  18  19
ATOM     19  O   UNL     1      49.013   7.897  14.771  0.00  0.00    +0.000 OA
BRANCH  19  20
ATOM     20  C   UNL     1      48.688   6.787  15.530  0.00  0.00    +0.000 A 
ATOM     21  N   UNL     1      48.070   5.753  14.909  0.00  0.00    +0.000 NA
ATOM     22  C   UNL     1      47.729   4.684  15.662  0.00  0.00    +0.000 A 
ATOM     23  C   UNL     1      47.974   4.586  17.021  0.00  0.00    +0.000 A 
ATOM     24  C   UNL     1      48.635   5.657  17.641  0.00  0.00    +0.000 A 
ATOM     25  C   UNL     1      48.999   6.775  16.887  0.00  0.00    +0.000 A 
ATOM     26 CL   UNL     1      49.799   8.088  17.665  0.00  0.00    +0.000 Cl
BRANCH  23  27
ATOM     27  C   UNL     1      47.561   3.416  17.831  0.00  0.00    +0.000 C 
ATOM     28  N   UNL     1      48.306   3.070  18.926  0.00  0.00    +0.000 N 
ATOM     29  O   UNL     1      46.576   2.757  17.525  0.00  0.00    +0.000 OA
ATOM     30  H   UNL     1      49.156   3.514  19.239  0.00  0.00    +0.000 HD
ATOM     31  H   UNL     1      48.005   2.246  19.431  0.00  0.00    +0.000 HD
ENDBRANCH  23  27
ENDBRANCH  19  20
ENDBRANCH  18  19
ENDBRANCH   1  18
TORSDOF 7
ENDMDL
MODEL 3
REMARK VINA RESULT:    -7.288      4.097      7.196
REMARK INTER + INTRA:         -10.839
REMARK INTER:                  -9.315
REMARK INTRA:                  -1.524
REMARK UNBOUND:                -0.568
REMARK  Name = 
REMARK  10 active torsions:
REMARK  status: ('A' for Active; 'I' for Inactive)
REMARK    1  A    between atoms: C_1  and  O_2
REMARK    2  A    between atoms: O_2  and  C_3
REMARK    3  A    between atoms: C_5  and  C_6
REMARK    4  A    between atoms: C_13  and  C_14
REMARK    5  A    between atoms: C_14  and  C_15
REMARK    6  A    between atoms: C_14  and  C_16
REMARK    7  A    between atoms: C_14  and  C_17
REMARK    8  A    between atoms: C_17  and  O_18
REMARK    9  A    between atoms: O_18  and  C_19
REMARK   10  A    between atoms: C_22  and  C_23
REMARK                            x       y       z     vdW  Elec       q    Type
REMARK                         _______ _______ _______ _____ _____    ______ ____
ROOT
ATOM      1  C   UNL     1      49.654   7.811  15.581  0.00  0.00    +0.000 C 
ATOM      2  C   UNL     1      49.531   9.224  16.188  0.00  0.00    +0.000 C 
ATOM      3  C   UNL     1      51.028   7.741  14.870  0.00  0.00    +0.000 C 
ENDROOT
BRANCH   1   8
ATOM      4  C   UNL     1      48.196   5.811  18.555  0.00  0.00    +0.000 A 
ATOM      5  C   UNL     1      49.048   4.708  18.601  0.00  0.00    +0.000 A 
ATOM      6  C   UNL     1      50.120   4.578  17.705  0.00  0.00    +0.000 A 
ATOM      7  C   UNL     1      50.317   5.609  16.764  0.00  0.00    +0.000 A 
ATOM      8  C   UNL     1      49.481   6.737  16.682  0.00  0.00    +0.000 A 
ATOM      9  C   UNL     1      48.427   6.819  17.612  0.00  0.00    +0.000 A 
BRANCH   6  10
ATOM     10  C   UNL     1      50.988   3.381  17.718  0.00  0.00    +0.000 A 
ATOM     11  C   UNL     1      52.331   3.431  18.118  0.00  0.00    +0.000 A 
ATOM     12  C   UNL     1      53.127   2.286  18.085  0.00  0.00    +0.000 A 
ATOM     13  C   UNL     1      52.553   1.099  17.665  0.00  0.00    +0.000 A 
ATOM     14  N   UNL     1      51.267   0.990  17.278  0.00  0.00    +0.000 NA
ATOM     15  C   UNL     1      50.528   2.125  17.307  0.00  0.00    +0.000 A 
ENDBRANCH   6  10
BRANCH   4  17
ATOM     16  C   UNL     1      47.358   6.050  20.768  0.00  0.00    +0.000 C 
ATOM     17  O   UNL     1      47.109   6.003  19.365  0.00  0.00    +0.000 OA
ENDBRANCH   4  17
ENDBRANCH   1   8
BRANCH   1  18
ATOM     18  C   UNL     1      48.546   7.598  14.512  0.00  0.00    +0.000 C 
BRANCH  18  19
ATOM     19  O   UNL     1      48.713   6.365  13.794  0.00  0.00    +0.000 OA
BRANCH  19  20
ATOM     20  C   UNL     1      47.543   5.957  13.179  0.00  0.00    +0.000 A 
ATOM     21  N   UNL     1      47.211   6.535  12.000  0.00  0.00    +0.000 NA
ATOM     22  C   UNL     1      46.051   6.153  11.421  0.00  0.00    +0.000 A 
ATOM     23  C   UNL     1      45.191   5.212  11.959  0.00  0.00    +0.000 A 
ATOM     24  C   UNL     1      45.564   4.608  13.168  0.00  0.00    +0.000 A 
ATOM     25  C   UNL     1      46.757   4.983  13.791  0.00  0.00    +0.000 A 
ATOM     26 CL   UNL     1      47.195   4.242  15.283  0.00  0.00    +0.000 Cl
BRANCH  23  27
ATOM     27  C   UNL     1      43.909   4.833  11.319  0.00  0.00    +0.000 C 
ATOM     28  N   UNL     1      43.228   5.770  10.591  0.00  0.00    +0.000 N 
ATOM     29  O   UNL     1      43.454   3.704  11.446  0.00  0.00    +0.000 OA
ATOM     30  H   UNL     1      43.488   6.736  10.460  0.00  0.00    +0.000 HD
ATOM     31  H   UNL     1      42.342   5.476  10.199  0.00  0.00    +0.000 HD
ENDBRANCH  23  27
ENDBRANCH  19  20
ENDBRANCH  18  19
ENDBRANCH   1  18
TORSDOF 7
ENDMDL
MODEL 4
REMARK VINA RESULT:    -7.161      3.680      8.422
REMARK INTER + INTRA:         -10.660
REMARK INTER:                  -9.417
REMARK INTRA:                  -1.242
REMARK UNBOUND:                -0.568
REMARK  Name = 
REMARK  10 active torsions:
REMARK  status: ('A' for Active; 'I' for Inactive)
REMARK    1  A    between atoms: C_1  and  O_2
REMARK    2  A    between atoms: O_2  and  C_3
REMARK    3  A    between atoms: C_5  and  C_6
REMARK    4  A    between atoms: C_13  and  C_14
REMARK    5  A    between atoms: C_14  and  C_15
REMARK    6  A    between atoms: C_14  and  C_16
REMARK    7  A    between atoms: C_14  and  C_17
REMARK    8  A    between atoms: C_17  and  O_18
REMARK    9  A    between atoms: O_18  and  C_19
REMARK   10  A    between atoms: C_22  and  C_23
REMARK                            x       y       z     vdW  Elec       q    Type
REMARK                         _______ _______ _______ _____ _____    ______ ____
ROOT
ATOM      1  C   UNL     1      48.780   8.189  12.920  0.00  0.00    +0.000 C 
ATOM      2  C   UNL     1      49.749   7.237  12.188  0.00  0.00    +0.000 C 
ATOM      3  C   UNL     1      49.294   9.631  12.681  0.00  0.00    +0.000 C 
ENDROOT
BRANCH   1   8
ATOM      4  C   UNL     1      45.093   8.854  11.954  0.00  0.00    +0.000 A 
ATOM      5  C   UNL     1      44.728   7.640  11.373  0.00  0.00    +0.000 A 
ATOM      6  C   UNL     1      45.633   6.571  11.289  0.00  0.00    +0.000 A 
ATOM      7  C   UNL     1      46.922   6.759  11.828  0.00  0.00    +0.000 A 
ATOM      8  C   UNL     1      47.332   7.967  12.422  0.00  0.00    +0.000 A 
ATOM      9  C   UNL     1      46.379   9.002  12.485  0.00  0.00    +0.000 A 
BRANCH   6  10
ATOM     10  C   UNL     1      45.263   5.304  10.622  0.00  0.00    +0.000 A 
ATOM     11  C   UNL     1      45.564   5.047   9.277  0.00  0.00    +0.000 A 
ATOM     12  C   UNL     1      45.169   3.853   8.675  0.00  0.00    +0.000 A 
ATOM     13  C   UNL     1      44.488   2.925   9.442  0.00  0.00    +0.000 A 
ATOM     14  N   UNL     1      44.178   3.114  10.739  0.00  0.00    +0.000 NA
ATOM     15  C   UNL     1      44.564   4.292  11.288  0.00  0.00    +0.000 A 
ENDBRANCH   6  10
BRANCH   4  17
ATOM     16  C   UNL     1      43.481  10.257  10.911  0.00  0.00    +0.000 C 
ATOM     17  O   UNL     1      44.289   9.958  12.046  0.00  0.00    +0.000 OA
ENDBRANCH   4  17
ENDBRANCH   1   8
BRANCH   1  18
ATOM     18  C   UNL     1      48.821   7.909  14.448  0.00  0.00    +0.000 C 
BRANCH  18  19
ATOM     19  O   UNL     1      49.461   6.660  14.755  0.00  0.00    +0.000 OA
BRANCH  19  20
ATOM     20  C   UNL     1      49.158   6.219  16.030  0.00  0.00    +0.000 A 
ATOM     21  N   UNL     1      49.892   6.704  17.060  0.00  0.00    +0.000 NA
ATOM     22  C   UNL     1      49.611   6.246  18.300  0.00  0.00    +0.000 A 
ATOM     23  C   UNL     1      48.623   5.316  18.575  0.00  0.00    +0.000 A 
ATOM     24  C   UNL     1      47.859   4.843  17.498  0.00  0.00    +0.000 A 
ATOM     25  C   UNL     1      48.128   5.298  16.206  0.00  0.00    +0.000 A 
ATOM     26 CL   UNL     1      47.190   4.698  14.891  0.00  0.00    +0.000 Cl
BRANCH  23  27
ATOM     27  C   UNL     1      48.355   4.805  19.940  0.00  0.00    +0.000 C 
ATOM     28  N   UNL     1      48.604   3.489  20.217  0.00  0.00    +0.000 N 
ATOM     29  O   UNL     1      47.906   5.542  20.809  0.00  0.00    +0.000 OA
ATOM     30  H   UNL     1      48.930   2.788  19.568  0.00  0.00    +0.000 HD
ATOM     31  H   UNL     1      48.377   3.176  21.153  0.00  0.00    +0.000 HD
ENDBRANCH  23  27
ENDBRANCH  19  20
ENDBRANCH  18  19
ENDBRANCH   1  18
TORSDOF 7
ENDMDL
MODEL 5
REMARK VINA RESULT:    -6.923      4.933      7.921
REMARK INTER + INTRA:         -10.324
REMARK INTER:                  -9.305
REMARK INTRA:                  -1.019
REMARK UNBOUND:                -0.568
REMARK  Name = 
REMARK  10 active torsions:
REMARK  status: ('A' for Active; 'I' for Inactive)
REMARK    1  A    between atoms: C_1  and  O_2
REMARK    2  A    between atoms: O_2  and  C_3
REMARK    3  A    between atoms: C_5  and  C_6
REMARK    4  A    between atoms: C_13  and  C_14
REMARK    5  A    between atoms: C_14  and  C_15
REMARK    6  A    between atoms: C_14  and  C_16
REMARK    7  A    between atoms: C_14  and  C_17
REMARK    8  A    between atoms: C_17  and  O_18
REMARK    9  A    between atoms: O_18  and  C_19
REMARK   10  A    between atoms: C_22  and  C_23
REMARK                            x       y       z     vdW  Elec       q    Type
REMARK                         _______ _______ _______ _____ _____    ______ ____
ROOT
ATOM      1  C   UNL     1      48.186   4.463  16.974  0.00  0.00    +0.000 C 
ATOM      2  C   UNL     1      47.829   2.987  16.704  0.00  0.00    +0.000 C 
ATOM      3  C   UNL     1      47.359   4.912  18.204  0.00  0.00    +0.000 C 
ENDROOT
BRANCH   1   8
ATOM      4  C   UNL     1      51.683   6.058  17.420  0.00  0.00    +0.000 A 
ATOM      5  C   UNL     1      52.470   4.942  17.703  0.00  0.00    +0.000 A 
ATOM      6  C   UNL     1      51.919   3.652  17.740  0.00  0.00    +0.000 A 
ATOM      7  C   UNL     1      50.543   3.519  17.465  0.00  0.00    +0.000 A 
ATOM      8  C   UNL     1      49.712   4.617  17.177  0.00  0.00    +0.000 A 
ATOM      9  C   UNL     1      50.322   5.887  17.146  0.00  0.00    +0.000 A 
BRANCH   6  10
ATOM     10  C   UNL     1      52.744   2.477  18.095  0.00  0.00    +0.000 A 
ATOM     11  C   UNL     1      52.536   1.214  17.524  0.00  0.00    +0.000 A 
ATOM     12  C   UNL     1      53.314   0.122  17.910  0.00  0.00    +0.000 A 
ATOM     13  C   UNL     1      54.304   0.322  18.856  0.00  0.00    +0.000 A 
ATOM     14  N   UNL     1      54.553   1.514  19.432  0.00  0.00    +0.000 NA
ATOM     15  C   UNL     1      53.768   2.549  19.045  0.00  0.00    +0.000 A 
ENDBRANCH   6  10
BRANCH   4  17
ATOM     16  C   UNL     1      53.010   7.706  16.335  0.00  0.00    +0.000 C 
ATOM     17  O   UNL     1      52.128   7.353  17.397  0.00  0.00    +0.000 OA
ENDBRANCH   4  17
ENDBRANCH   1   8
BRANCH   1  18
ATOM     18  C   UNL     1      47.762   5.339  15.762  0.00  0.00    +0.000 C 
BRANCH  18  19
ATOM     19  O   UNL     1      47.851   4.624  14.519  0.00  0.00    +0.000 OA
BRANCH  19  20
ATOM     20  C   UNL     1      46.792   4.910  13.676  0.00  0.00    +0.000 A 
ATOM     21  N   UNL     1      45.651   4.197  13.827  0.00  0.00    +0.000 NA
ATOM     22  C   UNL     1      44.631   4.461  12.980  0.00  0.00    +0.000 A 
ATOM     23  C   UNL     1      44.686   5.413  11.976  0.00  0.00    +0.000 A 
ATOM     24  C   UNL     1      45.869   6.157  11.851  0.00  0.00    +0.000 A 
ATOM     25  C   UNL     1      46.939   5.905  12.712  0.00  0.00    +0.000 A 
ATOM     26 CL   UNL     1      48.390   6.818  12.538  0.00  0.00    +0.000 Cl
BRANCH  23  27
ATOM     27  C   UNL     1      43.565   5.662  11.040  0.00  0.00    +0.000 C 
ATOM     28  N   UNL     1      42.817   6.798  11.187  0.00  0.00    +0.000 N 
ATOM     29  O   UNL     1      43.299   4.862  10.153  0.00  0.00    +0.000 OA
ATOM     30  H   UNL     1      42.921   7.498  11.907  0.00  0.00    +0.000 HD
ATOM     31  H   UNL     1      42.042   6.912  10.545  0.00  0.00    +0.000 HD
ENDBRANCH  23  27
ENDBRANCH  19  20
ENDBRANCH  18  19
ENDBRANCH   1  18
TORSDOF 7
ENDMDL
MODEL 6
REMARK VINA RESULT:    -6.832      5.042      8.613
REMARK INTER + INTRA:         -10.196
REMARK INTER:                  -9.164
REMARK INTRA:                  -1.032
REMARK UNBOUND:                -0.568
REMARK  Name = 
REMARK  10 active torsions:
REMARK  status: ('A' for Active; 'I' for Inactive)
REMARK    1  A    between atoms: C_1  and  O_2
REMARK    2  A    between atoms: O_2  and  C_3
REMARK    3  A    between atoms: C_5  and  C_6
REMARK    4  A    between atoms: C_13  and  C_14
REMARK    5  A    between atoms: C_14  and  C_15
REMARK    6  A    between atoms: C_14  and  C_16
REMARK    7  A    between atoms: C_14  and  C_17
REMARK    8  A    between atoms: C_17  and  O_18
REMARK    9  A    between atoms: O_18  and  C_19
REMARK   10  A    between atoms: C_22  and  C_23
REMARK                            x       y       z     vdW  Elec       q    Type
REMARK                         _______ _______ _______ _____ _____    ______ ____
ROOT
ATOM      1  C   UNL     1      49.258   7.129  15.694  0.00  0.00    +0.000 C 
ATOM      2  C   UNL     1      50.792   7.255  15.581  0.00  0.00    +0.000 C 
ATOM      3  C   UNL     1      48.779   8.260  16.639  0.00  0.00    +0.000 C 
ENDROOT
BRANCH   1   8
ATOM      4  C   UNL     1      48.574   8.104  12.013  0.00  0.00    +0.000 A 
ATOM      5  C   UNL     1      47.554   7.217  11.669  0.00  0.00    +0.000 A 
ATOM      6  C   UNL     1      47.042   6.300  12.598  0.00  0.00    +0.000 A 
ATOM      7  C   UNL     1      47.581   6.315  13.901  0.00  0.00    +0.000 A 
ATOM      8  C   UNL     1      48.611   7.192  14.290  0.00  0.00    +0.000 A 
ATOM      9  C   UNL     1      49.081   8.096  13.317  0.00  0.00    +0.000 A 
BRANCH   6  10
ATOM     10  C   UNL     1      46.000   5.322  12.216  0.00  0.00    +0.000 A 
ATOM     11  C   UNL     1      45.387   5.332  10.955  0.00  0.00    +0.000 A 
ATOM     12  C   UNL     1      44.386   4.413  10.644  0.00  0.00    +0.000 A 
ATOM     13  C   UNL     1      44.025   3.484  11.604  0.00  0.00    +0.000 A 
ATOM     14  N   UNL     1      44.584   3.423  12.828  0.00  0.00    +0.000 NA
ATOM     15  C   UNL     1      45.544   4.340  13.101  0.00  0.00    +0.000 A 
ENDBRANCH   6  10
BRANCH   4  17
ATOM     16  C   UNL     1      49.121  10.374  11.561  0.00  0.00    +0.000 C 
ATOM     17  O   UNL     1      49.156   9.006  11.163  0.00  0.00    +0.000 OA
ENDBRANCH   4  17
ENDBRANCH   1   8
BRANCH   1  18
ATOM     18  C   UNL     1      48.887   5.767  16.344  0.00  0.00    +0.000 C 
BRANCH  18  19
ATOM     19  O   UNL     1      49.563   5.561  17.596  0.00  0.00    +0.000 OA
BRANCH  19  20
ATOM     20  C   UNL     1      50.314   4.400  17.597  0.00  0.00    +0.000 A 
ATOM     21  N   UNL     1      49.715   3.256  17.188  0.00  0.00    +0.000 NA
ATOM     22  C   UNL     1      50.446   2.120  17.221  0.00  0.00    +0.000 A 
ATOM     23  C   UNL     1      51.762   2.059  17.645  0.00  0.00    +0.000 A 
ATOM     24  C   UNL     1      52.372   3.258  18.043  0.00  0.00    +0.000 A 
ATOM     25  C   UNL     1      51.640   4.448  18.020  0.00  0.00    +0.000 A 
ATOM     26 CL   UNL     1      52.399   5.910  18.524  0.00  0.00    +0.000 Cl
BRANCH  23  27
ATOM     27  C   UNL     1      52.533   0.795  17.702  0.00  0.00    +0.000 C 
ATOM     28  N   UNL     1      52.025  -0.261  18.408  0.00  0.00    +0.000 N 
ATOM     29  O   UNL     1      53.614   0.694  17.137  0.00  0.00    +0.000 OA
ATOM     30  H   UNL     1      51.171  -0.271  18.945  0.00  0.00    +0.000 HD
ATOM     31  H   UNL     1      52.600  -1.093  18.446  0.00  0.00    +0.000 HD
ENDBRANCH  23  27
ENDBRANCH  19  20
ENDBRANCH  18  19
ENDBRANCH   1  18
TORSDOF 7
ENDMDL
MODEL 7
REMARK VINA RESULT:    -6.768      4.525      6.955
REMARK INTER + INTRA:         -10.106
REMARK INTER:                  -9.127
REMARK INTRA:                  -0.979
REMARK UNBOUND:                -0.568
REMARK  Name = 
REMARK  10 active torsions:
REMARK  status: ('A' for Active; 'I' for Inactive)
REMARK    1  A    between atoms: C_1  and  O_2
REMARK    2  A    between atoms: O_2  and  C_3
REMARK    3  A    between atoms: C_5  and  C_6
REMARK    4  A    between atoms: C_13  and  C_14
REMARK    5  A    between atoms: C_14  and  C_15
REMARK    6  A    between atoms: C_14  and  C_16
REMARK    7  A    between atoms: C_14  and  C_17
REMARK    8  A    between atoms: C_17  and  O_18
REMARK    9  A    between atoms: O_18  and  C_19
REMARK   10  A    between atoms: C_22  and  C_23
REMARK                            x       y       z     vdW  Elec       q    Type
REMARK                         _______ _______ _______ _____ _____    ______ ____
ROOT
ATOM      1  C   UNL     1      47.885   3.775  17.017  0.00  0.00    +0.000 C 
ATOM      2  C   UNL     1      47.061   2.720  17.785  0.00  0.00    +0.000 C 
ATOM      3  C   UNL     1      47.357   5.165  17.451  0.00  0.00    +0.000 C 
ENDROOT
BRANCH   1   8
ATOM      4  C   UNL     1      51.345   2.103  17.468  0.00  0.00    +0.000 A 
ATOM      5  C   UNL     1      52.175   3.210  17.640  0.00  0.00    +0.000 A 
ATOM      6  C   UNL     1      51.659   4.515  17.638  0.00  0.00    +0.000 A 
ATOM      7  C   UNL     1      50.268   4.670  17.473  0.00  0.00    +0.000 A 
ATOM      8  C   UNL     1      49.394   3.582  17.295  0.00  0.00    +0.000 A 
ATOM      9  C   UNL     1      49.967   2.295  17.313  0.00  0.00    +0.000 A 
BRANCH   6  10
ATOM     10  C   UNL     1      52.548   5.690  17.765  0.00  0.00    +0.000 A 
ATOM     11  C   UNL     1      53.064   6.366  16.650  0.00  0.00    +0.000 A 
ATOM     12  C   UNL     1      53.925   7.451  16.810  0.00  0.00    +0.000 A 
ATOM     13  C   UNL     1      54.244   7.851  18.096  0.00  0.00    +0.000 A 
ATOM     14  N   UNL     1      53.773   7.246  19.203  0.00  0.00    +0.000 NA
ATOM     15  C   UNL     1      52.951   6.186  19.009  0.00  0.00    +0.000 A 
ENDBRANCH   6  10
BRANCH   4  17
ATOM     16  C   UNL     1      53.152   0.569  17.652  0.00  0.00    +0.000 C 
ATOM     17  O   UNL     1      51.765   0.801  17.421  0.00  0.00    +0.000 OA
ENDBRANCH   4  17
ENDBRANCH   1   8
BRANCH   1  18
ATOM     18  C   UNL     1      47.644   3.622  15.489  0.00  0.00    +0.000 C 
BRANCH  18  19
ATOM     19  O   UNL     1      47.788   4.870  14.790  0.00  0.00    +0.000 OA
BRANCH  19  20
ATOM     20  C   UNL     1      46.776   5.069  13.867  0.00  0.00    +0.000 A 
ATOM     21  N   UNL     1      45.614   4.397  14.046  0.00  0.00    +0.000 NA
ATOM     22  C   UNL     1      44.641   4.574  13.124  0.00  0.00    +0.000 A 
ATOM     23  C   UNL     1      44.765   5.395  12.017  0.00  0.00    +0.000 A 
ATOM     24  C   UNL     1      45.968   6.100  11.863  0.00  0.00    +0.000 A 
ATOM     25  C   UNL     1      46.991   5.937  12.799  0.00  0.00    +0.000 A 
ATOM     26 CL   UNL     1      48.468   6.798  12.589  0.00  0.00    +0.000 Cl
BRANCH  23  27
ATOM     27  C   UNL     1      43.695   5.548  11.003  0.00  0.00    +0.000 C 
ATOM     28  N   UNL     1      42.833   6.605  11.101  0.00  0.00    +0.000 N 
ATOM     29  O   UNL     1      43.572   4.736  10.094  0.00  0.00    +0.000 OA
ATOM     30  H   UNL     1      42.816   7.302  11.830  0.00  0.00    +0.000 HD
ATOM     31  H   UNL     1      42.099   6.651  10.405  0.00  0.00    +0.000 HD
ENDBRANCH  23  27
ENDBRANCH  19  20
ENDBRANCH  18  19
ENDBRANCH   1  18
TORSDOF 7
ENDMDL
MODEL 8
REMARK VINA RESULT:    -6.723      4.198      7.020
REMARK INTER + INTRA:         -10.043
REMARK INTER:                  -9.169
REMARK INTRA:                  -0.874
REMARK UNBOUND:                -0.568
REMARK  Name = 
REMARK  10 active torsions:
REMARK  status: ('A' for Active; 'I' for Inactive)
REMARK    1  A    between atoms: C_1  and  O_2
REMARK    2  A    between atoms: O_2  and  C_3
REMARK    3  A    between atoms: C_5  and  C_6
REMARK    4  A    between atoms: C_13  and  C_14
REMARK    5  A    between atoms: C_14  and  C_15
REMARK    6  A    between atoms: C_14  and  C_16
REMARK    7  A    between atoms: C_14  and  C_17
REMARK    8  A    between atoms: C_17  and  O_18
REMARK    9  A    between atoms: O_18  and  C_19
REMARK   10  A    between atoms: C_22  and  C_23
REMARK                            x       y       z     vdW  Elec       q    Type
REMARK                         _______ _______ _______ _____ _____    ______ ____
ROOT
ATOM      1  C   UNL     1      47.989   3.369  17.064  0.00  0.00    +0.000 C 
ATOM      2  C   UNL     1      48.989   2.374  16.439  0.00  0.00    +0.000 C 
ATOM      3  C   UNL     1      46.907   2.529  17.787  0.00  0.00    +0.000 C 
ENDROOT
BRANCH   1   8
ATOM      4  C   UNL     1      50.815   5.151  19.016  0.00  0.00    +0.000 A 
ATOM      5  C   UNL     1      50.132   6.225  19.587  0.00  0.00    +0.000 A 
ATOM      6  C   UNL     1      48.755   6.402  19.386  0.00  0.00    +0.000 A 
ATOM      7  C   UNL     1      48.078   5.448  18.600  0.00  0.00    +0.000 A 
ATOM      8  C   UNL     1      48.728   4.351  18.004  0.00  0.00    +0.000 A 
ATOM      9  C   UNL     1      50.109   4.219  18.246  0.00  0.00    +0.000 A 
BRANCH   6  10
ATOM     10  C   UNL     1      48.044   7.572  19.946  0.00  0.00    +0.000 A 
ATOM     11  C   UNL     1      47.714   7.672  21.305  0.00  0.00    +0.000 A 
ATOM     12  C   UNL     1      47.014   8.777  21.788  0.00  0.00    +0.000 A 
ATOM     13  C   UNL     1      46.668   9.776  20.896  0.00  0.00    +0.000 A 
ATOM     14  N   UNL     1      46.965   9.738  19.583  0.00  0.00    +0.000 NA
ATOM     15  C   UNL     1      47.632   8.643  19.145  0.00  0.00    +0.000 A 
ENDBRANCH   6  10
BRANCH   4  17
ATOM     16  C   UNL     1      52.639   3.676  18.627  0.00  0.00    +0.000 C 
ATOM     17  O   UNL     1      52.160   4.920  19.130  0.00  0.00    +0.000 OA
ENDBRANCH   4  17
ENDBRANCH   1   8
BRANCH   1  18
ATOM     18  C   UNL     1      47.294   4.191  15.944  0.00  0.00    +0.000 C 
BRANCH  18  19
ATOM     19  O   UNL     1      47.754   3.822  14.634  0.00  0.00    +0.000 OA
BRANCH  19  20
ATOM     20  C   UNL     1      46.823   4.115  13.653  0.00  0.00    +0.000 A 
ATOM     21  N   UNL     1      46.003   3.120  13.239  0.00  0.00    +0.000 NA
ATOM     22  C   UNL     1      45.117   3.406  12.259  0.00  0.00    +0.000 A 
ATOM     23  C   UNL     1      45.001   4.648  11.660  0.00  0.00    +0.000 A 
ATOM     24  C   UNL     1      45.843   5.672  12.119  0.00  0.00    +0.000 A 
ATOM     25  C   UNL     1      46.769   5.405  13.130  0.00  0.00    +0.000 A 
ATOM     26 CL   UNL     1      47.806   6.669  13.674  0.00  0.00    +0.000 Cl
BRANCH  23  27
ATOM     27  C   UNL     1      44.042   4.928  10.565  0.00  0.00    +0.000 C 
ATOM     28  N   UNL     1      43.167   5.971  10.700  0.00  0.00    +0.000 N 
ATOM     29  O   UNL     1      44.021   4.233   9.558  0.00  0.00    +0.000 OA
ATOM     30  H   UNL     1      43.069   6.575  11.502  0.00  0.00    +0.000 HD
ATOM     31  H   UNL     1      42.510   6.105   9.941  0.00  0.00    +0.000 HD
ENDBRANCH  23  27
ENDBRANCH  19  20
ENDBRANCH  18  19
ENDBRANCH   1  18
TORSDOF 7
ENDMDL
MODEL 9
REMARK VINA RESULT:    -6.374      3.910      6.410
REMARK INTER + INTRA:          -9.550
REMARK INTER:                  -8.623
REMARK INTRA:                  -0.928
REMARK UNBOUND:                -0.568
REMARK  Name = 
REMARK  10 active torsions:
REMARK  status: ('A' for Active; 'I' for Inactive)
REMARK    1  A    between atoms: C_1  and  O_2
REMARK    2  A    between atoms: O_2  and  C_3
REMARK    3  A    between atoms: C_5  and  C_6
REMARK    4  A    between atoms: C_13  and  C_14
REMARK    5  A    between atoms: C_14  and  C_15
REMARK    6  A    between atoms: C_14  and  C_16
REMARK    7  A    between atoms: C_14  and  C_17
REMARK    8  A    between atoms: C_17  and  O_18
REMARK    9  A    between atoms: O_18  and  C_19
REMARK   10  A    between atoms: C_22  and  C_23
REMARK                            x       y       z     vdW  Elec       q    Type
REMARK                         _______ _______ _______ _____ _____    ______ ____
ROOT
ATOM      1  C   UNL     1      49.308   8.490  12.470  0.00  0.00    +0.000 C 
ATOM      2  C   UNL     1      49.254   8.847  13.971  0.00  0.00    +0.000 C 
ATOM      3  C   UNL     1      48.472   9.557  11.721  0.00  0.00    +0.000 C 
ENDROOT
BRANCH   1   8
ATOM      4  C   UNL     1      53.154   8.900  12.358  0.00  0.00    +0.000 A 
ATOM      5  C   UNL     1      53.485   8.165  11.220  0.00  0.00    +0.000 A 
ATOM      6  C   UNL     1      52.498   7.537  10.446  0.00  0.00    +0.000 A 
ATOM      7  C   UNL     1      51.155   7.687  10.847  0.00  0.00    +0.000 A 
ATOM      8  C   UNL     1      50.777   8.418  11.989  0.00  0.00    +0.000 A 
ATOM      9  C   UNL     1      51.809   9.033  12.723  0.00  0.00    +0.000 A 
BRANCH   6  10
ATOM     10  C   UNL     1      52.855   6.712   9.271  0.00  0.00    +0.000 A 
ATOM     11  C   UNL     1      53.811   5.689   9.335  0.00  0.00    +0.000 A 
ATOM     12  C   UNL     1      54.144   4.955   8.197  0.00  0.00    +0.000 A 
ATOM     13  C   UNL     1      53.495   5.251   7.011  0.00  0.00    +0.000 A 
ATOM     14  N   UNL     1      52.564   6.216   6.893  0.00  0.00    +0.000 NA
ATOM     15  C   UNL     1      52.276   6.920   8.015  0.00  0.00    +0.000 A 
ENDBRANCH   6  10
BRANCH   4  17
ATOM     16  C   UNL     1      54.827  10.569  12.625  0.00  0.00    +0.000 C 
ATOM     17  O   UNL     1      54.051   9.515  13.190  0.00  0.00    +0.000 OA
ENDBRANCH   4  17
ENDBRANCH   1   8
BRANCH   1  18
ATOM     18  C   UNL     1      48.646   7.104  12.234  0.00  0.00    +0.000 C 
BRANCH  18  19
ATOM     19  O   UNL     1      47.400   6.970  12.938  0.00  0.00    +0.000 OA
BRANCH  19  20
ATOM     20  C   UNL     1      46.609   5.966  12.411  0.00  0.00    +0.000 A 
ATOM     21  N   UNL     1      46.097   6.147  11.170  0.00  0.00    +0.000 NA
ATOM     22  C   UNL     1      45.300   5.175  10.673  0.00  0.00    +0.000 A 
ATOM     23  C   UNL     1      44.980   4.014  11.355  0.00  0.00    +0.000 A 
ATOM     24  C   UNL     1      45.538   3.835  12.629  0.00  0.00    +0.000 A 
ATOM     25  C   UNL     1      46.365   4.823  13.169  0.00  0.00    +0.000 A 
ATOM     26 CL   UNL     1      47.033   4.594  14.740  0.00  0.00    +0.000 Cl
BRANCH  23  27
ATOM     27  C   UNL     1      44.078   2.977  10.801  0.00  0.00    +0.000 C 
ATOM     28  N   UNL     1      43.350   2.202  11.662  0.00  0.00    +0.000 N 
ATOM     29  O   UNL     1      43.988   2.804   9.593  0.00  0.00    +0.000 OA
ATOM     30  H   UNL     1      43.382   2.229  12.670  0.00  0.00    +0.000 HD
ATOM     31  H   UNL     1      42.772   1.486  11.241  0.00  0.00    +0.000 HD
ENDBRANCH  23  27
ENDBRANCH  19  20
ENDBRANCH  18  19
ENDBRANCH   1  18
TORSDOF 7
ENDMDL
