MODEL 1
REMARK VINA RESULT:    -8.186      0.000      0.000
REMARK INTER + INTRA:         -11.874
REMARK INTER:                 -11.057
REMARK INTRA:                  -0.817
REMARK UNBOUND:                -0.817
REMARK  Name = 
REMARK  7 active torsions:
REMARK  status: ('A' for Active; 'I' for Inactive)
REMARK    1  A    between atoms: C_1  and  N_2
REMARK    2  A    between atoms: N_2  and  C_3
REMARK    3  A    between atoms: C_3  and  C_4
REMARK    4  A    between atoms: C_8  and  C_9
REMARK    5  A    between atoms: C_9  and  N_10
REMARK    6  A    between atoms: C_11  and  C_13
REMARK    7  A    between atoms: C_24  and  C_26
REMARK                            x       y       z     vdW  Elec       q    Type
REMARK                         _______ _______ _______ _____ _____    ______ ____
ROOT
ATOM      1  C   UNL     1      45.795   6.661  11.831  0.00  0.00    +0.000 A 
ATOM      2  C   UNL     1      44.846   7.596  11.417  0.00  0.00    +0.000 A 
ATOM      3  C   UNL     1      44.935   8.886  11.911  0.00  0.00    +0.000 A 
ATOM      4  N   UNL     1      45.890   9.299  12.773  0.00  0.00    +0.000 NA
ATOM      5  C   UNL     1      46.805   8.381  13.176  0.00  0.00    +0.000 A 
ATOM      6  C   UNL     1      46.778   7.061  12.742  0.00  0.00    +0.000 A 
ENDROOT
BRANCH   1   7
ATOM      7  C   UNL     1      45.796   5.252  11.305  0.00  0.00    +0.000 C 
BRANCH   7   9
ATOM      8  C   UNL     1      43.895   4.491  12.809  0.00  0.00    +0.000 C 
ATOM      9  N   UNL     1      44.602   4.434  11.536  0.00  0.00    +0.000 N 
ATOM     10  C   UNL     1      44.235   3.385  10.667  0.00  0.00    +0.000 C 
ATOM     11  O   UNL     1      43.252   2.673  10.888  0.00  0.00    +0.000 OA
BRANCH  10  12
ATOM     12  C   UNL     1      45.004   3.114   9.412  0.00  0.00    +0.000 A 
ATOM     13  C   UNL     1      45.136   4.130   8.477  0.00  0.00    +0.000 A 
ATOM     14  N   UNL     1      45.840   3.978   7.324  0.00  0.00    +0.000 NA
ATOM     15  C   UNL     1      46.383   2.753   7.134  0.00  0.00    +0.000 A 
ATOM     16  C   UNL     1      46.230   1.728   8.049  0.00  0.00    +0.000 A 
ATOM     17  N   UNL     1      45.544   1.882   9.204  0.00  0.00    +0.000 NA
ENDBRANCH  10  12
ENDBRANCH   7   9
ENDBRANCH   1   7
BRANCH   5  18
ATOM     18  C   UNL     1      47.859   8.830  14.158  0.00  0.00    +0.000 C 
BRANCH  18  19
ATOM     19  N   UNL     1      48.076   7.852  15.198  0.00  0.00    +0.000 N 
ATOM     20  C   UNL     1      49.249   7.157  15.324  0.00  0.00    +0.000 C 
ATOM     21  O   UNL     1      50.197   7.334  14.563  0.00  0.00    +0.000 OA
ATOM     22  H   UNL     1      47.239   7.519  15.666  0.00  0.00    +0.000 HD
BRANCH  20  23
ATOM     23  C   UNL     1      49.344   6.236  16.465  0.00  0.00    +0.000 A 
ATOM     24  C   UNL     1      50.306   6.454  17.442  0.00  0.00    +0.000 A 
ATOM     25  S   UNL     1      50.257   5.322  18.716  0.00  0.00    +0.000 S 
ATOM     26  C   UNL     1      48.980   4.469  17.982  0.00  0.00    +0.000 A 
ATOM     27  N   UNL     1      48.473   3.345  18.555  0.00  0.00    +0.000 NA
ATOM     28  C   UNL     1      47.530   2.780  17.875  0.00  0.00    +0.000 A 
ATOM     29  N   UNL     1      47.045   3.247  16.682  0.00  0.00    +0.000 N 
ATOM     30  C   UNL     1      47.489   4.403  16.092  0.00  0.00    +0.000 A 
ATOM     31  O   UNL     1      46.965   4.844  15.072  0.00  0.00    +0.000 OA
ATOM     32  C   UNL     1      48.580   5.059  16.796  0.00  0.00    +0.000 A 
ATOM     33  H   UNL     1      46.282   2.771  16.213  0.00  0.00    +0.000 HD
ENDBRANCH  20  23
ENDBRANCH  18  19
ENDBRANCH   5  18
TORSDOF 6
ENDMDL
MODEL 2
REMARK VINA RESULT:    -8.176      2.808      4.138
REMARK INTER + INTRA:         -11.861
REMARK INTER:                 -11.036
REMARK INTRA:                  -0.825
REMARK UNBOUND:                -0.817
REMARK  Name = 
REMARK  7 active torsions:
REMARK  status: ('A' for Active; 'I' for Inactive)
REMARK    1  A    between atoms: C_1  and  N_2
REMARK    2  A    between atoms: N_2  and  C_3
REMARK    3  A    between atoms: C_3  and  C_4
REMARK    4  A    between atoms: C_8  and  C_9
REMARK    5  A    between atoms: C_9  and  N_10
REMARK    6  A    between atoms: C_11  and  C_13
REMARK    7  A    between atoms: C_24  and  C_26
REMARK                            x       y       z     vdW  Elec       q    Type
REMARK                         _______ _______ _______ _____ _____    ______ ____
ROOT
ATOM      1  C   UNL     1      46.634   4.581  13.540  0.00  0.00    +0.000 A 
ATOM      2  C   UNL     1      47.335   5.778  13.396  0.00  0.00    +0.000 A 
ATOM      3  C   UNL     1      48.081   6.236  14.469  0.00  0.00    +0.000 A 
ATOM      4  N   UNL     1      48.175   5.592  15.651  0.00  0.00    +0.000 NA
ATOM      5  C   UNL     1      47.484   4.431  15.786  0.00  0.00    +0.000 A 
ATOM      6  C   UNL     1      46.698   3.909  14.766  0.00  0.00    +0.000 A 
ENDROOT
BRANCH   1   7
ATOM      7  C   UNL     1      45.838   3.992  12.408  0.00  0.00    +0.000 C 
BRANCH   7   9
ATOM      8  C   UNL     1      43.690   5.195  13.036  0.00  0.00    +0.000 C 
ATOM      9  N   UNL     1      44.594   4.663  12.023  0.00  0.00    +0.000 N 
ATOM     10  C   UNL     1      44.087   4.602  10.708  0.00  0.00    +0.000 C 
ATOM     11  O   UNL     1      43.018   5.135  10.399  0.00  0.00    +0.000 OA
BRANCH  10  12
ATOM     12  C   UNL     1      44.847   3.917   9.616  0.00  0.00    +0.000 A 
ATOM     13  C   UNL     1      45.542   4.692   8.698  0.00  0.00    +0.000 A 
ATOM     14  N   UNL     1      46.279   4.152   7.692  0.00  0.00    +0.000 NA
ATOM     15  C   UNL     1      46.269   2.801   7.627  0.00  0.00    +0.000 A 
ATOM     16  C   UNL     1      45.555   2.024   8.522  0.00  0.00    +0.000 A 
ATOM     17  N   UNL     1      44.834   2.559   9.533  0.00  0.00    +0.000 NA
ENDBRANCH  10  12
ENDBRANCH   7   9
ENDBRANCH   1   7
BRANCH   5  18
ATOM     18  C   UNL     1      47.566   3.719  17.114  0.00  0.00    +0.000 C 
BRANCH  18  19
ATOM     19  N   UNL     1      48.932   3.442  17.492  0.00  0.00    +0.000 N 
ATOM     20  C   UNL     1      49.662   2.429  16.931  0.00  0.00    +0.000 C 
ATOM     21  O   UNL     1      49.199   1.698  16.058  0.00  0.00    +0.000 OA
ATOM     22  H   UNL     1      49.237   3.859  18.366  0.00  0.00    +0.000 HD
BRANCH  20  23
ATOM     23  C   UNL     1      51.056   2.303  17.375  0.00  0.00    +0.000 A 
ATOM     24  C   UNL     1      51.614   1.042  17.535  0.00  0.00    +0.000 A 
ATOM     25  S   UNL     1      53.250   1.070  18.012  0.00  0.00    +0.000 S 
ATOM     26  C   UNL     1      53.259   2.771  18.072  0.00  0.00    +0.000 A 
ATOM     27  N   UNL     1      54.375   3.449  18.453  0.00  0.00    +0.000 NA
ATOM     28  C   UNL     1      54.233   4.732  18.484  0.00  0.00    +0.000 A 
ATOM     29  N   UNL     1      53.080   5.395  18.158  0.00  0.00    +0.000 N 
ATOM     30  C   UNL     1      51.946   4.759  17.720  0.00  0.00    +0.000 A 
ATOM     31  O   UNL     1      50.961   5.390  17.343  0.00  0.00    +0.000 OA
ATOM     32  C   UNL     1      52.038   3.307  17.703  0.00  0.00    +0.000 A 
ATOM     33  H   UNL     1      53.043   6.409  18.176  0.00  0.00    +0.000 HD
ENDBRANCH  20  23
ENDBRANCH  18  19
ENDBRANCH   5  18
TORSDOF 6
ENDMDL
MODEL 3
REMARK VINA RESULT:    -8.151      2.297      3.105
REMARK INTER + INTRA:         -11.826
REMARK INTER:                 -11.959
REMARK INTRA:                   0.133
REMARK UNBOUND:                -0.817
REMARK  Name = 
REMARK  7 active torsions:
REMARK  status: ('A' for Active; 'I' for Inactive)
REMARK    1  A    between atoms: C_1  and  N_2
REMARK    2  A    between atoms: N_2  and  C_3
REMARK    3  A    between atoms: C_3  and  C_4
REMARK    4  A    between atoms: C_8  and  C_9
REMARK    5  A    between atoms: C_9  and  N_10
REMARK    6  A    between atoms: C_11  and  C_13
REMARK    7  A    between atoms: C_24  and  C_26
REMARK                            x       y       z     vdW  Elec       q    Type
REMARK                         _______ _______ _______ _____ _____    ______ ____
ROOT
ATOM      1  C   UNL     1      46.064   5.836  12.360  0.00  0.00    +0.000 A 
ATOM      2  C   UNL     1      47.207   6.590  12.090  0.00  0.00    +0.000 A 
ATOM      3  C   UNL     1      48.252   6.546  12.997  0.00  0.00    +0.000 A 
ATOM      4  N   UNL     1      48.236   5.813  14.131  0.00  0.00    +0.000 NA
ATOM      5  C   UNL     1      47.118   5.088  14.389  0.00  0.00    +0.000 A 
ATOM      6  C   UNL     1      46.017   5.089  13.542  0.00  0.00    +0.000 A 
ENDROOT
BRANCH   1   7
ATOM      7  C   UNL     1      44.904   5.793  11.403  0.00  0.00    +0.000 C 
BRANCH   7   9
ATOM      8  C   UNL     1      43.039   4.873  12.863  0.00  0.00    +0.000 C 
ATOM      9  N   UNL     1      43.848   4.809  11.651  0.00  0.00    +0.000 N 
ATOM     10  C   UNL     1      43.732   3.629  10.888  0.00  0.00    +0.000 C 
ATOM     11  O   UNL     1      42.865   2.783  11.127  0.00  0.00    +0.000 OA
BRANCH  10  12
ATOM     12  C   UNL     1      44.634   3.368   9.724  0.00  0.00    +0.000 A 
ATOM     13  C   UNL     1      44.970   4.424   8.889  0.00  0.00    +0.000 A 
ATOM     14  N   UNL     1      45.805   4.280   7.825  0.00  0.00    +0.000 NA
ATOM     15  C   UNL     1      46.267   3.026   7.616  0.00  0.00    +0.000 A 
ATOM     16  C   UNL     1      45.912   1.964   8.428  0.00  0.00    +0.000 A 
ATOM     17  N   UNL     1      45.095   2.108   9.496  0.00  0.00    +0.000 NA
ENDBRANCH  10  12
ENDBRANCH   7   9
ENDBRANCH   1   7
BRANCH   5  18
ATOM     18  C   UNL     1      47.084   4.287  15.668  0.00  0.00    +0.000 C 
BRANCH  18  19
ATOM     19  N   UNL     1      48.404   4.113  16.228  0.00  0.00    +0.000 N 
ATOM     20  C   UNL     1      48.733   4.537  17.487  0.00  0.00    +0.000 C 
ATOM     21  O   UNL     1      47.915   5.081  18.226  0.00  0.00    +0.000 OA
ATOM     22  H   UNL     1      49.138   3.902  15.559  0.00  0.00    +0.000 HD
BRANCH  20  23
ATOM     23  C   UNL     1      50.098   4.241  17.942  0.00  0.00    +0.000 A 
ATOM     24  C   UNL     1      50.803   5.197  18.659  0.00  0.00    +0.000 A 
ATOM     25  S   UNL     1      52.353   4.683  19.149  0.00  0.00    +0.000 S 
ATOM     26  C   UNL     1      52.157   3.179  18.375  0.00  0.00    +0.000 A 
ATOM     27  N   UNL     1      53.156   2.256  18.384  0.00  0.00    +0.000 NA
ATOM     28  C   UNL     1      52.885   1.173  17.733  0.00  0.00    +0.000 A 
ATOM     29  N   UNL     1      51.703   0.930  17.085  0.00  0.00    +0.000 N 
ATOM     30  C   UNL     1      50.649   1.809  17.091  0.00  0.00    +0.000 A 
ATOM     31  O   UNL     1      49.569   1.518  16.582  0.00  0.00    +0.000 OA
ATOM     32  C   UNL     1      50.914   3.064  17.778  0.00  0.00    +0.000 A 
ATOM     33  H   UNL     1      51.544   0.046  16.615  0.00  0.00    +0.000 HD
ENDBRANCH  20  23
ENDBRANCH  18  19
ENDBRANCH   5  18
TORSDOF 6
ENDMDL
MODEL 4
REMARK VINA RESULT:    -8.054      2.957      7.608
REMARK INTER + INTRA:         -11.695
REMARK INTER:                 -10.619
REMARK INTRA:                  -1.076
REMARK UNBOUND:                -0.817
REMARK  Name = 
REMARK  7 active torsions:
REMARK  status: ('A' for Active; 'I' for Inactive)
REMARK    1  A    between atoms: C_1  and  N_2
REMARK    2  A    between atoms: N_2  and  C_3
REMARK    3  A    between atoms: C_3  and  C_4
REMARK    4  A    between atoms: C_8  and  C_9
REMARK    5  A    between atoms: C_9  and  N_10
REMARK    6  A    between atoms: C_11  and  C_13
REMARK    7  A    between atoms: C_24  and  C_26
REMARK                            x       y       z     vdW  Elec       q    Type
REMARK                         _______ _______ _______ _____ _____    ______ ____
ROOT
ATOM      1  C   UNL     1      48.867   5.579  18.547  0.00  0.00    +0.000 A 
ATOM      2  C   UNL     1      48.654   6.441  19.623  0.00  0.00    +0.000 A 
ATOM      3  C   UNL     1      48.545   7.797  19.367  0.00  0.00    +0.000 A 
ATOM      4  N   UNL     1      48.629   8.341  18.134  0.00  0.00    +0.000 NA
ATOM      5  C   UNL     1      48.843   7.496  17.093  0.00  0.00    +0.000 A 
ATOM      6  C   UNL     1      48.982   6.124  17.264  0.00  0.00    +0.000 A 
ENDROOT
BRANCH   1   7
ATOM      7  C   UNL     1      48.951   4.089  18.736  0.00  0.00    +0.000 C 
BRANCH   7   9
ATOM      8  C   UNL     1      47.239   3.014  17.197  0.00  0.00    +0.000 C 
ATOM      9  N   UNL     1      48.625   3.235  17.591  0.00  0.00    +0.000 N 
ATOM     10  C   UNL     1      49.584   2.394  16.989  0.00  0.00    +0.000 C 
ATOM     11  O   UNL     1      49.294   1.646  16.051  0.00  0.00    +0.000 OA
BRANCH  10  12
ATOM     12  C   UNL     1      51.011   2.402  17.437  0.00  0.00    +0.000 A 
ATOM     13  C   UNL     1      51.604   1.201  17.800  0.00  0.00    +0.000 A 
ATOM     14  N   UNL     1      52.903   1.113  18.192  0.00  0.00    +0.000 NA
ATOM     15  C   UNL     1      53.575   2.286  18.234  0.00  0.00    +0.000 A 
ATOM     16  C   UNL     1      52.981   3.490  17.902  0.00  0.00    +0.000 A 
ATOM     17  N   UNL     1      51.695   3.577  17.496  0.00  0.00    +0.000 NA
ENDBRANCH  10  12
ENDBRANCH   7   9
ENDBRANCH   1   7
BRANCH   5  18
ATOM     18  C   UNL     1      48.963   8.100  15.716  0.00  0.00    +0.000 C 
BRANCH  18  19
ATOM     19  N   UNL     1      47.872   7.701  14.857  0.00  0.00    +0.000 N 
ATOM     20  C   UNL     1      48.055   6.929  13.742  0.00  0.00    +0.000 C 
ATOM     21  O   UNL     1      49.164   6.516  13.410  0.00  0.00    +0.000 OA
ATOM     22  H   UNL     1      47.012   8.228  14.971  0.00  0.00    +0.000 HD
BRANCH  20  23
ATOM     23  C   UNL     1      46.845   6.556  12.998  0.00  0.00    +0.000 A 
ATOM     24  C   UNL     1      46.097   7.541  12.368  0.00  0.00    +0.000 A 
ATOM     25  S   UNL     1      44.750   6.939  11.514  0.00  0.00    +0.000 S 
ATOM     26  C   UNL     1      45.089   5.343  11.998  0.00  0.00    +0.000 A 
ATOM     27  N   UNL     1      44.279   4.315  11.626  0.00  0.00    +0.000 NA
ATOM     28  C   UNL     1      44.635   3.163  12.089  0.00  0.00    +0.000 A 
ATOM     29  N   UNL     1      45.733   2.948  12.879  0.00  0.00    +0.000 N 
ATOM     30  C   UNL     1      46.607   3.943  13.237  0.00  0.00    +0.000 A 
ATOM     31  O   UNL     1      47.634   3.698  13.866  0.00  0.00    +0.000 OA
ATOM     32  C   UNL     1      46.231   5.270  12.776  0.00  0.00    +0.000 A 
ATOM     33  H   UNL     1      45.973   2.011  13.186  0.00  0.00    +0.000 HD
ENDBRANCH  20  23
ENDBRANCH  18  19
ENDBRANCH   5  18
TORSDOF 6
ENDMDL
MODEL 5
REMARK VINA RESULT:    -7.911      2.139      3.151
REMARK INTER + INTRA:         -11.502
REMARK INTER:                 -11.401
REMARK INTRA:                  -0.101
REMARK UNBOUND:                -0.817
REMARK  Name = 
REMARK  7 active torsions:
REMARK  status: ('A' for Active; 'I' for Inactive)
REMARK    1  A    between atoms: C_1  and  N_2
REMARK    2  A    between atoms: N_2  and  C_3
REMARK    3  A    between atoms: C_3  and  C_4
REMARK    4  A    between atoms: C_8  and  C_9
REMARK    5  A    between atoms: C_9  and  N_10
REMARK    6  A    between atoms: C_11  and  C_13
REMARK    7  A    between atoms: C_24  and  C_26
REMARK                            x       y       z     vdW  Elec       q    Type
REMARK                         _______ _______ _______ _____ _____    ______ ____
ROOT
ATOM      1  C   UNL     1      46.104   5.982  11.952  0.00  0.00    +0.000 A 
ATOM      2  C   UNL     1      47.115   6.931  11.796  0.00  0.00    +0.000 A 
ATOM      3  C   UNL     1      48.207   6.873  12.644  0.00  0.00    +0.000 A 
ATOM      4  N   UNL     1      48.358   5.949  13.617  0.00  0.00    +0.000 NA
ATOM      5  C   UNL     1      47.367   5.033  13.766  0.00  0.00    +0.000 A 
ATOM      6  C   UNL     1      46.229   5.030  12.969  0.00  0.00    +0.000 A 
ENDROOT
BRANCH   1   7
ATOM      7  C   UNL     1      44.907   5.948  11.041  0.00  0.00    +0.000 C 
BRANCH   7   9
ATOM      8  C   UNL     1      42.996   5.180  12.529  0.00  0.00    +0.000 C 
ATOM      9  N   UNL     1      43.837   4.997  11.352  0.00  0.00    +0.000 N 
ATOM     10  C   UNL     1      43.732   3.750  10.702  0.00  0.00    +0.000 C 
ATOM     11  O   UNL     1      42.853   2.936  10.996  0.00  0.00    +0.000 OA
BRANCH  10  12
ATOM     12  C   UNL     1      44.664   3.375   9.593  0.00  0.00    +0.000 A 
ATOM     13  C   UNL     1      45.063   4.355   8.695  0.00  0.00    +0.000 A 
ATOM     14  N   UNL     1      45.928   4.106   7.675  0.00  0.00    +0.000 NA
ATOM     15  C   UNL     1      46.354   2.827   7.576  0.00  0.00    +0.000 A 
ATOM     16  C   UNL     1      45.936   1.839   8.450  0.00  0.00    +0.000 A 
ATOM     17  N   UNL     1      45.089   2.088   9.474  0.00  0.00    +0.000 NA
ENDBRANCH  10  12
ENDBRANCH   7   9
ENDBRANCH   1   7
BRANCH   5  18
ATOM     18  C   UNL     1      47.519   4.012  14.867  0.00  0.00    +0.000 C 
BRANCH  18  19
ATOM     19  N   UNL     1      47.875   4.628  16.125  0.00  0.00    +0.000 N 
ATOM     20  C   UNL     1      47.307   4.259  17.314  0.00  0.00    +0.000 C 
ATOM     21  O   UNL     1      46.464   3.368  17.385  0.00  0.00    +0.000 OA
ATOM     22  H   UNL     1      48.368   5.513  16.053  0.00  0.00    +0.000 HD
BRANCH  20  23
ATOM     23  C   UNL     1      47.810   4.935  18.517  0.00  0.00    +0.000 A 
ATOM     24  C   UNL     1      46.980   5.803  19.213  0.00  0.00    +0.000 A 
ATOM     25  S   UNL     1      47.699   6.471  20.607  0.00  0.00    +0.000 S 
ATOM     26  C   UNL     1      49.165   5.661  20.303  0.00  0.00    +0.000 A 
ATOM     27  N   UNL     1      50.237   5.830  21.124  0.00  0.00    +0.000 NA
ATOM     28  C   UNL     1      51.294   5.182  20.759  0.00  0.00    +0.000 A 
ATOM     29  N   UNL     1      51.368   4.375  19.655  0.00  0.00    +0.000 N 
ATOM     30  C   UNL     1      50.301   4.134  18.827  0.00  0.00    +0.000 A 
ATOM     31  O   UNL     1      50.376   3.329  17.902  0.00  0.00    +0.000 OA
ATOM     32  C   UNL     1      49.094   4.871  19.170  0.00  0.00    +0.000 A 
ATOM     33  H   UNL     1      52.222   3.871  19.440  0.00  0.00    +0.000 HD
ENDBRANCH  20  23
ENDBRANCH  18  19
ENDBRANCH   5  18
TORSDOF 6
ENDMDL
MODEL 6
REMARK VINA RESULT:    -7.600      2.786      3.780
REMARK INTER + INTRA:         -11.082
REMARK INTER:                 -10.265
REMARK INTRA:                  -0.817
REMARK UNBOUND:                -0.817
REMARK  Name = 
REMARK  7 active torsions:
REMARK  status: ('A' for Active; 'I' for Inactive)
REMARK    1  A    between atoms: C_1  and  N_2
REMARK    2  A    between atoms: N_2  and  C_3
REMARK    3  A    between atoms: C_3  and  C_4
REMARK    4  A    between atoms: C_8  and  C_9
REMARK    5  A    between atoms: C_9  and  N_10
REMARK    6  A    between atoms: C_11  and  C_13
REMARK    7  A    between atoms: C_24  and  C_26
REMARK                            x       y       z     vdW  Elec       q    Type
REMARK                         _______ _______ _______ _____ _____    ______ ____
ROOT
ATOM      1  C   UNL     1      47.035   5.732  13.020  0.00  0.00    +0.000 A 
ATOM      2  C   UNL     1      46.632   4.458  13.423  0.00  0.00    +0.000 A 
ATOM      3  C   UNL     1      47.046   3.999  14.662  0.00  0.00    +0.000 A 
ATOM      4  N   UNL     1      47.816   4.713  15.511  0.00  0.00    +0.000 NA
ATOM      5  C   UNL     1      48.209   5.948  15.108  0.00  0.00    +0.000 A 
ATOM      6  C   UNL     1      47.854   6.478  13.874  0.00  0.00    +0.000 A 
ENDROOT
BRANCH   1   7
ATOM      7  C   UNL     1      46.590   6.321  11.709  0.00  0.00    +0.000 C 
BRANCH   7   9
ATOM      8  C   UNL     1      45.037   8.234  12.328  0.00  0.00    +0.000 C 
ATOM      9  N   UNL     1      45.273   6.961  11.658  0.00  0.00    +0.000 N 
ATOM     10  C   UNL     1      44.128   6.279  11.197  0.00  0.00    +0.000 C 
ATOM     11  O   UNL     1      43.014   6.810  11.194  0.00  0.00    +0.000 OA
BRANCH  10  12
ATOM     12  C   UNL     1      44.221   4.889  10.652  0.00  0.00    +0.000 A 
ATOM     13  C   UNL     1      43.588   3.860  11.334  0.00  0.00    +0.000 A 
ATOM     14  N   UNL     1      43.599   2.573  10.895  0.00  0.00    +0.000 NA
ATOM     15  C   UNL     1      44.296   2.356   9.757  0.00  0.00    +0.000 A 
ATOM     16  C   UNL     1      44.954   3.372   9.088  0.00  0.00    +0.000 A 
ATOM     17  N   UNL     1      44.930   4.655   9.515  0.00  0.00    +0.000 NA
ENDBRANCH  10  12
ENDBRANCH   7   9
ENDBRANCH   1   7
BRANCH   5  18
ATOM     18  C   UNL     1      49.091   6.740  16.042  0.00  0.00    +0.000 C 
BRANCH  18  19
ATOM     19  N   UNL     1      50.177   5.942  16.561  0.00  0.00    +0.000 N 
ATOM     20  C   UNL     1      50.168   5.416  17.824  0.00  0.00    +0.000 C 
ATOM     21  O   UNL     1      49.223   5.581  18.593  0.00  0.00    +0.000 OA
ATOM     22  H   UNL     1      51.051   6.007  16.048  0.00  0.00    +0.000 HD
BRANCH  20  23
ATOM     23  C   UNL     1      51.316   4.578  18.194  0.00  0.00    +0.000 A 
ATOM     24  C   UNL     1      52.370   5.135  18.906  0.00  0.00    +0.000 A 
ATOM     25  S   UNL     1      53.602   4.022  19.292  0.00  0.00    +0.000 S 
ATOM     26  C   UNL     1      52.795   2.765  18.476  0.00  0.00    +0.000 A 
ATOM     27  N   UNL     1      53.342   1.522  18.397  0.00  0.00    +0.000 NA
ATOM     28  C   UNL     1      52.640   0.673  17.722  0.00  0.00    +0.000 A 
ATOM     29  N   UNL     1      51.436   0.955  17.131  0.00  0.00    +0.000 N 
ATOM     30  C   UNL     1      50.822   2.178  17.226  0.00  0.00    +0.000 A 
ATOM     31  O   UNL     1      49.698   2.368  16.766  0.00  0.00    +0.000 OA
ATOM     32  C   UNL     1      51.589   3.185  17.943  0.00  0.00    +0.000 A 
ATOM     33  H   UNL     1      50.921   0.234  16.638  0.00  0.00    +0.000 HD
ENDBRANCH  20  23
ENDBRANCH  18  19
ENDBRANCH   5  18
TORSDOF 6
ENDMDL
MODEL 7
REMARK VINA RESULT:    -7.505      2.246      3.345
REMARK INTER + INTRA:         -10.954
REMARK INTER:                 -10.876
REMARK INTRA:                  -0.078
REMARK UNBOUND:                -0.817
REMARK  Name = 
REMARK  7 active torsions:
REMARK  status: ('A' for Active; 'I' for Inactive)
REMARK    1  A    between atoms: C_1  and  N_2
REMARK    2  A    between atoms: N_2  and  C_3
REMARK    3  A    between atoms: C_3  and  C_4
REMARK    4  A    between atoms: C_8  and  C_9
REMARK    5  A    between atoms: C_9  and  N_10
REMARK    6  A    between atoms: C_11  and  C_13
REMARK    7  A    between atoms: C_24  and  C_26
REMARK                            x       y       z     vdW  Elec       q    Type
REMARK                         _______ _______ _______ _____ _____    ______ ____
ROOT
ATOM      1  C   UNL     1      46.145   5.910  12.171  0.00  0.00    +0.000 A 
ATOM      2  C   UNL     1      47.202   6.798  11.967  0.00  0.00    +0.000 A 
ATOM      3  C   UNL     1      48.248   6.794  12.873  0.00  0.00    +0.000 A 
ATOM      4  N   UNL     1      48.312   5.978  13.947  0.00  0.00    +0.000 NA
ATOM      5  C   UNL     1      47.277   5.122  14.142  0.00  0.00    +0.000 A 
ATOM      6  C   UNL     1      46.180   5.073  13.291  0.00  0.00    +0.000 A 
ENDROOT
BRANCH   1   7
ATOM      7  C   UNL     1      44.993   5.819  11.208  0.00  0.00    +0.000 C 
BRANCH   7   9
ATOM      8  C   UNL     1      43.126   4.979  12.712  0.00  0.00    +0.000 C 
ATOM      9  N   UNL     1      43.929   4.857  11.501  0.00  0.00    +0.000 N 
ATOM     10  C   UNL     1      43.798   3.646  10.789  0.00  0.00    +0.000 C 
ATOM     11  O   UNL     1      42.925   2.820  11.066  0.00  0.00    +0.000 OA
BRANCH  10  12
ATOM     12  C   UNL     1      44.693   3.328   9.633  0.00  0.00    +0.000 A 
ATOM     13  C   UNL     1      45.035   4.344   8.753  0.00  0.00    +0.000 A 
ATOM     14  N   UNL     1      45.864   4.148   7.693  0.00  0.00    +0.000 NA
ATOM     15  C   UNL     1      46.313   2.882   7.535  0.00  0.00    +0.000 A 
ATOM     16  C   UNL     1      45.952   1.859   8.392  0.00  0.00    +0.000 A 
ATOM     17  N   UNL     1      45.141   2.055   9.456  0.00  0.00    +0.000 NA
ENDBRANCH  10  12
ENDBRANCH   7   9
ENDBRANCH   1   7
BRANCH   5  18
ATOM     18  C   UNL     1      47.331   4.225  15.355  0.00  0.00    +0.000 C 
BRANCH  18  19
ATOM     19  N   UNL     1      47.308   4.982  16.585  0.00  0.00    +0.000 N 
ATOM     20  C   UNL     1      48.360   5.000  17.459  0.00  0.00    +0.000 C 
ATOM     21  O   UNL     1      49.399   4.379  17.243  0.00  0.00    +0.000 OA
ATOM     22  H   UNL     1      46.390   5.287  16.893  0.00  0.00    +0.000 HD
BRANCH  20  23
ATOM     23  C   UNL     1      48.215   5.860  18.641  0.00  0.00    +0.000 A 
ATOM     24  C   UNL     1      48.074   5.283  19.896  0.00  0.00    +0.000 A 
ATOM     25  S   UNL     1      47.960   6.417  21.164  0.00  0.00    +0.000 S 
ATOM     26  C   UNL     1      48.044   7.723  20.075  0.00  0.00    +0.000 A 
ATOM     27  N   UNL     1      47.966   9.006  20.520  0.00  0.00    +0.000 NA
ATOM     28  C   UNL     1      48.011   9.896  19.585  0.00  0.00    +0.000 A 
ATOM     29  N   UNL     1      48.138   9.617  18.250  0.00  0.00    +0.000 N 
ATOM     30  C   UNL     1      48.270   8.343  17.759  0.00  0.00    +0.000 A 
ATOM     31  O   UNL     1      48.479   8.133  16.566  0.00  0.00    +0.000 OA
ATOM     32  C   UNL     1      48.186   7.296  18.767  0.00  0.00    +0.000 A 
ATOM     33  H   UNL     1      48.195  10.366  17.568  0.00  0.00    +0.000 HD
ENDBRANCH  20  23
ENDBRANCH  18  19
ENDBRANCH   5  18
TORSDOF 6
ENDMDL
MODEL 8
REMARK VINA RESULT:    -7.415      2.767      7.502
REMARK INTER + INTRA:         -10.832
REMARK INTER:                  -9.625
REMARK INTRA:                  -1.207
REMARK UNBOUND:                -0.817
REMARK  Name = 
REMARK  7 active torsions:
REMARK  status: ('A' for Active; 'I' for Inactive)
REMARK    1  A    between atoms: C_1  and  N_2
REMARK    2  A    between atoms: N_2  and  C_3
REMARK    3  A    between atoms: C_3  and  C_4
REMARK    4  A    between atoms: C_8  and  C_9
REMARK    5  A    between atoms: C_9  and  N_10
REMARK    6  A    between atoms: C_11  and  C_13
REMARK    7  A    between atoms: C_24  and  C_26
REMARK                            x       y       z     vdW  Elec       q    Type
REMARK                         _______ _______ _______ _____ _____    ______ ____
ROOT
ATOM      1  C   UNL     1      50.073   7.566  14.517  0.00  0.00    +0.000 A 
ATOM      2  C   UNL     1      51.160   8.039  13.781  0.00  0.00    +0.000 A 
ATOM      3  C   UNL     1      50.918   8.606  12.542  0.00  0.00    +0.000 A 
ATOM      4  N   UNL     1      49.688   8.733  11.999  0.00  0.00    +0.000 NA
ATOM      5  C   UNL     1      48.637   8.264  12.718  0.00  0.00    +0.000 A 
ATOM      6  C   UNL     1      48.793   7.666  13.962  0.00  0.00    +0.000 A 
ENDROOT
BRANCH   1   7
ATOM      7  C   UNL     1      50.247   6.979  15.891  0.00  0.00    +0.000 C 
BRANCH   7   9
ATOM      8  C   UNL     1      49.285   8.706  17.487  0.00  0.00    +0.000 C 
ATOM      9  N   UNL     1      49.283   7.360  16.926  0.00  0.00    +0.000 N 
ATOM     10  C   UNL     1      48.498   6.406  17.606  0.00  0.00    +0.000 C 
ATOM     11  O   UNL     1      47.717   6.728  18.505  0.00  0.00    +0.000 OA
BRANCH  10  12
ATOM     12  C   UNL     1      48.550   4.956  17.237  0.00  0.00    +0.000 A 
ATOM     13  C   UNL     1      47.686   4.485  16.258  0.00  0.00    +0.000 A 
ATOM     14  N   UNL     1      47.685   3.190  15.843  0.00  0.00    +0.000 NA
ATOM     15  C   UNL     1      48.568   2.380  16.472  0.00  0.00    +0.000 A 
ATOM     16  C   UNL     1      49.411   2.838  17.468  0.00  0.00    +0.000 A 
ATOM     17  N   UNL     1      49.424   4.129  17.870  0.00  0.00    +0.000 NA
ENDBRANCH  10  12
ENDBRANCH   7   9
ENDBRANCH   1   7
BRANCH   5  18
ATOM     18  C   UNL     1      47.263   8.382  12.106  0.00  0.00    +0.000 C 
BRANCH  18  19
ATOM     19  N   UNL     1      46.596   7.102  12.033  0.00  0.00    +0.000 N 
ATOM     20  C   UNL     1      45.301   6.968  11.612  0.00  0.00    +0.000 C 
ATOM     21  O   UNL     1      44.628   7.933  11.255  0.00  0.00    +0.000 OA
ATOM     22  H   UNL     1      47.039   6.349  12.550  0.00  0.00    +0.000 HD
BRANCH  20  23
ATOM     23  C   UNL     1      44.775   5.599  11.537  0.00  0.00    +0.000 A 
ATOM     24  C   UNL     1      44.058   5.081  12.607  0.00  0.00    +0.000 A 
ATOM     25  S   UNL     1      43.482   3.498  12.346  0.00  0.00    +0.000 S 
ATOM     26  C   UNL     1      44.213   3.428  10.810  0.00  0.00    +0.000 A 
ATOM     27  N   UNL     1      44.129   2.304  10.049  0.00  0.00    +0.000 NA
ATOM     28  C   UNL     1      44.755   2.377   8.921  0.00  0.00    +0.000 A 
ATOM     29  N   UNL     1      45.448   3.476   8.486  0.00  0.00    +0.000 N 
ATOM     30  C   UNL     1      45.519   4.648   9.195  0.00  0.00    +0.000 A 
ATOM     31  O   UNL     1      46.066   5.646   8.732  0.00  0.00    +0.000 OA
ATOM     32  C   UNL     1      44.862   4.608  10.493  0.00  0.00    +0.000 A 
ATOM     33  H   UNL     1      45.895   3.478   7.576  0.00  0.00    +0.000 HD
ENDBRANCH  20  23
ENDBRANCH  18  19
ENDBRANCH   5  18
TORSDOF 6
ENDMDL
MODEL 9
REMARK VINA RESULT:    -7.303      3.218      8.484
REMARK INTER + INTRA:         -10.681
REMARK INTER:                  -9.295
REMARK INTRA:                  -1.386
REMARK UNBOUND:                -0.817
REMARK  Name = 
REMARK  7 active torsions:
REMARK  status: ('A' for Active; 'I' for Inactive)
REMARK    1  A    between atoms: C_1  and  N_2
REMARK    2  A    between atoms: N_2  and  C_3
REMARK    3  A    between atoms: C_3  and  C_4
REMARK    4  A    between atoms: C_8  and  C_9
REMARK    5  A    between atoms: C_9  and  N_10
REMARK    6  A    between atoms: C_11  and  C_13
REMARK    7  A    between atoms: C_24  and  C_26
REMARK                            x       y       z     vdW  Elec       q    Type
REMARK                         _______ _______ _______ _____ _____    ______ ____
ROOT
ATOM      1  C   UNL     1      50.622   5.144  17.703  0.00  0.00    +0.000 A 
ATOM      2  C   UNL     1      51.448   4.019  17.706  0.00  0.00    +0.000 A 
ATOM      3  C   UNL     1      50.888   2.793  17.390  0.00  0.00    +0.000 A 
ATOM      4  N   UNL     1      49.587   2.616  17.075  0.00  0.00    +0.000 NA
ATOM      5  C   UNL     1      48.789   3.715  17.081  0.00  0.00    +0.000 A 
ATOM      6  C   UNL     1      49.266   4.980  17.404  0.00  0.00    +0.000 A 
ENDROOT
BRANCH   1   7
ATOM      7  C   UNL     1      51.162   6.518  17.990  0.00  0.00    +0.000 C 
BRANCH   7   9
ATOM      8  C   UNL     1      50.532   6.716  20.443  0.00  0.00    +0.000 C 
ATOM      9  N   UNL     1      50.565   7.271  19.096  0.00  0.00    +0.000 N 
ATOM     10  C   UNL     1      49.780   8.423  18.879  0.00  0.00    +0.000 C 
ATOM     11  O   UNL     1      49.246   9.030  19.811  0.00  0.00    +0.000 OA
BRANCH  10  12
ATOM     12  C   UNL     1      49.591   8.984  17.505  0.00  0.00    +0.000 A 
ATOM     13  C   UNL     1      48.447   8.647  16.797  0.00  0.00    +0.000 A 
ATOM     14  N   UNL     1      48.183   9.133  15.555  0.00  0.00    +0.000 NA
ATOM     15  C   UNL     1      49.130   9.949  15.039  0.00  0.00    +0.000 A 
ATOM     16  C   UNL     1      50.287  10.265  15.728  0.00  0.00    +0.000 A 
ATOM     17  N   UNL     1      50.543   9.796  16.970  0.00  0.00    +0.000 NA
ENDBRANCH  10  12
ENDBRANCH   7   9
ENDBRANCH   1   7
BRANCH   5  18
ATOM     18  C   UNL     1      47.329   3.520  16.755  0.00  0.00    +0.000 C 
BRANCH  18  19
ATOM     19  N   UNL     1      46.863   4.482  15.782  0.00  0.00    +0.000 N 
ATOM     20  C   UNL     1      46.862   4.229  14.437  0.00  0.00    +0.000 C 
ATOM     21  O   UNL     1      47.246   3.157  13.975  0.00  0.00    +0.000 OA
ATOM     22  H   UNL     1      46.784   5.437  16.116  0.00  0.00    +0.000 HD
BRANCH  20  23
ATOM     23  C   UNL     1      46.306   5.280  13.574  0.00  0.00    +0.000 A 
ATOM     24  C   UNL     1      47.037   6.439  13.349  0.00  0.00    +0.000 A 
ATOM     25  S   UNL     1      46.272   7.537  12.293  0.00  0.00    +0.000 S 
ATOM     26  C   UNL     1      44.913   6.525  12.137  0.00  0.00    +0.000 A 
ATOM     27  N   UNL     1      43.849   6.900  11.378  0.00  0.00    +0.000 NA
ATOM     28  C   UNL     1      42.874   6.052  11.373  0.00  0.00    +0.000 A 
ATOM     29  N   UNL     1      42.875   4.861  12.050  0.00  0.00    +0.000 N 
ATOM     30  C   UNL     1      43.944   4.418  12.787  0.00  0.00    +0.000 A 
ATOM     31  O   UNL     1      43.949   3.302  13.302  0.00  0.00    +0.000 OA
ATOM     32  C   UNL     1      45.057   5.353  12.859  0.00  0.00    +0.000 A 
ATOM     33  H   UNL     1      42.087   4.227  11.982  0.00  0.00    +0.000 HD
ENDBRANCH  20  23
ENDBRANCH  18  19
ENDBRANCH   5  18
TORSDOF 6
ENDMDL
