MODEL 1
REMARK VINA RESULT:    -9.032      0.000      0.000
REMARK INTER + INTRA:         -15.184
REMARK INTER:                 -14.048
REMARK INTRA:                  -1.136
REMARK UNBOUND:                -1.136
REMARK  Name = 
REMARK  10 active torsions:
REMARK  status: ('A' for Active; 'I' for Inactive)
REMARK    1  A    between atoms: C_2  and  C_3
REMARK    2  A    between atoms: C_2  and  C_22
REMARK    3  A    between atoms: C_3  and  O_4
REMARK    4  A    between atoms: O_4  and  C_5
REMARK    5  A    between atoms: C_9  and  C_10
REMARK    6  A    between atoms: C_10  and  O_11
REMARK    7  A    between atoms: O_11  and  C_12
REMARK    8  A    between atoms: C_12  and  C_13
REMARK    9  A    between atoms: C_16  and  C_17
REMARK   10  A    between atoms: C_17  and  O_18
REMARK                            x       y       z     vdW  Elec       q    Type
REMARK                         _______ _______ _______ _____ _____    ______ ____
ROOT
ATOM      1  C   UNL     1      46.963   5.472  13.662  0.00  0.00    +0.000 A 
ATOM      2  C   UNL     1      47.553   6.461  12.885  0.00  0.00    +0.000 A 
ATOM      3  N   UNL     1      46.978   7.005  11.790  0.00  0.00    +0.000 NA
ATOM      4  C   UNL     1      45.749   6.545  11.464  0.00  0.00    +0.000 A 
ATOM      5  C   UNL     1      45.059   5.570  12.180  0.00  0.00    +0.000 A 
ATOM      6  C   UNL     1      45.691   5.029  13.307  0.00  0.00    +0.000 A 
ENDROOT
BRANCH   1   7
ATOM      7  O   UNL     1      47.660   5.049  14.754  0.00  0.00    +0.000 OA
BRANCH   7   8
ATOM      8  C   UNL     1      47.391   3.716  15.175  0.00  0.00    +0.000 C 
BRANCH   8  10
ATOM      9  O   UNL     1      46.502   3.157  17.343  0.00  0.00    +0.000 OA
ATOM     10  C   UNL     1      47.431   3.639  16.702  0.00  0.00    +0.000 C 
BRANCH  10  11
ATOM     11  C   UNL     1      48.605   4.202  17.384  0.00  0.00    +0.000 A 
ATOM     12  C   UNL     1      48.610   5.446  17.996  0.00  0.00    +0.000 A 
ATOM     13  S   UNL     1      50.090   5.805  18.770  0.00  0.00    +0.000 S 
ATOM     14  C   UNL     1      50.767   4.316  18.298  0.00  0.00    +0.000 A 
ATOM     15  N   UNL     1      52.043   3.985  18.634  0.00  0.00    +0.000 NA
ATOM     16  C   UNL     1      52.413   2.820  18.222  0.00  0.00    +0.000 A 
ATOM     17  N   UNL     1      51.630   1.959  17.503  0.00  0.00    +0.000 N 
ATOM     18  C   UNL     1      50.360   2.272  17.071  0.00  0.00    +0.000 A 
ATOM     19  O   UNL     1      49.770   1.533  16.299  0.00  0.00    +0.000 OA
ATOM     20  C   UNL     1      49.880   3.555  17.560  0.00  0.00    +0.000 A 
ATOM     21  H   UNL     1      51.987   1.075  17.169  0.00  0.00    +0.000 HD
ENDBRANCH  10  11
ENDBRANCH   8  10
ENDBRANCH   7   8
ENDBRANCH   1   7
BRANCH   5  22
ATOM     22  C   UNL     1      43.675   5.168  11.759  0.00  0.00    +0.000 C 
BRANCH  22  23
ATOM     23  O   UNL     1      43.735   4.642  10.439  0.00  0.00    +0.000 OA
BRANCH  23  24
ATOM     24  C   UNL     1      44.191   3.291  10.415  0.00  0.00    +0.000 C 
BRANCH  24  25
ATOM     25  C   UNL     1      45.067   3.111   9.202  0.00  0.00    +0.000 A 
ATOM     26  C   UNL     1      45.475   1.829   8.810  0.00  0.00    +0.000 A 
ATOM     27  C   UNL     1      46.267   1.646   7.671  0.00  0.00    +0.000 A 
ATOM     28  C   UNL     1      46.672   2.745   6.904  0.00  0.00    +0.000 A 
ATOM     29  C   UNL     1      46.277   4.028   7.305  0.00  0.00    +0.000 A 
ATOM     30  C   UNL     1      45.479   4.211   8.439  0.00  0.00    +0.000 A 
BRANCH  28  31
ATOM     31  C   UNL     1      47.539   2.570   5.684  0.00  0.00    +0.000 C 
BRANCH  31  32
ATOM     32  O   UNL     1      48.534   1.578   5.906  0.00  0.00    +0.000 OA
ATOM     33  H   UNL     1      49.382   1.965   5.631  0.00  0.00    +0.000 HD
ENDBRANCH  31  32
ENDBRANCH  28  31
ENDBRANCH  24  25
ENDBRANCH  23  24
ENDBRANCH  22  23
ENDBRANCH   5  22
TORSDOF 10
ENDMDL
MODEL 2
REMARK VINA RESULT:    -8.301      1.332      1.885
REMARK INTER + INTRA:         -14.047
REMARK INTER:                 -13.429
REMARK INTRA:                  -0.617
REMARK UNBOUND:                -1.136
REMARK  Name = 
REMARK  10 active torsions:
REMARK  status: ('A' for Active; 'I' for Inactive)
REMARK    1  A    between atoms: C_2  and  C_3
REMARK    2  A    between atoms: C_2  and  C_22
REMARK    3  A    between atoms: C_3  and  O_4
REMARK    4  A    between atoms: O_4  and  C_5
REMARK    5  A    between atoms: C_9  and  C_10
REMARK    6  A    between atoms: C_10  and  O_11
REMARK    7  A    between atoms: O_11  and  C_12
REMARK    8  A    between atoms: C_12  and  C_13
REMARK    9  A    between atoms: C_16  and  C_17
REMARK   10  A    between atoms: C_17  and  O_18
REMARK                            x       y       z     vdW  Elec       q    Type
REMARK                         _______ _______ _______ _____ _____    ______ ____
ROOT
ATOM      1  C   UNL     1      46.020   4.727  13.673  0.00  0.00    +0.000 A 
ATOM      2  C   UNL     1      46.683   5.926  13.441  0.00  0.00    +0.000 A 
ATOM      3  N   UNL     1      46.256   6.871  12.575  0.00  0.00    +0.000 NA
ATOM      4  C   UNL     1      45.104   6.609  11.918  0.00  0.00    +0.000 A 
ATOM      5  C   UNL     1      44.351   5.450  12.085  0.00  0.00    +0.000 A 
ATOM      6  C   UNL     1      44.829   4.493  12.989  0.00  0.00    +0.000 A 
ENDROOT
BRANCH   1   7
ATOM      7  O   UNL     1      46.564   3.892  14.601  0.00  0.00    +0.000 OA
BRANCH   7   8
ATOM      8  C   UNL     1      47.353   4.522  15.606  0.00  0.00    +0.000 C 
BRANCH   8  10
ATOM      9  O   UNL     1      46.610   3.107  17.409  0.00  0.00    +0.000 OA
ATOM     10  C   UNL     1      47.560   3.559  16.777  0.00  0.00    +0.000 C 
BRANCH  10  11
ATOM     11  C   UNL     1      48.941   3.226  17.152  0.00  0.00    +0.000 A 
ATOM     12  C   UNL     1      49.542   2.012  16.859  0.00  0.00    +0.000 A 
ATOM     13  S   UNL     1      51.176   1.936  17.353  0.00  0.00    +0.000 S 
ATOM     14  C   UNL     1      51.120   3.517  17.984  0.00  0.00    +0.000 A 
ATOM     15  N   UNL     1      52.210   4.076  18.575  0.00  0.00    +0.000 NA
ATOM     16  C   UNL     1      52.024   5.284  18.990  0.00  0.00    +0.000 A 
ATOM     17  N   UNL     1      50.852   5.980  18.874  0.00  0.00    +0.000 N 
ATOM     18  C   UNL     1      49.697   5.437  18.354  0.00  0.00    +0.000 A 
ATOM     19  O   UNL     1      48.642   6.047  18.422  0.00  0.00    +0.000 OA
ATOM     20  C   UNL     1      49.875   4.095  17.822  0.00  0.00    +0.000 A 
ATOM     21  H   UNL     1      50.750   6.909  19.257  0.00  0.00    +0.000 HD
ENDBRANCH  10  11
ENDBRANCH   8  10
ENDBRANCH   7   8
ENDBRANCH   1   7
BRANCH   5  22
ATOM     22  C   UNL     1      43.056   5.282  11.342  0.00  0.00    +0.000 C 
BRANCH  22  23
ATOM     23  O   UNL     1      43.319   4.612  10.115  0.00  0.00    +0.000 OA
BRANCH  23  24
ATOM     24  C   UNL     1      43.951   3.349  10.312  0.00  0.00    +0.000 C 
BRANCH  24  25
ATOM     25  C   UNL     1      44.925   3.127   9.183  0.00  0.00    +0.000 A 
ATOM     26  C   UNL     1      45.413   1.842   8.914  0.00  0.00    +0.000 A 
ATOM     27  C   UNL     1      46.297   1.618   7.853  0.00  0.00    +0.000 A 
ATOM     28  C   UNL     1      46.715   2.680   7.042  0.00  0.00    +0.000 A 
ATOM     29  C   UNL     1      46.239   3.967   7.321  0.00  0.00    +0.000 A 
ATOM     30  C   UNL     1      45.350   4.190   8.377  0.00  0.00    +0.000 A 
BRANCH  28  31
ATOM     31  C   UNL     1      47.681   2.463   5.906  0.00  0.00    +0.000 C 
BRANCH  31  32
ATOM     32  O   UNL     1      49.019   2.391   6.383  0.00  0.00    +0.000 OA
ATOM     33  H   UNL     1      49.244   3.275   6.719  0.00  0.00    +0.000 HD
ENDBRANCH  31  32
ENDBRANCH  28  31
ENDBRANCH  24  25
ENDBRANCH  23  24
ENDBRANCH  22  23
ENDBRANCH   5  22
TORSDOF 10
ENDMDL
MODEL 3
REMARK VINA RESULT:    -7.963      4.139      6.873
REMARK INTER + INTRA:         -13.521
REMARK INTER:                 -12.022
REMARK INTRA:                  -1.499
REMARK UNBOUND:                -1.136
REMARK  Name = 
REMARK  10 active torsions:
REMARK  status: ('A' for Active; 'I' for Inactive)
REMARK    1  A    between atoms: C_2  and  C_3
REMARK    2  A    between atoms: C_2  and  C_22
REMARK    3  A    between atoms: C_3  and  O_4
REMARK    4  A    between atoms: O_4  and  C_5
REMARK    5  A    between atoms: C_9  and  C_10
REMARK    6  A    between atoms: C_10  and  O_11
REMARK    7  A    between atoms: O_11  and  C_12
REMARK    8  A    between atoms: C_12  and  C_13
REMARK    9  A    between atoms: C_16  and  C_17
REMARK   10  A    between atoms: C_17  and  O_18
REMARK                            x       y       z     vdW  Elec       q    Type
REMARK                         _______ _______ _______ _____ _____    ______ ____
ROOT
ATOM      1  C   UNL     1      47.548   6.655  12.065  0.00  0.00    +0.000 A 
ATOM      2  C   UNL     1      48.237   6.266  13.207  0.00  0.00    +0.000 A 
ATOM      3  N   UNL     1      47.796   5.325  14.071  0.00  0.00    +0.000 NA
ATOM      4  C   UNL     1      46.616   4.737  13.771  0.00  0.00    +0.000 A 
ATOM      5  C   UNL     1      45.852   5.038  12.646  0.00  0.00    +0.000 A 
ATOM      6  C   UNL     1      46.341   6.021  11.778  0.00  0.00    +0.000 A 
ENDROOT
BRANCH   1   7
ATOM      7  O   UNL     1      48.142   7.597  11.279  0.00  0.00    +0.000 OA
BRANCH   7   8
ATOM      8  C   UNL     1      49.102   8.423  11.930  0.00  0.00    +0.000 C 
BRANCH   8  10
ATOM      9  O   UNL     1      48.463   9.759  13.830  0.00  0.00    +0.000 OA
ATOM     10  C   UNL     1      48.394   9.593  12.616  0.00  0.00    +0.000 C 
BRANCH  10  11
ATOM     11  C   UNL     1      47.590  10.492  11.778  0.00  0.00    +0.000 A 
ATOM     12  C   UNL     1      48.136  11.474  10.965  0.00  0.00    +0.000 A 
ATOM     13  S   UNL     1      46.964  12.316  10.051  0.00  0.00    +0.000 S 
ATOM     14  C   UNL     1      45.695  11.402  10.725  0.00  0.00    +0.000 A 
ATOM     15  N   UNL     1      44.401  11.627  10.371  0.00  0.00    +0.000 NA
ATOM     16  C   UNL     1      43.552  10.848  10.950  0.00  0.00    +0.000 A 
ATOM     17  N   UNL     1      43.874   9.870  11.851  0.00  0.00    +0.000 N 
ATOM     18  C   UNL     1      45.157   9.650  12.303  0.00  0.00    +0.000 A 
ATOM     19  O   UNL     1      45.364   8.875  13.223  0.00  0.00    +0.000 OA
ATOM     20  C   UNL     1      46.156  10.469  11.635  0.00  0.00    +0.000 A 
ATOM     21  H   UNL     1      43.162   9.317  12.307  0.00  0.00    +0.000 HD
ENDBRANCH  10  11
ENDBRANCH   8  10
ENDBRANCH   7   8
ENDBRANCH   1   7
BRANCH   5  22
ATOM     22  C   UNL     1      44.579   4.287  12.381  0.00  0.00    +0.000 C 
BRANCH  22  23
ATOM     23  O   UNL     1      44.881   3.144  11.589  0.00  0.00    +0.000 OA
BRANCH  23  24
ATOM     24  C   UNL     1      44.075   3.071  10.415  0.00  0.00    +0.000 C 
BRANCH  24  25
ATOM     25  C   UNL     1      44.989   2.968   9.221  0.00  0.00    +0.000 A 
ATOM     26  C   UNL     1      45.339   4.116   8.499  0.00  0.00    +0.000 A 
ATOM     27  C   UNL     1      46.207   4.039   7.405  0.00  0.00    +0.000 A 
ATOM     28  C   UNL     1      46.739   2.806   7.007  0.00  0.00    +0.000 A 
ATOM     29  C   UNL     1      46.376   1.655   7.719  0.00  0.00    +0.000 A 
ATOM     30  C   UNL     1      45.514   1.734   8.818  0.00  0.00    +0.000 A 
BRANCH  28  31
ATOM     31  C   UNL     1      47.661   2.698   5.820  0.00  0.00    +0.000 C 
BRANCH  31  32
ATOM     32  O   UNL     1      48.480   1.539   5.917  0.00  0.00    +0.000 OA
ATOM     33  H   UNL     1      49.284   1.721   5.401  0.00  0.00    +0.000 HD
ENDBRANCH  31  32
ENDBRANCH  28  31
ENDBRANCH  24  25
ENDBRANCH  23  24
ENDBRANCH  22  23
ENDBRANCH   5  22
TORSDOF 10
ENDMDL
MODEL 4
REMARK VINA RESULT:    -7.693      1.955      2.707
REMARK INTER + INTRA:         -13.101
REMARK INTER:                 -12.018
REMARK INTRA:                  -1.083
REMARK UNBOUND:                -1.136
REMARK  Name = 
REMARK  10 active torsions:
REMARK  status: ('A' for Active; 'I' for Inactive)
REMARK    1  A    between atoms: C_2  and  C_3
REMARK    2  A    between atoms: C_2  and  C_22
REMARK    3  A    between atoms: C_3  and  O_4
REMARK    4  A    between atoms: O_4  and  C_5
REMARK    5  A    between atoms: C_9  and  C_10
REMARK    6  A    between atoms: C_10  and  O_11
REMARK    7  A    between atoms: O_11  and  C_12
REMARK    8  A    between atoms: C_12  and  C_13
REMARK    9  A    between atoms: C_16  and  C_17
REMARK   10  A    between atoms: C_17  and  O_18
REMARK                            x       y       z     vdW  Elec       q    Type
REMARK                         _______ _______ _______ _____ _____    ______ ____
ROOT
ATOM      1  C   UNL     1      46.316   7.670  12.626  0.00  0.00    +0.000 A 
ATOM      2  C   UNL     1      45.487   8.461  11.840  0.00  0.00    +0.000 A 
ATOM      3  N   UNL     1      44.320   8.036  11.308  0.00  0.00    +0.000 NA
ATOM      4  C   UNL     1      43.960   6.763  11.584  0.00  0.00    +0.000 A 
ATOM      5  C   UNL     1      44.704   5.889  12.372  0.00  0.00    +0.000 A 
ATOM      6  C   UNL     1      45.909   6.366  12.903  0.00  0.00    +0.000 A 
ENDROOT
BRANCH   1   7
ATOM      7  O   UNL     1      47.444   8.256  13.115  0.00  0.00    +0.000 OA
BRANCH   7   8
ATOM      8  C   UNL     1      47.678   8.072  14.507  0.00  0.00    +0.000 C 
BRANCH   8  10
ATOM      9  O   UNL     1      49.456   6.622  13.772  0.00  0.00    +0.000 OA
ATOM     10  C   UNL     1      48.782   7.032  14.712  0.00  0.00    +0.000 C 
BRANCH  10  11
ATOM     11  C   UNL     1      48.981   6.505  16.069  0.00  0.00    +0.000 A 
ATOM     12  C   UNL     1      49.685   7.177  17.055  0.00  0.00    +0.000 A 
ATOM     13  S   UNL     1      49.690   6.355  18.553  0.00  0.00    +0.000 S 
ATOM     14  C   UNL     1      48.764   5.074  17.921  0.00  0.00    +0.000 A 
ATOM     15  N   UNL     1      48.414   4.011  18.694  0.00  0.00    +0.000 NA
ATOM     16  C   UNL     1      47.699   3.127  18.085  0.00  0.00    +0.000 A 
ATOM     17  N   UNL     1      47.305   3.205  16.777  0.00  0.00    +0.000 N 
ATOM     18  C   UNL     1      47.693   4.219  15.928  0.00  0.00    +0.000 A 
ATOM     19  O   UNL     1      47.446   4.155  14.735  0.00  0.00    +0.000 OA
ATOM     20  C   UNL     1      48.455   5.268  16.588  0.00  0.00    +0.000 A 
ATOM     21  H   UNL     1      46.781   2.461  16.339  0.00  0.00    +0.000 HD
ENDBRANCH  10  11
ENDBRANCH   8  10
ENDBRANCH   7   8
ENDBRANCH   1   7
BRANCH   5  22
ATOM     22  C   UNL     1      44.186   4.509  12.660  0.00  0.00    +0.000 C 
BRANCH  22  23
ATOM     23  O   UNL     1      44.769   3.601  11.733  0.00  0.00    +0.000 OA
BRANCH  23  24
ATOM     24  C   UNL     1      43.986   3.457  10.550  0.00  0.00    +0.000 C 
BRANCH  24  25
ATOM     25  C   UNL     1      44.915   3.163   9.402  0.00  0.00    +0.000 A 
ATOM     26  C   UNL     1      45.293   1.843   9.119  0.00  0.00    +0.000 A 
ATOM     27  C   UNL     1      46.134   1.554   8.039  0.00  0.00    +0.000 A 
ATOM     28  C   UNL     1      46.621   2.582   7.223  0.00  0.00    +0.000 A 
ATOM     29  C   UNL     1      46.256   3.903   7.516  0.00  0.00    +0.000 A 
ATOM     30  C   UNL     1      45.409   4.192   8.591  0.00  0.00    +0.000 A 
BRANCH  28  31
ATOM     31  C   UNL     1      47.543   2.294   6.067  0.00  0.00    +0.000 C 
BRANCH  31  32
ATOM     32  O   UNL     1      48.878   2.673   6.375  0.00  0.00    +0.000 OA
ATOM     33  H   UNL     1      48.824   3.350   7.071  0.00  0.00    +0.000 HD
ENDBRANCH  31  32
ENDBRANCH  28  31
ENDBRANCH  24  25
ENDBRANCH  23  24
ENDBRANCH  22  23
ENDBRANCH   5  22
TORSDOF 10
ENDMDL
MODEL 5
REMARK VINA RESULT:    -7.334      3.011      4.315
REMARK INTER + INTRA:         -12.543
REMARK INTER:                 -11.373
REMARK INTRA:                  -1.170
REMARK UNBOUND:                -1.136
REMARK  Name = 
REMARK  10 active torsions:
REMARK  status: ('A' for Active; 'I' for Inactive)
REMARK    1  A    between atoms: C_2  and  C_3
REMARK    2  A    between atoms: C_2  and  C_22
REMARK    3  A    between atoms: C_3  and  O_4
REMARK    4  A    between atoms: O_4  and  C_5
REMARK    5  A    between atoms: C_9  and  C_10
REMARK    6  A    between atoms: C_10  and  O_11
REMARK    7  A    between atoms: O_11  and  C_12
REMARK    8  A    between atoms: C_12  and  C_13
REMARK    9  A    between atoms: C_16  and  C_17
REMARK   10  A    between atoms: C_17  and  O_18
REMARK                            x       y       z     vdW  Elec       q    Type
REMARK                         _______ _______ _______ _____ _____    ______ ____
ROOT
ATOM      1  C   UNL     1      46.832   6.504  13.456  0.00  0.00    +0.000 A 
ATOM      2  C   UNL     1      47.007   5.280  14.088  0.00  0.00    +0.000 A 
ATOM      3  N   UNL     1      46.138   4.250  13.995  0.00  0.00    +0.000 NA
ATOM      4  C   UNL     1      45.046   4.450  13.223  0.00  0.00    +0.000 A 
ATOM      5  C   UNL     1      44.779   5.629  12.532  0.00  0.00    +0.000 A 
ATOM      6  C   UNL     1      45.703   6.674  12.657  0.00  0.00    +0.000 A 
ENDROOT
BRANCH   1   7
ATOM      7  O   UNL     1      47.816   7.431  13.624  0.00  0.00    +0.000 OA
BRANCH   7   8
ATOM      8  C   UNL     1      49.147   6.944  13.491  0.00  0.00    +0.000 C 
BRANCH   8  10
ATOM      9  O   UNL     1      51.157   7.787  14.517  0.00  0.00    +0.000 OA
ATOM     10  C   UNL     1      49.994   7.428  14.670  0.00  0.00    +0.000 C 
BRANCH  10  11
ATOM     11  C   UNL     1      49.381   7.409  16.005  0.00  0.00    +0.000 A 
ATOM     12  C   UNL     1      49.339   6.282  16.811  0.00  0.00    +0.000 A 
ATOM     13  S   UNL     1      48.629   6.577  18.338  0.00  0.00    +0.000 S 
ATOM     14  C   UNL     1      48.348   8.213  17.957  0.00  0.00    +0.000 A 
ATOM     15  N   UNL     1      47.746   9.048  18.846  0.00  0.00    +0.000 NA
ATOM     16  C   UNL     1      47.615  10.261  18.427  0.00  0.00    +0.000 A 
ATOM     17  N   UNL     1      48.024  10.714  17.202  0.00  0.00    +0.000 N 
ATOM     18  C   UNL     1      48.568   9.897  16.236  0.00  0.00    +0.000 A 
ATOM     19  O   UNL     1      48.765  10.320  15.108  0.00  0.00    +0.000 OA
ATOM     20  C   UNL     1      48.786   8.531  16.686  0.00  0.00    +0.000 A 
ATOM     21  H   UNL     1      47.856  11.666  16.909  0.00  0.00    +0.000 HD
ENDBRANCH  10  11
ENDBRANCH   8  10
ENDBRANCH   7   8
ENDBRANCH   1   7
BRANCH   5  22
ATOM     22  C   UNL     1      43.561   5.728  11.660  0.00  0.00    +0.000 C 
BRANCH  22  23
ATOM     23  O   UNL     1      43.901   5.291  10.350  0.00  0.00    +0.000 OA
BRANCH  23  24
ATOM     24  C   UNL     1      43.662   3.898  10.165  0.00  0.00    +0.000 C 
BRANCH  24  25
ATOM     25  C   UNL     1      44.713   3.359   9.229  0.00  0.00    +0.000 A 
ATOM     26  C   UNL     1      45.448   4.231   8.415  0.00  0.00    +0.000 A 
ATOM     27  C   UNL     1      46.444   3.746   7.561  0.00  0.00    +0.000 A 
ATOM     28  C   UNL     1      46.721   2.375   7.500  0.00  0.00    +0.000 A 
ATOM     29  C   UNL     1      45.975   1.501   8.303  0.00  0.00    +0.000 A 
ATOM     30  C   UNL     1      44.984   1.987   9.162  0.00  0.00    +0.000 A 
BRANCH  28  31
ATOM     31  C   UNL     1      47.778   1.831   6.574  0.00  0.00    +0.000 C 
BRANCH  31  32
ATOM     32  O   UNL     1      48.793   2.798   6.336  0.00  0.00    +0.000 OA
ATOM     33  H   UNL     1      48.480   3.358   5.606  0.00  0.00    +0.000 HD
ENDBRANCH  31  32
ENDBRANCH  28  31
ENDBRANCH  24  25
ENDBRANCH  23  24
ENDBRANCH  22  23
ENDBRANCH   5  22
TORSDOF 10
ENDMDL
MODEL 6
REMARK VINA RESULT:    -7.255      2.817      3.713
REMARK INTER + INTRA:         -12.420
REMARK INTER:                 -10.980
REMARK INTRA:                  -1.441
REMARK UNBOUND:                -1.136
REMARK  Name = 
REMARK  10 active torsions:
REMARK  status: ('A' for Active; 'I' for Inactive)
REMARK    1  A    between atoms: C_2  and  C_3
REMARK    2  A    between atoms: C_2  and  C_22
REMARK    3  A    between atoms: C_3  and  O_4
REMARK    4  A    between atoms: O_4  and  C_5
REMARK    5  A    between atoms: C_9  and  C_10
REMARK    6  A    between atoms: C_10  and  O_11
REMARK    7  A    between atoms: O_11  and  C_12
REMARK    8  A    between atoms: C_12  and  C_13
REMARK    9  A    between atoms: C_16  and  C_17
REMARK   10  A    between atoms: C_17  and  O_18
REMARK                            x       y       z     vdW  Elec       q    Type
REMARK                         _______ _______ _______ _____ _____    ______ ____
ROOT
ATOM      1  C   UNL     1      48.457   6.615  14.457  0.00  0.00    +0.000 A 
ATOM      2  C   UNL     1      49.506   7.412  14.901  0.00  0.00    +0.000 A 
ATOM      3  N   UNL     1      49.649   8.717  14.584  0.00  0.00    +0.000 NA
ATOM      4  C   UNL     1      48.691   9.255  13.796  0.00  0.00    +0.000 A 
ATOM      5  C   UNL     1      47.590   8.554  13.309  0.00  0.00    +0.000 A 
ATOM      6  C   UNL     1      47.480   7.202  13.657  0.00  0.00    +0.000 A 
ENDROOT
BRANCH   1   7
ATOM      7  O   UNL     1      48.439   5.324  14.891  0.00  0.00    +0.000 OA
BRANCH   7   8
ATOM      8  C   UNL     1      47.204   4.879  15.443  0.00  0.00    +0.000 C 
BRANCH   8  10
ATOM      9  O   UNL     1      46.601   3.416  17.259  0.00  0.00    +0.000 OA
ATOM     10  C   UNL     1      47.465   4.119  16.745  0.00  0.00    +0.000 C 
BRANCH  10  11
ATOM     11  C   UNL     1      48.775   4.294  17.387  0.00  0.00    +0.000 A 
ATOM     12  C   UNL     1      49.119   5.411  18.132  0.00  0.00    +0.000 A 
ATOM     13  S   UNL     1      50.681   5.303  18.817  0.00  0.00    +0.000 S 
ATOM     14  C   UNL     1      50.943   3.768  18.128  0.00  0.00    +0.000 A 
ATOM     15  N   UNL     1      52.113   3.102  18.319  0.00  0.00    +0.000 NA
ATOM     16  C   UNL     1      52.161   1.945  17.751  0.00  0.00    +0.000 A 
ATOM     17  N   UNL     1      51.153   1.396  17.007  0.00  0.00    +0.000 N 
ATOM     18  C   UNL     1      49.979   2.056  16.718  0.00  0.00    +0.000 A 
ATOM     19  O   UNL     1      49.186   1.585  15.919  0.00  0.00    +0.000 OA
ATOM     20  C   UNL     1      49.858   3.343  17.385  0.00  0.00    +0.000 A 
ATOM     21  H   UNL     1      51.263   0.502  16.548  0.00  0.00    +0.000 HD
ENDBRANCH  10  11
ENDBRANCH   8  10
ENDBRANCH   7   8
ENDBRANCH   1   7
BRANCH   5  22
ATOM     22  C   UNL     1      46.556   9.262  12.482  0.00  0.00    +0.000 C 
BRANCH  22  23
ATOM     23  O   UNL     1      45.300   8.624  12.680  0.00  0.00    +0.000 OA
BRANCH  23  24
ATOM     24  C   UNL     1      44.642   8.331  11.449  0.00  0.00    +0.000 C 
BRANCH  24  25
ATOM     25  C   UNL     1      44.343   6.854  11.414  0.00  0.00    +0.000 A 
ATOM     26  C   UNL     1      43.038   6.392  11.630  0.00  0.00    +0.000 A 
ATOM     27  C   UNL     1      42.742   5.026  11.574  0.00  0.00    +0.000 A 
ATOM     28  C   UNL     1      43.751   4.092  11.307  0.00  0.00    +0.000 A 
ATOM     29  C   UNL     1      45.059   4.553  11.107  0.00  0.00    +0.000 A 
ATOM     30  C   UNL     1      45.353   5.919  11.156  0.00  0.00    +0.000 A 
BRANCH  28  31
ATOM     31  C   UNL     1      43.457   2.615  11.260  0.00  0.00    +0.000 C 
BRANCH  31  32
ATOM     32  O   UNL     1      43.458   2.056  12.568  0.00  0.00    +0.000 OA
ATOM     33  H   UNL     1      42.548   2.127  12.904  0.00  0.00    +0.000 HD
ENDBRANCH  31  32
ENDBRANCH  28  31
ENDBRANCH  24  25
ENDBRANCH  23  24
ENDBRANCH  22  23
ENDBRANCH   5  22
TORSDOF 10
ENDMDL
MODEL 7
REMARK VINA RESULT:    -7.247      3.163      9.230
REMARK INTER + INTRA:         -12.407
REMARK INTER:                 -11.200
REMARK INTRA:                  -1.207
REMARK UNBOUND:                -1.136
REMARK  Name = 
REMARK  10 active torsions:
REMARK  status: ('A' for Active; 'I' for Inactive)
REMARK    1  A    between atoms: C_2  and  C_3
REMARK    2  A    between atoms: C_2  and  C_22
REMARK    3  A    between atoms: C_3  and  O_4
REMARK    4  A    between atoms: O_4  and  C_5
REMARK    5  A    between atoms: C_9  and  C_10
REMARK    6  A    between atoms: C_10  and  O_11
REMARK    7  A    between atoms: O_11  and  C_12
REMARK    8  A    between atoms: C_12  and  C_13
REMARK    9  A    between atoms: C_16  and  C_17
REMARK   10  A    between atoms: C_17  and  O_18
REMARK                            x       y       z     vdW  Elec       q    Type
REMARK                         _______ _______ _______ _____ _____    ______ ____
ROOT
ATOM      1  C   UNL     1      47.435   5.286  13.797  0.00  0.00    +0.000 A 
ATOM      2  C   UNL     1      47.117   3.940  13.925  0.00  0.00    +0.000 A 
ATOM      3  N   UNL     1      47.266   3.234  15.068  0.00  0.00    +0.000 NA
ATOM      4  C   UNL     1      47.745   3.910  16.136  0.00  0.00    +0.000 A 
ATOM      5  C   UNL     1      48.080   5.261  16.124  0.00  0.00    +0.000 A 
ATOM      6  C   UNL     1      47.915   5.957  14.920  0.00  0.00    +0.000 A 
ENDROOT
BRANCH   1   7
ATOM      7  O   UNL     1      47.198   5.863  12.586  0.00  0.00    +0.000 OA
BRANCH   7   8
ATOM      8  C   UNL     1      46.365   7.017  12.608  0.00  0.00    +0.000 C 
BRANCH   8  10
ATOM      9  O   UNL     1      44.547   7.704  11.184  0.00  0.00    +0.000 OA
ATOM     10  C   UNL     1      45.128   6.777  11.740  0.00  0.00    +0.000 C 
BRANCH  10  11
ATOM     11  C   UNL     1      44.629   5.400  11.628  0.00  0.00    +0.000 A 
ATOM     12  C   UNL     1      43.895   4.768  12.619  0.00  0.00    +0.000 A 
ATOM     13  S   UNL     1      43.389   3.196  12.181  0.00  0.00    +0.000 S 
ATOM     14  C   UNL     1      44.146   3.313  10.660  0.00  0.00    +0.000 A 
ATOM     15  N   UNL     1      44.103   2.283   9.773  0.00  0.00    +0.000 NA
ATOM     16  C   UNL     1      44.706   2.521   8.657  0.00  0.00    +0.000 A 
ATOM     17  N   UNL     1      45.350   3.688   8.349  0.00  0.00    +0.000 N 
ATOM     18  C   UNL     1      45.490   4.733   9.236  0.00  0.00    +0.000 A 
ATOM     19  O   UNL     1      46.209   5.681   8.966  0.00  0.00    +0.000 OA
ATOM     20  C   UNL     1      44.777   4.530  10.488  0.00  0.00    +0.000 A 
ATOM     21  H   UNL     1      45.843   3.803   7.475  0.00  0.00    +0.000 HD
ENDBRANCH  10  11
ENDBRANCH   8  10
ENDBRANCH   7   8
ENDBRANCH   1   7
BRANCH   5  22
ATOM     22  C   UNL     1      48.556   5.928  17.383  0.00  0.00    +0.000 C 
BRANCH  22  23
ATOM     23  O   UNL     1      49.474   5.061  18.038  0.00  0.00    +0.000 OA
BRANCH  23  24
ATOM     24  C   UNL     1      50.808   5.229  17.565  0.00  0.00    +0.000 C 
BRANCH  24  25
ATOM     25  C   UNL     1      51.516   3.903  17.670  0.00  0.00    +0.000 A 
ATOM     26  C   UNL     1      50.835   2.713  17.379  0.00  0.00    +0.000 A 
ATOM     27  C   UNL     1      51.487   1.478  17.448  0.00  0.00    +0.000 A 
ATOM     28  C   UNL     1      52.836   1.407  17.815  0.00  0.00    +0.000 A 
ATOM     29  C   UNL     1      53.513   2.595  18.122  0.00  0.00    +0.000 A 
ATOM     30  C   UNL     1      52.863   3.831  18.046  0.00  0.00    +0.000 A 
BRANCH  28  31
ATOM     31  C   UNL     1      53.552   0.085  17.913  0.00  0.00    +0.000 C 
BRANCH  31  32
ATOM     32  O   UNL     1      52.802  -0.843  18.687  0.00  0.00    +0.000 OA
ATOM     33  H   UNL     1      52.591  -0.401  19.527  0.00  0.00    +0.000 HD
ENDBRANCH  31  32
ENDBRANCH  28  31
ENDBRANCH  24  25
ENDBRANCH  23  24
ENDBRANCH  22  23
ENDBRANCH   5  22
TORSDOF 10
ENDMDL
MODEL 8
REMARK VINA RESULT:    -7.218      4.916      8.569
REMARK INTER + INTRA:         -12.363
REMARK INTER:                 -11.178
REMARK INTRA:                  -1.185
REMARK UNBOUND:                -1.136
REMARK  Name = 
REMARK  10 active torsions:
REMARK  status: ('A' for Active; 'I' for Inactive)
REMARK    1  A    between atoms: C_2  and  C_3
REMARK    2  A    between atoms: C_2  and  C_22
REMARK    3  A    between atoms: C_3  and  O_4
REMARK    4  A    between atoms: O_4  and  C_5
REMARK    5  A    between atoms: C_9  and  C_10
REMARK    6  A    between atoms: C_10  and  O_11
REMARK    7  A    between atoms: O_11  and  C_12
REMARK    8  A    between atoms: C_12  and  C_13
REMARK    9  A    between atoms: C_16  and  C_17
REMARK   10  A    between atoms: C_17  and  O_18
REMARK                            x       y       z     vdW  Elec       q    Type
REMARK                         _______ _______ _______ _____ _____    ______ ____
ROOT
ATOM      1  C   UNL     1      45.386   7.854  11.748  0.00  0.00    +0.000 A 
ATOM      2  C   UNL     1      46.633   7.729  12.346  0.00  0.00    +0.000 A 
ATOM      3  N   UNL     1      47.110   6.576  12.864  0.00  0.00    +0.000 NA
ATOM      4  C   UNL     1      46.306   5.493  12.766  0.00  0.00    +0.000 A 
ATOM      5  C   UNL     1      45.047   5.501  12.173  0.00  0.00    +0.000 A 
ATOM      6  C   UNL     1      44.586   6.717  11.652  0.00  0.00    +0.000 A 
ENDROOT
BRANCH   1   7
ATOM      7  O   UNL     1      45.063   9.079  11.247  0.00  0.00    +0.000 OA
BRANCH   7   8
ATOM      8  C   UNL     1      44.638  10.042  12.207  0.00  0.00    +0.000 C 
BRANCH   8  10
ATOM      9  O   UNL     1      43.295  12.011  11.858  0.00  0.00    +0.000 OA
ATOM     10  C   UNL     1      44.260  11.344  11.498  0.00  0.00    +0.000 C 
BRANCH  10  11
ATOM     11  C   UNL     1      45.067  11.751  10.339  0.00  0.00    +0.000 A 
ATOM     12  C   UNL     1      46.332  12.307  10.445  0.00  0.00    +0.000 A 
ATOM     13  S   UNL     1      47.059  12.613   8.929  0.00  0.00    +0.000 S 
ATOM     14  C   UNL     1      45.698  12.023   8.092  0.00  0.00    +0.000 A 
ATOM     15  N   UNL     1      45.661  12.011   6.732  0.00  0.00    +0.000 NA
ATOM     16  C   UNL     1      44.575  11.521   6.238  0.00  0.00    +0.000 A 
ATOM     17  N   UNL     1      43.523  11.047   6.975  0.00  0.00    +0.000 N 
ATOM     18  C   UNL     1      43.476  11.106   8.350  0.00  0.00    +0.000 A 
ATOM     19  O   UNL     1      42.450  10.819   8.946  0.00  0.00    +0.000 OA
ATOM     20  C   UNL     1      44.704  11.600   8.953  0.00  0.00    +0.000 A 
ATOM     21  H   UNL     1      42.678  10.714   6.533  0.00  0.00    +0.000 HD
ENDBRANCH  10  11
ENDBRANCH   8  10
ENDBRANCH   7   8
ENDBRANCH   1   7
BRANCH   5  22
ATOM     22  C   UNL     1      44.256   4.228  12.072  0.00  0.00    +0.000 C 
BRANCH  22  23
ATOM     23  O   UNL     1      43.819   4.069  10.728  0.00  0.00    +0.000 OA
BRANCH  23  24
ATOM     24  C   UNL     1      43.968   2.729  10.265  0.00  0.00    +0.000 C 
BRANCH  24  25
ATOM     25  C   UNL     1      44.955   2.730   9.126  0.00  0.00    +0.000 A 
ATOM     26  C   UNL     1      45.240   3.918   8.440  0.00  0.00    +0.000 A 
ATOM     27  C   UNL     1      46.173   3.938   7.398  0.00  0.00    +0.000 A 
ATOM     28  C   UNL     1      46.837   2.766   7.018  0.00  0.00    +0.000 A 
ATOM     29  C   UNL     1      46.541   1.575   7.693  0.00  0.00    +0.000 A 
ATOM     30  C   UNL     1      45.613   1.556   8.740  0.00  0.00    +0.000 A 
BRANCH  28  31
ATOM     31  C   UNL     1      47.832   2.762   5.886  0.00  0.00    +0.000 C 
BRANCH  31  32
ATOM     32  O   UNL     1      48.505   1.512   5.804  0.00  0.00    +0.000 OA
ATOM     33  H   UNL     1      49.274   1.568   6.396  0.00  0.00    +0.000 HD
ENDBRANCH  31  32
ENDBRANCH  28  31
ENDBRANCH  24  25
ENDBRANCH  23  24
ENDBRANCH  22  23
ENDBRANCH   5  22
TORSDOF 10
ENDMDL
MODEL 9
REMARK VINA RESULT:    -7.000      3.340      4.308
REMARK INTER + INTRA:         -12.024
REMARK INTER:                 -10.835
REMARK INTRA:                  -1.189
REMARK UNBOUND:                -1.136
REMARK  Name = 
REMARK  10 active torsions:
REMARK  status: ('A' for Active; 'I' for Inactive)
REMARK    1  A    between atoms: C_2  and  C_3
REMARK    2  A    between atoms: C_2  and  C_22
REMARK    3  A    between atoms: C_3  and  O_4
REMARK    4  A    between atoms: O_4  and  C_5
REMARK    5  A    between atoms: C_9  and  C_10
REMARK    6  A    between atoms: C_10  and  O_11
REMARK    7  A    between atoms: O_11  and  C_12
REMARK    8  A    between atoms: C_12  and  C_13
REMARK    9  A    between atoms: C_16  and  C_17
REMARK   10  A    between atoms: C_17  and  O_18
REMARK                            x       y       z     vdW  Elec       q    Type
REMARK                         _______ _______ _______ _____ _____    ______ ____
ROOT
ATOM      1  C   UNL     1      46.909   6.327  12.672  0.00  0.00    +0.000 A 
ATOM      2  C   UNL     1      47.238   5.370  13.623  0.00  0.00    +0.000 A 
ATOM      3  N   UNL     1      46.430   4.347  13.977  0.00  0.00    +0.000 NA
ATOM      4  C   UNL     1      45.240   4.271  13.340  0.00  0.00    +0.000 A 
ATOM      5  C   UNL     1      44.815   5.165  12.361  0.00  0.00    +0.000 A 
ATOM      6  C   UNL     1      45.681   6.214  12.025  0.00  0.00    +0.000 A 
ENDROOT
BRANCH   1   7
ATOM      7  O   UNL     1      47.847   7.278  12.405  0.00  0.00    +0.000 OA
BRANCH   7   8
ATOM      8  C   UNL     1      47.344   8.594  12.196  0.00  0.00    +0.000 C 
BRANCH   8  10
ATOM      9  O   UNL     1      48.304  10.753  12.667  0.00  0.00    +0.000 OA
ATOM     10  C   UNL     1      48.148   9.592  13.032  0.00  0.00    +0.000 C 
BRANCH  10  11
ATOM     11  C   UNL     1      48.768   9.103  14.271  0.00  0.00    +0.000 A 
ATOM     12  C   UNL     1      48.097   9.019  15.481  0.00  0.00    +0.000 A 
ATOM     13  S   UNL     1      49.050   8.345  16.730  0.00  0.00    +0.000 S 
ATOM     14  C   UNL     1      50.386   8.160  15.691  0.00  0.00    +0.000 A 
ATOM     15  N   UNL     1      51.558   7.636  16.141  0.00  0.00    +0.000 NA
ATOM     16  C   UNL     1      52.475   7.541  15.238  0.00  0.00    +0.000 A 
ATOM     17  N   UNL     1      52.331   7.923  13.933  0.00  0.00    +0.000 N 
ATOM     18  C   UNL     1      51.195   8.527  13.442  0.00  0.00    +0.000 A 
ATOM     19  O   UNL     1      51.180   8.992  12.314  0.00  0.00    +0.000 OA
ATOM     20  C   UNL     1      50.113   8.605  14.412  0.00  0.00    +0.000 A 
ATOM     21  H   UNL     1      53.099   7.865  13.278  0.00  0.00    +0.000 HD
ENDBRANCH  10  11
ENDBRANCH   8  10
ENDBRANCH   7   8
ENDBRANCH   1   7
BRANCH   5  22
ATOM     22  C   UNL     1      43.493   4.959  11.678  0.00  0.00    +0.000 C 
BRANCH  22  23
ATOM     23  O   UNL     1      43.732   4.529  10.344  0.00  0.00    +0.000 OA
BRANCH  23  24
ATOM     24  C   UNL     1      44.093   3.152  10.275  0.00  0.00    +0.000 C 
BRANCH  24  25
ATOM     25  C   UNL     1      44.986   2.958   9.077  0.00  0.00    +0.000 A 
ATOM     26  C   UNL     1      45.307   4.044   8.252  0.00  0.00    +0.000 A 
ATOM     27  C   UNL     1      46.155   3.883   7.152  0.00  0.00    +0.000 A 
ATOM     28  C   UNL     1      46.697   2.627   6.851  0.00  0.00    +0.000 A 
ATOM     29  C   UNL     1      46.364   1.538   7.667  0.00  0.00    +0.000 A 
ATOM     30  C   UNL     1      45.521   1.700   8.771  0.00  0.00    +0.000 A 
BRANCH  28  31
ATOM     31  C   UNL     1      47.599   2.428   5.661  0.00  0.00    +0.000 C 
BRANCH  31  32
ATOM     32  O   UNL     1      48.821   1.812   6.046  0.00  0.00    +0.000 OA
ATOM     33  H   UNL     1      49.111   1.270   5.292  0.00  0.00    +0.000 HD
ENDBRANCH  31  32
ENDBRANCH  28  31
ENDBRANCH  24  25
ENDBRANCH  23  24
ENDBRANCH  22  23
ENDBRANCH   5  22
TORSDOF 10
ENDMDL
