MODEL 1
REMARK VINA RESULT:    -8.632      0.000      0.000
REMARK INTER + INTRA:         -12.079
REMARK INTER:                 -11.156
REMARK INTRA:                  -0.924
REMARK UNBOUND:                -0.924
REMARK  Name = 
REMARK  5 active torsions:
REMARK  status: ('A' for Active; 'I' for Inactive)
REMARK    1  A    between atoms: C_2  and  C_4
REMARK    2  A    between atoms: C_8  and  O_9
REMARK    3  A    between atoms: O_9  and  C_10
REMARK    4  A    between atoms: C_10  and  C_11
REMARK    5  A    between atoms: C_16  and  C_17
REMARK                            x       y       z     vdW  Elec       q    Type
REMARK                         _______ _______ _______ _____ _____    ______ ____
ROOT
ATOM      1  C   UNL     1      43.599   6.434  10.830  0.00  0.00    +0.000 C 
ENDROOT
BRANCH   1   2
ATOM      2  C   UNL     1      43.898   4.967  10.652  0.00  0.00    +0.000 A 
ATOM      3  C   UNL     1      43.252   4.011  11.438  0.00  0.00    +0.000 A 
ATOM      4  C   UNL     1      43.475   2.663  11.195  0.00  0.00    +0.000 A 
ATOM      5  F   UNL     1      42.821   1.747  11.922  0.00  0.00    +0.000 F 
ATOM      6  C   UNL     1      44.329   2.244  10.178  0.00  0.00    +0.000 A 
ATOM      7  C   UNL     1      44.990   3.175   9.360  0.00  0.00    +0.000 A 
ATOM      8  C   UNL     1      44.782   4.541   9.643  0.00  0.00    +0.000 A 
BRANCH   7   9
ATOM      9  C   UNL     1      45.791   2.751   8.188  0.00  0.00    +0.000 A 
ATOM     10  C   UNL     1      46.070   3.653   7.143  0.00  0.00    +0.000 A 
ATOM     11  C   UNL     1      46.895   3.303   6.072  0.00  0.00    +0.000 A 
ATOM     12  C   UNL     1      47.469   2.038   6.021  0.00  0.00    +0.000 A 
ATOM     13  C   UNL     1      47.202   1.119   7.032  0.00  0.00    +0.000 A 
ATOM     14  C   UNL     1      46.365   1.470   8.098  0.00  0.00    +0.000 A 
ENDBRANCH   7   9
ENDBRANCH   1   2
BRANCH   1  15
ATOM     15  O   UNL     1      44.034   6.868  12.118  0.00  0.00    +0.000 OA
BRANCH  15  20
ATOM     16  C   UNL     1      46.914   5.360  13.742  0.00  0.00    +0.000 A 
ATOM     17  C   UNL     1      47.985   6.046  13.162  0.00  0.00    +0.000 A 
ATOM     18  C   UNL     1      47.748   7.023  12.200  0.00  0.00    +0.000 A 
ATOM     19  C   UNL     1      46.438   7.325  11.818  0.00  0.00    +0.000 A 
ATOM     20  C   UNL     1      45.358   6.656  12.404  0.00  0.00    +0.000 A 
ATOM     21  C   UNL     1      45.600   5.680  13.372  0.00  0.00    +0.000 A 
BRANCH  16  23
ATOM     22  N   UNL     1      47.226   4.695  16.062  0.00  0.00    +0.000 N 
ATOM     23  C   UNL     1      47.212   4.313  14.751  0.00  0.00    +0.000 C 
ATOM     24  O   UNL     1      47.390   3.144  14.433  0.00  0.00    +0.000 OA
ATOM     25  H   UNL     1      47.316   3.954  16.746  0.00  0.00    +0.000 HD
ATOM     26  H   UNL     1      46.846   5.578  16.374  0.00  0.00    +0.000 HD
ENDBRANCH  16  23
ENDBRANCH  15  20
ENDBRANCH   1  15
TORSDOF 5
ENDMDL
MODEL 2
REMARK VINA RESULT:    -8.438      3.223      6.414
REMARK INTER + INTRA:         -11.829
REMARK INTER:                 -11.077
REMARK INTRA:                  -0.752
REMARK UNBOUND:                -0.924
REMARK  Name = 
REMARK  5 active torsions:
REMARK  status: ('A' for Active; 'I' for Inactive)
REMARK    1  A    between atoms: C_2  and  C_4
REMARK    2  A    between atoms: C_8  and  O_9
REMARK    3  A    between atoms: O_9  and  C_10
REMARK    4  A    between atoms: C_10  and  C_11
REMARK    5  A    between atoms: C_16  and  C_17
REMARK                            x       y       z     vdW  Elec       q    Type
REMARK                         _______ _______ _______ _____ _____    ______ ____
ROOT
ATOM      1  C   UNL     1      43.418   3.863  11.348  0.00  0.00    +0.000 C 
ENDROOT
BRANCH   1   2
ATOM      2  C   UNL     1      44.616   4.363  12.115  0.00  0.00    +0.000 A 
ATOM      3  C   UNL     1      45.417   3.477  12.838  0.00  0.00    +0.000 A 
ATOM      4  C   UNL     1      46.565   3.946  13.462  0.00  0.00    +0.000 A 
ATOM      5  F   UNL     1      47.354   3.086  14.118  0.00  0.00    +0.000 F 
ATOM      6  C   UNL     1      46.936   5.285  13.379  0.00  0.00    +0.000 A 
ATOM      7  C   UNL     1      46.161   6.206  12.654  0.00  0.00    +0.000 A 
ATOM      8  C   UNL     1      44.979   5.722  12.056  0.00  0.00    +0.000 A 
BRANCH   7   9
ATOM      9  C   UNL     1      46.610   7.601  12.437  0.00  0.00    +0.000 A 
ATOM     10  C   UNL     1      47.959   7.886  12.145  0.00  0.00    +0.000 A 
ATOM     11  C   UNL     1      48.388   9.182  11.850  0.00  0.00    +0.000 A 
ATOM     12  C   UNL     1      47.476  10.230  11.835  0.00  0.00    +0.000 A 
ATOM     13  C   UNL     1      46.138   9.984  12.132  0.00  0.00    +0.000 A 
ATOM     14  C   UNL     1      45.714   8.685  12.438  0.00  0.00    +0.000 A 
ENDBRANCH   7   9
ENDBRANCH   1   2
BRANCH   1  15
ATOM     15  O   UNL     1      43.795   2.770  10.512  0.00  0.00    +0.000 OA
BRANCH  15  20
ATOM     16  C   UNL     1      46.283   2.167   7.932  0.00  0.00    +0.000 A 
ATOM     17  C   UNL     1      46.471   3.440   7.386  0.00  0.00    +0.000 A 
ATOM     18  C   UNL     1      45.747   4.523   7.876  0.00  0.00    +0.000 A 
ATOM     19  C   UNL     1      44.836   4.339   8.920  0.00  0.00    +0.000 A 
ATOM     20  C   UNL     1      44.652   3.072   9.484  0.00  0.00    +0.000 A 
ATOM     21  C   UNL     1      45.383   1.990   8.992  0.00  0.00    +0.000 A 
BRANCH  16  23
ATOM     22  N   UNL     1      46.629  -0.226   7.659  0.00  0.00    +0.000 N 
ATOM     23  C   UNL     1      47.061   1.037   7.367  0.00  0.00    +0.000 C 
ATOM     24  O   UNL     1      48.022   1.220   6.631  0.00  0.00    +0.000 OA
ATOM     25  H   UNL     1      47.096  -0.984   7.177  0.00  0.00    +0.000 HD
ATOM     26  H   UNL     1      45.715  -0.410   8.049  0.00  0.00    +0.000 HD
ENDBRANCH  16  23
ENDBRANCH  15  20
ENDBRANCH   1  15
TORSDOF 5
ENDMDL
MODEL 3
REMARK VINA RESULT:    -8.049      3.475      6.742
REMARK INTER + INTRA:         -11.325
REMARK INTER:                 -10.295
REMARK INTRA:                  -1.030
REMARK UNBOUND:                -0.924
REMARK  Name = 
REMARK  5 active torsions:
REMARK  status: ('A' for Active; 'I' for Inactive)
REMARK    1  A    between atoms: C_2  and  C_4
REMARK    2  A    between atoms: C_8  and  O_9
REMARK    3  A    between atoms: O_9  and  C_10
REMARK    4  A    between atoms: C_10  and  C_11
REMARK    5  A    between atoms: C_16  and  C_17
REMARK                            x       y       z     vdW  Elec       q    Type
REMARK                         _______ _______ _______ _____ _____    ______ ____
ROOT
ATOM      1  C   UNL     1      44.458   5.454  10.798  0.00  0.00    +0.000 C 
ENDROOT
BRANCH   1   2
ATOM      2  C   UNL     1      45.587   5.706  11.765  0.00  0.00    +0.000 A 
ATOM      3  C   UNL     1      45.789   4.860  12.858  0.00  0.00    +0.000 A 
ATOM      4  C   UNL     1      46.887   5.058  13.682  0.00  0.00    +0.000 A 
ATOM      5  F   UNL     1      47.101   4.218  14.705  0.00  0.00    +0.000 F 
ATOM      6  C   UNL     1      47.796   6.084  13.440  0.00  0.00    +0.000 A 
ATOM      7  C   UNL     1      47.633   6.950  12.346  0.00  0.00    +0.000 A 
ATOM      8  C   UNL     1      46.492   6.759  11.539  0.00  0.00    +0.000 A 
BRANCH   7   9
ATOM      9  C   UNL     1      48.660   7.957  11.991  0.00  0.00    +0.000 A 
ATOM     10  C   UNL     1      49.984   7.566  11.710  0.00  0.00    +0.000 A 
ATOM     11  C   UNL     1      50.947   8.486  11.288  0.00  0.00    +0.000 A 
ATOM     12  C   UNL     1      50.608   9.824  11.130  0.00  0.00    +0.000 A 
ATOM     13  C   UNL     1      49.311  10.244  11.412  0.00  0.00    +0.000 A 
ATOM     14  C   UNL     1      48.352   9.322  11.847  0.00  0.00    +0.000 A 
ENDBRANCH   7   9
ENDBRANCH   1   2
BRANCH   1  15
ATOM     15  O   UNL     1      44.972   5.299   9.477  0.00  0.00    +0.000 OA
BRANCH  15  20
ATOM     16  C   UNL     1      46.490   2.609   7.562  0.00  0.00    +0.000 A 
ATOM     17  C   UNL     1      45.871   1.472   8.089  0.00  0.00    +0.000 A 
ATOM     18  C   UNL     1      44.937   1.598   9.113  0.00  0.00    +0.000 A 
ATOM     19  C   UNL     1      44.612   2.863   9.610  0.00  0.00    +0.000 A 
ATOM     20  C   UNL     1      45.214   4.009   9.078  0.00  0.00    +0.000 A 
ATOM     21  C   UNL     1      46.146   3.878   8.048  0.00  0.00    +0.000 A 
BRANCH  16  23
ATOM     22  N   UNL     1      47.337   3.178   5.352  0.00  0.00    +0.000 N 
ATOM     23  C   UNL     1      47.494   2.428   6.484  0.00  0.00    +0.000 C 
ATOM     24  O   UNL     1      48.452   1.677   6.614  0.00  0.00    +0.000 OA
ATOM     25  H   UNL     1      48.087   3.132   4.675  0.00  0.00    +0.000 HD
ATOM     26  H   UNL     1      46.715   3.973   5.311  0.00  0.00    +0.000 HD
ENDBRANCH  16  23
ENDBRANCH  15  20
ENDBRANCH   1  15
TORSDOF 5
ENDMDL
MODEL 4
REMARK VINA RESULT:    -7.835      2.054      2.590
REMARK INTER + INTRA:         -11.049
REMARK INTER:                  -9.929
REMARK INTRA:                  -1.120
REMARK UNBOUND:                -0.924
REMARK  Name = 
REMARK  5 active torsions:
REMARK  status: ('A' for Active; 'I' for Inactive)
REMARK    1  A    between atoms: C_2  and  C_4
REMARK    2  A    between atoms: C_8  and  O_9
REMARK    3  A    between atoms: O_9  and  C_10
REMARK    4  A    between atoms: C_10  and  C_11
REMARK    5  A    between atoms: C_16  and  C_17
REMARK                            x       y       z     vdW  Elec       q    Type
REMARK                         _______ _______ _______ _____ _____    ______ ____
ROOT
ATOM      1  C   UNL     1      44.068   6.579  11.200  0.00  0.00    +0.000 C 
ENDROOT
BRANCH   1   2
ATOM      2  C   UNL     1      44.202   5.107  10.904  0.00  0.00    +0.000 A 
ATOM      3  C   UNL     1      43.457   4.168  11.620  0.00  0.00    +0.000 A 
ATOM      4  C   UNL     1      43.529   2.827  11.271  0.00  0.00    +0.000 A 
ATOM      5  F   UNL     1      42.780   1.934  11.931  0.00  0.00    +0.000 F 
ATOM      6  C   UNL     1      44.330   2.398  10.215  0.00  0.00    +0.000 A 
ATOM      7  C   UNL     1      45.088   3.313   9.466  0.00  0.00    +0.000 A 
ATOM      8  C   UNL     1      45.032   4.667   9.856  0.00  0.00    +0.000 A 
BRANCH   7   9
ATOM      9  C   UNL     1      45.835   2.897   8.255  0.00  0.00    +0.000 A 
ATOM     10  C   UNL     1      46.127   3.824   7.236  0.00  0.00    +0.000 A 
ATOM     11  C   UNL     1      46.905   3.477   6.129  0.00  0.00    +0.000 A 
ATOM     12  C   UNL     1      47.416   2.190   6.015  0.00  0.00    +0.000 A 
ATOM     13  C   UNL     1      47.134   1.246   6.998  0.00  0.00    +0.000 A 
ATOM     14  C   UNL     1      46.344   1.595   8.101  0.00  0.00    +0.000 A 
ENDBRANCH   7   9
ENDBRANCH   1   2
BRANCH   1  15
ATOM     15  O   UNL     1      44.548   6.860  12.513  0.00  0.00    +0.000 OA
BRANCH  15  20
ATOM     16  C   UNL     1      48.039   7.829  12.229  0.00  0.00    +0.000 A 
ATOM     17  C   UNL     1      48.698   6.795  12.900  0.00  0.00    +0.000 A 
ATOM     18  C   UNL     1      47.967   5.758  13.472  0.00  0.00    +0.000 A 
ATOM     19  C   UNL     1      46.574   5.746  13.369  0.00  0.00    +0.000 A 
ATOM     20  C   UNL     1      45.905   6.767  12.685  0.00  0.00    +0.000 A 
ATOM     21  C   UNL     1      46.643   7.803  12.109  0.00  0.00    +0.000 A 
BRANCH  16  23
ATOM     22  N   UNL     1      48.263  10.150  11.534  0.00  0.00    +0.000 N 
ATOM     23  C   UNL     1      48.855   8.924  11.649  0.00  0.00    +0.000 C 
ATOM     24  O   UNL     1      50.026   8.758  11.331  0.00  0.00    +0.000 OA
ATOM     25  H   UNL     1      48.861  10.914  11.246  0.00  0.00    +0.000 HD
ATOM     26  H   UNL     1      47.400  10.382  12.006  0.00  0.00    +0.000 HD
ENDBRANCH  16  23
ENDBRANCH  15  20
ENDBRANCH   1  15
TORSDOF 5
ENDMDL
MODEL 5
REMARK VINA RESULT:    -7.471      2.426      3.692
REMARK INTER + INTRA:         -10.579
REMARK INTER:                  -9.869
REMARK INTRA:                  -0.710
REMARK UNBOUND:                -0.924
REMARK  Name = 
REMARK  5 active torsions:
REMARK  status: ('A' for Active; 'I' for Inactive)
REMARK    1  A    between atoms: C_2  and  C_4
REMARK    2  A    between atoms: C_8  and  O_9
REMARK    3  A    between atoms: O_9  and  C_10
REMARK    4  A    between atoms: C_10  and  C_11
REMARK    5  A    between atoms: C_16  and  C_17
REMARK                            x       y       z     vdW  Elec       q    Type
REMARK                         _______ _______ _______ _____ _____    ______ ____
ROOT
ATOM      1  C   UNL     1      46.058   5.014  14.077  0.00  0.00    +0.000 C 
ENDROOT
BRANCH   1   2
ATOM      2  C   UNL     1      45.127   4.794  12.912  0.00  0.00    +0.000 A 
ATOM      3  C   UNL     1      43.828   5.303  12.935  0.00  0.00    +0.000 A 
ATOM      4  C   UNL     1      43.019   5.166  11.815  0.00  0.00    +0.000 A 
ATOM      5  F   UNL     1      41.787   5.693  11.825  0.00  0.00    +0.000 F 
ATOM      6  C   UNL     1      43.480   4.533  10.665  0.00  0.00    +0.000 A 
ATOM      7  C   UNL     1      44.785   4.015  10.599  0.00  0.00    +0.000 A 
ATOM      8  C   UNL     1      45.581   4.130  11.757  0.00  0.00    +0.000 A 
BRANCH   7   9
ATOM      9  C   UNL     1      45.340   3.463   9.341  0.00  0.00    +0.000 A 
ATOM     10  C   UNL     1      45.832   4.318   8.335  0.00  0.00    +0.000 A 
ATOM     11  C   UNL     1      46.440   3.820   7.181  0.00  0.00    +0.000 A 
ATOM     12  C   UNL     1      46.577   2.448   7.004  0.00  0.00    +0.000 A 
ATOM     13  C   UNL     1      46.089   1.576   7.973  0.00  0.00    +0.000 A 
ATOM     14  C   UNL     1      45.470   2.079   9.123  0.00  0.00    +0.000 A 
ENDBRANCH   7   9
ENDBRANCH   1   2
BRANCH   1  15
ATOM     15  O   UNL     1      46.677   3.783  14.447  0.00  0.00    +0.000 OA
BRANCH  15  20
ATOM     16  C   UNL     1      48.500   5.281  17.211  0.00  0.00    +0.000 A 
ATOM     17  C   UNL     1      49.056   4.169  17.849  0.00  0.00    +0.000 A 
ATOM     18  C   UNL     1      48.810   2.890  17.359  0.00  0.00    +0.000 A 
ATOM     19  C   UNL     1      48.014   2.717  16.224  0.00  0.00    +0.000 A 
ATOM     20  C   UNL     1      47.466   3.825  15.569  0.00  0.00    +0.000 A 
ATOM     21  C   UNL     1      47.719   5.107  16.061  0.00  0.00    +0.000 A 
BRANCH  16  23
ATOM     22  N   UNL     1      47.692   7.389  18.122  0.00  0.00    +0.000 N 
ATOM     23  C   UNL     1      48.772   6.626  17.777  0.00  0.00    +0.000 C 
ATOM     24  O   UNL     1      49.913   7.023  17.976  0.00  0.00    +0.000 OA
ATOM     25  H   UNL     1      47.889   8.252  18.611  0.00  0.00    +0.000 HD
ATOM     26  H   UNL     1      46.761   7.005  18.203  0.00  0.00    +0.000 HD
ENDBRANCH  16  23
ENDBRANCH  15  20
ENDBRANCH   1  15
TORSDOF 5
ENDMDL
MODEL 6
REMARK VINA RESULT:    -7.464      2.209      2.647
REMARK INTER + INTRA:         -10.570
REMARK INTER:                  -9.745
REMARK INTRA:                  -0.825
REMARK UNBOUND:                -0.924
REMARK  Name = 
REMARK  5 active torsions:
REMARK  status: ('A' for Active; 'I' for Inactive)
REMARK    1  A    between atoms: C_2  and  C_4
REMARK    2  A    between atoms: C_8  and  O_9
REMARK    3  A    between atoms: O_9  and  C_10
REMARK    4  A    between atoms: C_10  and  C_11
REMARK    5  A    between atoms: C_16  and  C_17
REMARK                            x       y       z     vdW  Elec       q    Type
REMARK                         _______ _______ _______ _____ _____    ______ ____
ROOT
ATOM      1  C   UNL     1      44.626   6.796  11.278  0.00  0.00    +0.000 C 
ENDROOT
BRANCH   1   2
ATOM      2  C   UNL     1      44.575   5.321  10.968  0.00  0.00    +0.000 A 
ATOM      3  C   UNL     1      43.734   4.472  11.690  0.00  0.00    +0.000 A 
ATOM      4  C   UNL     1      43.637   3.136  11.329  0.00  0.00    +0.000 A 
ATOM      5  F   UNL     1      42.797   2.334  11.996  0.00  0.00    +0.000 F 
ATOM      6  C   UNL     1      44.360   2.624  10.254  0.00  0.00    +0.000 A 
ATOM      7  C   UNL     1      45.210   3.449   9.498  0.00  0.00    +0.000 A 
ATOM      8  C   UNL     1      45.325   4.795   9.900  0.00  0.00    +0.000 A 
BRANCH   7   9
ATOM      9  C   UNL     1      45.878   2.958   8.270  0.00  0.00    +0.000 A 
ATOM     10  C   UNL     1      46.147   3.832   7.199  0.00  0.00    +0.000 A 
ATOM     11  C   UNL     1      46.854   3.413   6.069  0.00  0.00    +0.000 A 
ATOM     12  C   UNL     1      47.316   2.105   5.984  0.00  0.00    +0.000 A 
ATOM     13  C   UNL     1      47.054   1.213   7.019  0.00  0.00    +0.000 A 
ATOM     14  C   UNL     1      46.335   1.633   8.145  0.00  0.00    +0.000 A 
ENDBRANCH   7   9
ENDBRANCH   1   2
BRANCH   1  15
ATOM     15  O   UNL     1      45.432   7.025  12.432  0.00  0.00    +0.000 OA
BRANCH  15  20
ATOM     16  C   UNL     1      48.797   8.397  12.344  0.00  0.00    +0.000 A 
ATOM     17  C   UNL     1      48.568   9.750  12.079  0.00  0.00    +0.000 A 
ATOM     18  C   UNL     1      47.268  10.218  11.913  0.00  0.00    +0.000 A 
ATOM     19  C   UNL     1      46.189   9.335  12.019  0.00  0.00    +0.000 A 
ATOM     20  C   UNL     1      46.407   7.982  12.299  0.00  0.00    +0.000 A 
ATOM     21  C   UNL     1      47.712   7.518  12.469  0.00  0.00    +0.000 A 
BRANCH  16  23
ATOM     22  N   UNL     1      50.853   7.542  11.362  0.00  0.00    +0.000 N 
ATOM     23  C   UNL     1      50.200   7.937  12.495  0.00  0.00    +0.000 C 
ATOM     24  O   UNL     1      50.770   7.953  13.579  0.00  0.00    +0.000 OA
ATOM     25  H   UNL     1      51.840   7.341  11.459  0.00  0.00    +0.000 HD
ATOM     26  H   UNL     1      50.505   7.746  10.436  0.00  0.00    +0.000 HD
ENDBRANCH  16  23
ENDBRANCH  15  20
ENDBRANCH   1  15
TORSDOF 5
ENDMDL
MODEL 7
REMARK VINA RESULT:    -7.460      2.281      3.445
REMARK INTER + INTRA:         -10.565
REMARK INTER:                  -9.919
REMARK INTRA:                  -0.646
REMARK UNBOUND:                -0.924
REMARK  Name = 
REMARK  5 active torsions:
REMARK  status: ('A' for Active; 'I' for Inactive)
REMARK    1  A    between atoms: C_2  and  C_4
REMARK    2  A    between atoms: C_8  and  O_9
REMARK    3  A    between atoms: O_9  and  C_10
REMARK    4  A    between atoms: C_10  and  C_11
REMARK    5  A    between atoms: C_16  and  C_17
REMARK                            x       y       z     vdW  Elec       q    Type
REMARK                         _______ _______ _______ _____ _____    ______ ____
ROOT
ATOM      1  C   UNL     1      46.086   5.281  13.917  0.00  0.00    +0.000 C 
ENDROOT
BRANCH   1   2
ATOM      2  C   UNL     1      45.137   4.933  12.799  0.00  0.00    +0.000 A 
ATOM      3  C   UNL     1      43.807   5.358  12.838  0.00  0.00    +0.000 A 
ATOM      4  C   UNL     1      42.976   5.104  11.756  0.00  0.00    +0.000 A 
ATOM      5  F   UNL     1      41.713   5.549  11.779  0.00  0.00    +0.000 F 
ATOM      6  C   UNL     1      43.443   4.435  10.628  0.00  0.00    +0.000 A 
ATOM      7  C   UNL     1      44.777   4.000  10.546  0.00  0.00    +0.000 A 
ATOM      8  C   UNL     1      45.599   4.234  11.668  0.00  0.00    +0.000 A 
BRANCH   7   9
ATOM      9  C   UNL     1      45.329   3.414   9.303  0.00  0.00    +0.000 A 
ATOM     10  C   UNL     1      45.803   4.241   8.266  0.00  0.00    +0.000 A 
ATOM     11  C   UNL     1      46.408   3.711   7.123  0.00  0.00    +0.000 A 
ATOM     12  C   UNL     1      46.560   2.336   6.991  0.00  0.00    +0.000 A 
ATOM     13  C   UNL     1      46.090   1.491   7.993  0.00  0.00    +0.000 A 
ATOM     14  C   UNL     1      45.474   2.025   9.131  0.00  0.00    +0.000 A 
ENDBRANCH   7   9
ENDBRANCH   1   2
BRANCH   1  15
ATOM     15  O   UNL     1      47.421   5.353  13.420  0.00  0.00    +0.000 OA
BRANCH  15  20
ATOM     16  C   UNL     1      47.070   8.822  12.393  0.00  0.00    +0.000 A 
ATOM     17  C   UNL     1      48.353   9.136  11.936  0.00  0.00    +0.000 A 
ATOM     18  C   UNL     1      49.363   8.180  11.981  0.00  0.00    +0.000 A 
ATOM     19  C   UNL     1      49.092   6.901  12.476  0.00  0.00    +0.000 A 
ATOM     20  C   UNL     1      47.808   6.571  12.921  0.00  0.00    +0.000 A 
ATOM     21  C   UNL     1      46.797   7.532  12.870  0.00  0.00    +0.000 A 
BRANCH  16  23
ATOM     22  N   UNL     1      44.774   9.536  12.771  0.00  0.00    +0.000 N 
ATOM     23  C   UNL     1      46.027   9.877  12.345  0.00  0.00    +0.000 C 
ATOM     24  O   UNL     1      46.282  11.019  11.986  0.00  0.00    +0.000 OA
ATOM     25  H   UNL     1      44.103  10.290  12.842  0.00  0.00    +0.000 HD
ATOM     26  H   UNL     1      44.591   8.693  13.297  0.00  0.00    +0.000 HD
ENDBRANCH  16  23
ENDBRANCH  15  20
ENDBRANCH   1  15
TORSDOF 5
ENDMDL
MODEL 8
REMARK VINA RESULT:    -7.376      1.987      2.561
REMARK INTER + INTRA:         -10.456
REMARK INTER:                  -9.576
REMARK INTRA:                  -0.880
REMARK UNBOUND:                -0.924
REMARK  Name = 
REMARK  5 active torsions:
REMARK  status: ('A' for Active; 'I' for Inactive)
REMARK    1  A    between atoms: C_2  and  C_4
REMARK    2  A    between atoms: C_8  and  O_9
REMARK    3  A    between atoms: O_9  and  C_10
REMARK    4  A    between atoms: C_10  and  C_11
REMARK    5  A    between atoms: C_16  and  C_17
REMARK                            x       y       z     vdW  Elec       q    Type
REMARK                         _______ _______ _______ _____ _____    ______ ____
ROOT
ATOM      1  C   UNL     1      46.156   7.539  12.111  0.00  0.00    +0.000 C 
ENDROOT
BRANCH   1   2
ATOM      2  C   UNL     1      45.268   6.449  11.567  0.00  0.00    +0.000 A 
ATOM      3  C   UNL     1      43.911   6.410  11.891  0.00  0.00    +0.000 A 
ATOM      4  C   UNL     1      43.096   5.450  11.307  0.00  0.00    +0.000 A 
ATOM      5  F   UNL     1      41.786   5.442  11.587  0.00  0.00    +0.000 F 
ATOM      6  C   UNL     1      43.605   4.525  10.400  0.00  0.00    +0.000 A 
ATOM      7  C   UNL     1      44.964   4.537  10.042  0.00  0.00    +0.000 A 
ATOM      8  C   UNL     1      45.786   5.495  10.671  0.00  0.00    +0.000 A 
BRANCH   7   9
ATOM      9  C   UNL     1      45.495   3.655   8.977  0.00  0.00    +0.000 A 
ATOM     10  C   UNL     1      46.101   4.198   7.827  0.00  0.00    +0.000 A 
ATOM     11  C   UNL     1      46.687   3.387   6.853  0.00  0.00    +0.000 A 
ATOM     12  C   UNL     1      46.688   2.006   7.008  0.00  0.00    +0.000 A 
ATOM     13  C   UNL     1      46.086   1.437   8.126  0.00  0.00    +0.000 A 
ATOM     14  C   UNL     1      45.489   2.253   9.094  0.00  0.00    +0.000 A 
ENDBRANCH   7   9
ENDBRANCH   1   2
BRANCH   1  15
ATOM     15  O   UNL     1      47.519   7.262  11.797  0.00  0.00    +0.000 OA
BRANCH  15  20
ATOM     16  C   UNL     1      48.830   6.547  15.110  0.00  0.00    +0.000 A 
ATOM     17  C   UNL     1      50.025   7.272  15.129  0.00  0.00    +0.000 A 
ATOM     18  C   UNL     1      50.412   8.006  14.012  0.00  0.00    +0.000 A 
ATOM     19  C   UNL     1      49.603   8.024  12.873  0.00  0.00    +0.000 A 
ATOM     20  C   UNL     1      48.397   7.315  12.850  0.00  0.00    +0.000 A 
ATOM     21  C   UNL     1      48.010   6.584  13.974  0.00  0.00    +0.000 A 
BRANCH  16  23
ATOM     22  N   UNL     1      47.363   4.958  16.226  0.00  0.00    +0.000 N 
ATOM     23  C   UNL     1      48.463   5.763  16.316  0.00  0.00    +0.000 C 
ATOM     24  O   UNL     1      49.140   5.794  17.336  0.00  0.00    +0.000 OA
ATOM     25  H   UNL     1      47.190   4.344  17.012  0.00  0.00    +0.000 HD
ATOM     26  H   UNL     1      46.935   4.721  15.342  0.00  0.00    +0.000 HD
ENDBRANCH  16  23
ENDBRANCH  15  20
ENDBRANCH   1  15
TORSDOF 5
ENDMDL
MODEL 9
REMARK VINA RESULT:    -7.334      2.388      3.011
REMARK INTER + INTRA:         -10.402
REMARK INTER:                  -9.408
REMARK INTRA:                  -0.994
REMARK UNBOUND:                -0.924
REMARK  Name = 
REMARK  5 active torsions:
REMARK  status: ('A' for Active; 'I' for Inactive)
REMARK    1  A    between atoms: C_2  and  C_4
REMARK    2  A    between atoms: C_8  and  O_9
REMARK    3  A    between atoms: O_9  and  C_10
REMARK    4  A    between atoms: C_10  and  C_11
REMARK    5  A    between atoms: C_16  and  C_17
REMARK                            x       y       z     vdW  Elec       q    Type
REMARK                         _______ _______ _______ _____ _____    ______ ____
ROOT
ATOM      1  C   UNL     1      46.080   4.591  13.942  0.00  0.00    +0.000 C 
ENDROOT
BRANCH   1   2
ATOM      2  C   UNL     1      45.156   4.447  12.760  0.00  0.00    +0.000 A 
ATOM      3  C   UNL     1      43.874   4.999  12.789  0.00  0.00    +0.000 A 
ATOM      4  C   UNL     1      43.075   4.933  11.657  0.00  0.00    +0.000 A 
ATOM      5  F   UNL     1      41.861   5.501  11.675  0.00  0.00    +0.000 F 
ATOM      6  C   UNL     1      43.528   4.329  10.488  0.00  0.00    +0.000 A 
ATOM      7  C   UNL     1      44.815   3.770  10.415  0.00  0.00    +0.000 A 
ATOM      8  C   UNL     1      45.601   3.813  11.585  0.00  0.00    +0.000 A 
BRANCH   7   9
ATOM      9  C   UNL     1      45.366   3.248   9.143  0.00  0.00    +0.000 A 
ATOM     10  C   UNL     1      45.745   4.126   8.109  0.00  0.00    +0.000 A 
ATOM     11  C   UNL     1      46.348   3.663   6.937  0.00  0.00    +0.000 A 
ATOM     12  C   UNL     1      46.594   2.306   6.771  0.00  0.00    +0.000 A 
ATOM     13  C   UNL     1      46.219   1.411   7.769  0.00  0.00    +0.000 A 
ATOM     14  C   UNL     1      45.604   1.877   8.937  0.00  0.00    +0.000 A 
ENDBRANCH   7   9
ENDBRANCH   1   2
BRANCH   1  15
ATOM     15  O   UNL     1      47.408   4.857  13.495  0.00  0.00    +0.000 OA
BRANCH  15  20
ATOM     16  C   UNL     1      48.384   8.231  14.431  0.00  0.00    +0.000 A 
ATOM     17  C   UNL     1      48.395   8.898  13.203  0.00  0.00    +0.000 A 
ATOM     18  C   UNL     1      48.083   8.209  12.034  0.00  0.00    +0.000 A 
ATOM     19  C   UNL     1      47.752   6.853  12.089  0.00  0.00    +0.000 A 
ATOM     20  C   UNL     1      47.723   6.180  13.315  0.00  0.00    +0.000 A 
ATOM     21  C   UNL     1      48.032   6.875  14.485  0.00  0.00    +0.000 A 
BRANCH  16  23
ATOM     22  N   UNL     1      47.711   9.484  16.406  0.00  0.00    +0.000 N 
ATOM     23  C   UNL     1      48.741   8.998  15.651  0.00  0.00    +0.000 C 
ATOM     24  O   UNL     1      49.904   9.150  16.000  0.00  0.00    +0.000 OA
ATOM     25  H   UNL     1      47.962   9.904  17.292  0.00  0.00    +0.000 HD
ATOM     26  H   UNL     1      46.757   9.172  16.287  0.00  0.00    +0.000 HD
ENDBRANCH  16  23
ENDBRANCH  15  20
ENDBRANCH   1  15
TORSDOF 5
ENDMDL
