MODEL 1
REMARK VINA RESULT:    -7.365      0.000      0.000
REMARK INTER + INTRA:         -11.298
REMARK INTER:                 -10.379
REMARK INTRA:                  -0.920
REMARK UNBOUND:                -0.920
REMARK  Name = 
REMARK  7 active torsions:
REMARK  status: ('A' for Active; 'I' for Inactive)
REMARK    1  A    between atoms: C_2  and  C_20
REMARK    2  A    between atoms: N_3  and  C_4
REMARK    3  A    between atoms: C_4  and  C_5
REMARK    4  A    between atoms: C_8  and  C_9
REMARK    5  A    between atoms: C_9  and  N_10
REMARK    6  A    between atoms: N_10  and  C_11
REMARK    7  A    between atoms: C_11  and  C_12
REMARK                            x       y       z     vdW  Elec       q    Type
REMARK                         _______ _______ _______ _____ _____    ______ ____
ROOT
ATOM      1  C   UNL     1      47.326   6.283  13.688  0.00  0.00    +0.000 A 
ATOM      2  C   UNL     1      46.460   6.751  12.697  0.00  0.00    +0.000 A 
ATOM      3  C   UNL     1      45.322   6.015  12.371  0.00  0.00    +0.000 A 
ATOM      4  C   UNL     1      45.089   4.819  13.040  0.00  0.00    +0.000 A 
ATOM      5  N   UNL     1      45.957   4.309  13.952  0.00  0.00    +0.000 NA
ATOM      6  C   UNL     1      47.041   5.051  14.259  0.00  0.00    +0.000 A 
ENDROOT
BRANCH   1   7
ATOM      7  C   UNL     1      48.539   7.053  14.117  0.00  0.00    +0.000 C 
BRANCH   7  10
ATOM      8  O   UNL     1      50.602   6.362  15.897  0.00  0.00    +0.000 OA
ATOM      9  C   UNL     1      49.615   6.946  16.330  0.00  0.00    +0.000 C 
ATOM     10  N   UNL     1      48.547   7.271  15.541  0.00  0.00    +0.000 N 
ATOM     11  H   UNL     1      47.857   7.928  15.888  0.00  0.00    +0.000 HD
BRANCH   9  12
ATOM     12  C   UNL     1      49.484   7.289  17.750  0.00  0.00    +0.000 A 
ATOM     13  C   UNL     1      50.266   8.294  18.298  0.00  0.00    +0.000 A 
ATOM     14  S   UNL     1      49.994   8.536  19.965  0.00  0.00    +0.000 S 
ATOM     15  C   UNL     1      48.788   7.335  19.999  0.00  0.00    +0.000 A 
ATOM     16  N   UNL     1      48.113   7.051  21.146  0.00  0.00    +0.000 NA
ATOM     17  C   UNL     1      47.197   6.151  21.014  0.00  0.00    +0.000 A 
ATOM     18  N   UNL     1      46.905   5.497  19.847  0.00  0.00    +0.000 N 
ATOM     19  C   UNL     1      47.611   5.695  18.685  0.00  0.00    +0.000 A 
ATOM     20  O   UNL     1      47.410   5.000  17.697  0.00  0.00    +0.000 OA
ATOM     21  C   UNL     1      48.617   6.738  18.765  0.00  0.00    +0.000 A 
ATOM     22  H   UNL     1      46.197   4.775  19.819  0.00  0.00    +0.000 HD
ENDBRANCH   9  12
ENDBRANCH   7  10
ENDBRANCH   1   7
BRANCH   4  23
ATOM     23  C   UNL     1      43.826   4.022  12.765  0.00  0.00    +0.000 C 
BRANCH  23  24
ATOM     24  N   UNL     1      44.060   2.762  12.040  0.00  0.00    +0.000 NA
ATOM     25  H   UNL     1      43.162   2.518  11.612  0.00  0.00    +0.000 HD
BRANCH  24  26
ATOM     26  C   UNL     1      45.036   2.912  10.946  0.00  0.00    +0.000 C 
BRANCH  26  27
ATOM     27  C   UNL     1      44.305   2.818   9.588  0.00  0.00    +0.000 C 
ATOM     28  C   UNL     1      44.830   1.657   8.727  0.00  0.00    +0.000 C 
ATOM     29  C   UNL     1      46.234   1.956   8.207  0.00  0.00    +0.000 C 
ATOM     30  C   UNL     1      46.276   3.299   7.479  0.00  0.00    +0.000 C 
ATOM     31  N   UNL     1      45.768   4.397   8.305  0.00  0.00    +0.000 NA
ATOM     32  C   UNL     1      44.409   4.124   8.782  0.00  0.00    +0.000 C 
ATOM     33  H   UNL     1      45.758   5.251   7.748  0.00  0.00    +0.000 HD
ENDBRANCH  26  27
ENDBRANCH  24  26
ENDBRANCH  23  24
ENDBRANCH   4  23
TORSDOF 7
ENDMDL
MODEL 2
REMARK VINA RESULT:    -7.305      3.515      8.833
REMARK INTER + INTRA:         -11.214
REMARK INTER:                  -9.576
REMARK INTRA:                  -1.638
REMARK UNBOUND:                -0.920
REMARK  Name = 
REMARK  7 active torsions:
REMARK  status: ('A' for Active; 'I' for Inactive)
REMARK    1  A    between atoms: C_2  and  C_20
REMARK    2  A    between atoms: N_3  and  C_4
REMARK    3  A    between atoms: C_4  and  C_5
REMARK    4  A    between atoms: C_8  and  C_9
REMARK    5  A    between atoms: C_9  and  N_10
REMARK    6  A    between atoms: N_10  and  C_11
REMARK    7  A    between atoms: C_11  and  C_12
REMARK                            x       y       z     vdW  Elec       q    Type
REMARK                         _______ _______ _______ _____ _____    ______ ____
ROOT
ATOM      1  C   UNL     1      48.545   7.613  12.970  0.00  0.00    +0.000 A 
ATOM      2  C   UNL     1      49.595   8.516  13.153  0.00  0.00    +0.000 A 
ATOM      3  C   UNL     1      50.494   8.325  14.202  0.00  0.00    +0.000 A 
ATOM      4  C   UNL     1      50.308   7.239  15.049  0.00  0.00    +0.000 A 
ATOM      5  N   UNL     1      49.250   6.394  14.934  0.00  0.00    +0.000 NA
ATOM      6  C   UNL     1      48.406   6.593  13.901  0.00  0.00    +0.000 A 
ENDROOT
BRANCH   1   7
ATOM      7  C   UNL     1      47.575   7.736  11.833  0.00  0.00    +0.000 C 
BRANCH   7  10
ATOM      8  O   UNL     1      44.778   7.467  11.922  0.00  0.00    +0.000 OA
ATOM      9  C   UNL     1      45.462   6.484  11.657  0.00  0.00    +0.000 C 
ATOM     10  N   UNL     1      46.828   6.520  11.645  0.00  0.00    +0.000 N 
ATOM     11  H   UNL     1      47.340   5.752  11.223  0.00  0.00    +0.000 HD
BRANCH   9  12
ATOM     12  C   UNL     1      44.857   5.174  11.389  0.00  0.00    +0.000 A 
ATOM     13  C   UNL     1      44.057   4.569  12.347  0.00  0.00    +0.000 A 
ATOM     14  S   UNL     1      43.462   3.042  11.869  0.00  0.00    +0.000 S 
ATOM     15  C   UNL     1      44.217   3.163  10.348  0.00  0.00    +0.000 A 
ATOM     16  N   UNL     1      44.082   2.178   9.418  0.00  0.00    +0.000 NA
ATOM     17  C   UNL     1      44.671   2.423   8.296  0.00  0.00    +0.000 A 
ATOM     18  N   UNL     1      45.395   3.552   8.022  0.00  0.00    +0.000 N 
ATOM     19  C   UNL     1      45.623   4.535   8.955  0.00  0.00    +0.000 A 
ATOM     20  O   UNL     1      46.383   5.466   8.719  0.00  0.00    +0.000 OA
ATOM     21  C   UNL     1      44.937   4.335  10.217  0.00  0.00    +0.000 A 
ATOM     22  H   UNL     1      45.862   3.667   7.132  0.00  0.00    +0.000 HD
ENDBRANCH   9  12
ENDBRANCH   7  10
ENDBRANCH   1   7
BRANCH   4  23
ATOM     23  C   UNL     1      51.304   6.955  16.159  0.00  0.00    +0.000 C 
BRANCH  23  24
ATOM     24  N   UNL     1      50.697   6.398  17.379  0.00  0.00    +0.000 NA
ATOM     25  H   UNL     1      49.699   6.617  17.317  0.00  0.00    +0.000 HD
BRANCH  24  26
ATOM     26  C   UNL     1      50.815   4.929  17.450  0.00  0.00    +0.000 C 
BRANCH  26  27
ATOM     27  C   UNL     1      49.747   4.373  18.418  0.00  0.00    +0.000 C 
ATOM     28  C   UNL     1      49.149   3.048  17.920  0.00  0.00    +0.000 C 
ATOM     29  C   UNL     1      48.254   3.276  16.704  0.00  0.00    +0.000 C 
ATOM     30  C   UNL     1      47.190   4.333  16.996  0.00  0.00    +0.000 C 
ATOM     31  N   UNL     1      47.770   5.589  17.476  0.00  0.00    +0.000 NA
ATOM     32  C   UNL     1      48.606   5.376  18.660  0.00  0.00    +0.000 C 
ATOM     33  H   UNL     1      47.013   6.231  17.715  0.00  0.00    +0.000 HD
ENDBRANCH  26  27
ENDBRANCH  24  26
ENDBRANCH  23  24
ENDBRANCH   4  23
TORSDOF 7
ENDMDL
MODEL 3
REMARK VINA RESULT:    -7.115      3.476      8.051
REMARK INTER + INTRA:         -10.946
REMARK INTER:                  -9.185
REMARK INTRA:                  -1.761
REMARK UNBOUND:                -0.920
REMARK  Name = 
REMARK  7 active torsions:
REMARK  status: ('A' for Active; 'I' for Inactive)
REMARK    1  A    between atoms: C_2  and  C_20
REMARK    2  A    between atoms: N_3  and  C_4
REMARK    3  A    between atoms: C_4  and  C_5
REMARK    4  A    between atoms: C_8  and  C_9
REMARK    5  A    between atoms: C_9  and  N_10
REMARK    6  A    between atoms: N_10  and  C_11
REMARK    7  A    between atoms: C_11  and  C_12
REMARK                            x       y       z     vdW  Elec       q    Type
REMARK                         _______ _______ _______ _____ _____    ______ ____
ROOT
ATOM      1  C   UNL     1      48.513   8.002  13.515  0.00  0.00    +0.000 A 
ATOM      2  C   UNL     1      48.132   8.934  14.483  0.00  0.00    +0.000 A 
ATOM      3  C   UNL     1      48.507   8.742  15.812  0.00  0.00    +0.000 A 
ATOM      4  C   UNL     1      49.245   7.610  16.138  0.00  0.00    +0.000 A 
ATOM      5  N   UNL     1      49.560   6.654  15.225  0.00  0.00    +0.000 NA
ATOM      6  C   UNL     1      49.199   6.874  13.945  0.00  0.00    +0.000 A 
ENDROOT
BRANCH   1   7
ATOM      7  C   UNL     1      48.182   8.178  12.063  0.00  0.00    +0.000 C 
BRANCH   7  10
ATOM      8  O   UNL     1      45.396   7.904  11.810  0.00  0.00    +0.000 OA
ATOM      9  C   UNL     1      46.120   7.000  11.408  0.00  0.00    +0.000 C 
ATOM     10  N   UNL     1      47.480   7.033  11.541  0.00  0.00    +0.000 N 
ATOM     11  H   UNL     1      48.045   6.374  11.016  0.00  0.00    +0.000 HD
BRANCH   9  12
ATOM     12  C   UNL     1      45.569   5.782  10.804  0.00  0.00    +0.000 A 
ATOM     13  C   UNL     1      45.807   5.501   9.467  0.00  0.00    +0.000 A 
ATOM     14  S   UNL     1      45.069   4.057   8.935  0.00  0.00    +0.000 S 
ATOM     15  C   UNL     1      44.446   3.738  10.487  0.00  0.00    +0.000 A 
ATOM     16  N   UNL     1      43.722   2.613  10.734  0.00  0.00    +0.000 NA
ATOM     17  C   UNL     1      43.352   2.478  11.963  0.00  0.00    +0.000 A 
ATOM     18  N   UNL     1      43.625   3.372  12.965  0.00  0.00    +0.000 N 
ATOM     19  C   UNL     1      44.285   4.557  12.746  0.00  0.00    +0.000 A 
ATOM     20  O   UNL     1      44.396   5.392  13.635  0.00  0.00    +0.000 OA
ATOM     21  C   UNL     1      44.771   4.732  11.390  0.00  0.00    +0.000 A 
ATOM     22  H   UNL     1      43.275   3.224  13.902  0.00  0.00    +0.000 HD
ENDBRANCH   9  12
ENDBRANCH   7  10
ENDBRANCH   1   7
BRANCH   4  23
ATOM     23  C   UNL     1      49.734   7.399  17.560  0.00  0.00    +0.000 C 
BRANCH  23  24
ATOM     24  N   UNL     1      48.841   6.563  18.381  0.00  0.00    +0.000 NA
ATOM     25  H   UNL     1      47.983   6.455  17.834  0.00  0.00    +0.000 HD
BRANCH  24  26
ATOM     26  C   UNL     1      49.384   5.211  18.609  0.00  0.00    +0.000 C 
BRANCH  26  27
ATOM     27  C   UNL     1      48.226   4.189  18.630  0.00  0.00    +0.000 C 
ATOM     28  C   UNL     1      48.671   2.800  18.146  0.00  0.00    +0.000 C 
ATOM     29  C   UNL     1      48.939   2.806  16.643  0.00  0.00    +0.000 C 
ATOM     30  C   UNL     1      47.734   3.343  15.872  0.00  0.00    +0.000 C 
ATOM     31  N   UNL     1      47.314   4.664  16.345  0.00  0.00    +0.000 NA
ATOM     32  C   UNL     1      47.028   4.653  17.782  0.00  0.00    +0.000 C 
ATOM     33  H   UNL     1      46.471   4.942  15.841  0.00  0.00    +0.000 HD
ENDBRANCH  26  27
ENDBRANCH  24  26
ENDBRANCH  23  24
ENDBRANCH   4  23
TORSDOF 7
ENDMDL
MODEL 4
REMARK VINA RESULT:    -7.053      3.441      7.988
REMARK INTER + INTRA:         -10.858
REMARK INTER:                  -8.887
REMARK INTRA:                  -1.971
REMARK UNBOUND:                -0.920
REMARK  Name = 
REMARK  7 active torsions:
REMARK  status: ('A' for Active; 'I' for Inactive)
REMARK    1  A    between atoms: C_2  and  C_20
REMARK    2  A    between atoms: N_3  and  C_4
REMARK    3  A    between atoms: C_4  and  C_5
REMARK    4  A    between atoms: C_8  and  C_9
REMARK    5  A    between atoms: C_9  and  N_10
REMARK    6  A    between atoms: N_10  and  C_11
REMARK    7  A    between atoms: C_11  and  C_12
REMARK                            x       y       z     vdW  Elec       q    Type
REMARK                         _______ _______ _______ _____ _____    ______ ____
ROOT
ATOM      1  C   UNL     1      49.340   7.707  15.732  0.00  0.00    +0.000 A 
ATOM      2  C   UNL     1      50.631   7.231  15.494  0.00  0.00    +0.000 A 
ATOM      3  C   UNL     1      51.326   6.580  16.513  0.00  0.00    +0.000 A 
ATOM      4  C   UNL     1      50.710   6.435  17.751  0.00  0.00    +0.000 A 
ATOM      5  N   UNL     1      49.486   6.957  18.025  0.00  0.00    +0.000 NA
ATOM      6  C   UNL     1      48.831   7.567  17.016  0.00  0.00    +0.000 A 
ENDROOT
BRANCH   1   7
ATOM      7  C   UNL     1      48.525   8.372  14.664  0.00  0.00    +0.000 C 
BRANCH   7  10
ATOM      8  O   UNL     1      48.884   6.357  12.738  0.00  0.00    +0.000 OA
ATOM      9  C   UNL     1      47.778   6.501  13.246  0.00  0.00    +0.000 C 
ATOM     10  N   UNL     1      47.508   7.489  14.152  0.00  0.00    +0.000 N 
ATOM     11  H   UNL     1      46.653   7.443  14.695  0.00  0.00    +0.000 HD
BRANCH   9  12
ATOM     12  C   UNL     1      46.641   5.653  12.873  0.00  0.00    +0.000 A 
ATOM     13  C   UNL     1      46.678   4.290  13.126  0.00  0.00    +0.000 A 
ATOM     14  S   UNL     1      45.280   3.463  12.602  0.00  0.00    +0.000 S 
ATOM     15  C   UNL     1      44.561   4.908  12.062  0.00  0.00    +0.000 A 
ATOM     16  N   UNL     1      43.313   4.909  11.518  0.00  0.00    +0.000 NA
ATOM     17  C   UNL     1      42.876   6.080  11.195  0.00  0.00    +0.000 A 
ATOM     18  N   UNL     1      43.576   7.247  11.349  0.00  0.00    +0.000 N 
ATOM     19  C   UNL     1      44.866   7.284  11.820  0.00  0.00    +0.000 A 
ATOM     20  O   UNL     1      45.509   8.327  11.822  0.00  0.00    +0.000 OA
ATOM     21  C   UNL     1      45.386   6.000  12.251  0.00  0.00    +0.000 A 
ATOM     22  H   UNL     1      43.189   8.129  11.042  0.00  0.00    +0.000 HD
ENDBRANCH   9  12
ENDBRANCH   7  10
ENDBRANCH   1   7
BRANCH   4  23
ATOM     23  C   UNL     1      51.403   5.671  18.865  0.00  0.00    +0.000 C 
BRANCH  23  24
ATOM     24  N   UNL     1      50.926   4.287  19.028  0.00  0.00    +0.000 NA
ATOM     25  H   UNL     1      50.026   4.359  19.509  0.00  0.00    +0.000 HD
BRANCH  24  26
ATOM     26  C   UNL     1      50.676   3.620  17.737  0.00  0.00    +0.000 C 
BRANCH  26  27
ATOM     27  C   UNL     1      49.427   2.718  17.857  0.00  0.00    +0.000 C 
ATOM     28  C   UNL     1      48.600   2.698  16.562  0.00  0.00    +0.000 C 
ATOM     29  C   UNL     1      47.893   4.034  16.346  0.00  0.00    +0.000 C 
ATOM     30  C   UNL     1      47.066   4.422  17.571  0.00  0.00    +0.000 C 
ATOM     31  N   UNL     1      47.861   4.431  18.801  0.00  0.00    +0.000 NA
ATOM     32  C   UNL     1      48.518   3.140  19.025  0.00  0.00    +0.000 C 
ATOM     33  H   UNL     1      47.246   4.632  19.590  0.00  0.00    +0.000 HD
ENDBRANCH  26  27
ENDBRANCH  24  26
ENDBRANCH  23  24
ENDBRANCH   4  23
TORSDOF 7
ENDMDL
MODEL 5
REMARK VINA RESULT:    -6.857      1.977      2.882
REMARK INTER + INTRA:         -10.582
REMARK INTER:                  -9.674
REMARK INTRA:                  -0.908
REMARK UNBOUND:                -0.920
REMARK  Name = 
REMARK  7 active torsions:
REMARK  status: ('A' for Active; 'I' for Inactive)
REMARK    1  A    between atoms: C_2  and  C_20
REMARK    2  A    between atoms: N_3  and  C_4
REMARK    3  A    between atoms: C_4  and  C_5
REMARK    4  A    between atoms: C_8  and  C_9
REMARK    5  A    between atoms: C_9  and  N_10
REMARK    6  A    between atoms: N_10  and  C_11
REMARK    7  A    between atoms: C_11  and  C_12
REMARK                            x       y       z     vdW  Elec       q    Type
REMARK                         _______ _______ _______ _____ _____    ______ ____
ROOT
ATOM      1  C   UNL     1      46.962   4.723  14.233  0.00  0.00    +0.000 A 
ATOM      2  C   UNL     1      47.454   5.897  13.659  0.00  0.00    +0.000 A 
ATOM      3  C   UNL     1      46.916   6.356  12.457  0.00  0.00    +0.000 A 
ATOM      4  C   UNL     1      45.904   5.616  11.856  0.00  0.00    +0.000 A 
ATOM      5  N   UNL     1      45.465   4.433  12.359  0.00  0.00    +0.000 NA
ATOM      6  C   UNL     1      45.992   4.022  13.530  0.00  0.00    +0.000 A 
ENDROOT
BRANCH   1   7
ATOM      7  C   UNL     1      47.466   4.205  15.547  0.00  0.00    +0.000 C 
BRANCH   7  10
ATOM      8  O   UNL     1      49.673   5.560  16.641  0.00  0.00    +0.000 OA
ATOM      9  C   UNL     1      48.544   5.867  17.010  0.00  0.00    +0.000 C 
ATOM     10  N   UNL     1      47.424   5.222  16.565  0.00  0.00    +0.000 N 
ATOM     11  H   UNL     1      46.514   5.639  16.732  0.00  0.00    +0.000 HD
BRANCH   9  12
ATOM     12  C   UNL     1      48.320   6.919  18.008  0.00  0.00    +0.000 A 
ATOM     13  C   UNL     1      48.269   6.599  19.356  0.00  0.00    +0.000 A 
ATOM     14  S   UNL     1      47.977   7.945  20.364  0.00  0.00    +0.000 S 
ATOM     15  C   UNL     1      47.954   9.006  19.032  0.00  0.00    +0.000 A 
ATOM     16  N   UNL     1      47.772  10.343  19.205  0.00  0.00    +0.000 NA
ATOM     17  C   UNL     1      47.822  11.032  18.114  0.00  0.00    +0.000 A 
ATOM     18  N   UNL     1      48.021  10.506  16.865  0.00  0.00    +0.000 N 
ATOM     19  C   UNL     1      48.131   9.155  16.636  0.00  0.00    +0.000 A 
ATOM     20  O   UNL     1      48.176   8.710  15.495  0.00  0.00    +0.000 OA
ATOM     21  C   UNL     1      48.136   8.340  17.836  0.00  0.00    +0.000 A 
ATOM     22  H   UNL     1      48.014  11.097  16.046  0.00  0.00    +0.000 HD
ENDBRANCH   9  12
ENDBRANCH   7  10
ENDBRANCH   1   7
BRANCH   4  23
ATOM     23  C   UNL     1      45.242   6.117  10.584  0.00  0.00    +0.000 C 
BRANCH  23  24
ATOM     24  N   UNL     1      44.842   5.046   9.656  0.00  0.00    +0.000 NA
ATOM     25  H   UNL     1      44.060   5.426   9.116  0.00  0.00    +0.000 HD
BRANCH  24  26
ATOM     26  C   UNL     1      45.908   4.704   8.696  0.00  0.00    +0.000 C 
BRANCH  26  27
ATOM     27  C   UNL     1      45.331   3.788   7.593  0.00  0.00    +0.000 C 
ATOM     28  C   UNL     1      44.637   2.546   8.177  0.00  0.00    +0.000 C 
ATOM     29  C   UNL     1      45.659   1.576   8.764  0.00  0.00    +0.000 C 
ATOM     30  C   UNL     1      46.736   1.225   7.738  0.00  0.00    +0.000 C 
ATOM     31  N   UNL     1      47.386   2.414   7.184  0.00  0.00    +0.000 NA
ATOM     32  C   UNL     1      46.409   3.334   6.594  0.00  0.00    +0.000 C 
ATOM     33  H   UNL     1      48.046   2.123   6.461  0.00  0.00    +0.000 HD
ENDBRANCH  26  27
ENDBRANCH  24  26
ENDBRANCH  23  24
ENDBRANCH   4  23
TORSDOF 7
ENDMDL
MODEL 6
REMARK VINA RESULT:    -6.837      2.252      2.979
REMARK INTER + INTRA:         -10.554
REMARK INTER:                  -9.463
REMARK INTRA:                  -1.091
REMARK UNBOUND:                -0.920
REMARK  Name = 
REMARK  7 active torsions:
REMARK  status: ('A' for Active; 'I' for Inactive)
REMARK    1  A    between atoms: C_2  and  C_20
REMARK    2  A    between atoms: N_3  and  C_4
REMARK    3  A    between atoms: C_4  and  C_5
REMARK    4  A    between atoms: C_8  and  C_9
REMARK    5  A    between atoms: C_9  and  N_10
REMARK    6  A    between atoms: N_10  and  C_11
REMARK    7  A    between atoms: C_11  and  C_12
REMARK                            x       y       z     vdW  Elec       q    Type
REMARK                         _______ _______ _______ _____ _____    ______ ____
ROOT
ATOM      1  C   UNL     1      48.148   8.155  13.286  0.00  0.00    +0.000 A 
ATOM      2  C   UNL     1      47.085   9.009  13.585  0.00  0.00    +0.000 A 
ATOM      3  C   UNL     1      45.870   8.861  12.916  0.00  0.00    +0.000 A 
ATOM      4  C   UNL     1      45.760   7.865  11.952  0.00  0.00    +0.000 A 
ATOM      5  N   UNL     1      46.805   7.074  11.593  0.00  0.00    +0.000 NA
ATOM      6  C   UNL     1      47.961   7.230  12.269  0.00  0.00    +0.000 A 
ENDROOT
BRANCH   1   7
ATOM      7  C   UNL     1      49.462   8.234  14.004  0.00  0.00    +0.000 C 
BRANCH   7  10
ATOM      8  O   UNL     1      48.699   8.667  16.675  0.00  0.00    +0.000 OA
ATOM      9  C   UNL     1      49.096   7.555  16.343  0.00  0.00    +0.000 C 
ATOM     10  N   UNL     1      49.533   7.277  15.079  0.00  0.00    +0.000 N 
ATOM     11  H   UNL     1      49.651   6.309  14.797  0.00  0.00    +0.000 HD
BRANCH   9  12
ATOM     12  C   UNL     1      49.184   6.450  17.304  0.00  0.00    +0.000 A 
ATOM     13  C   UNL     1      49.910   6.603  18.476  0.00  0.00    +0.000 A 
ATOM     14  S   UNL     1      49.919   5.208  19.458  0.00  0.00    +0.000 S 
ATOM     15  C   UNL     1      48.915   4.368  18.369  0.00  0.00    +0.000 A 
ATOM     16  N   UNL     1      48.508   3.096  18.630  0.00  0.00    +0.000 NA
ATOM     17  C   UNL     1      47.714   2.600  17.741  0.00  0.00    +0.000 A 
ATOM     18  N   UNL     1      47.303   3.251  16.608  0.00  0.00    +0.000 N 
ATOM     19  C   UNL     1      47.749   4.505  16.266  0.00  0.00    +0.000 A 
ATOM     20  O   UNL     1      47.465   5.003  15.184  0.00  0.00    +0.000 OA
ATOM     21  C   UNL     1      48.602   5.130  17.260  0.00  0.00    +0.000 A 
ATOM     22  H   UNL     1      46.707   2.791  15.933  0.00  0.00    +0.000 HD
ENDBRANCH   9  12
ENDBRANCH   7  10
ENDBRANCH   1   7
BRANCH   4  23
ATOM     23  C   UNL     1      44.435   7.623  11.251  0.00  0.00    +0.000 C 
BRANCH  23  24
ATOM     24  N   UNL     1      43.661   6.499  11.805  0.00  0.00    +0.000 NA
ATOM     25  H   UNL     1      42.720   6.867  11.973  0.00  0.00    +0.000 HD
BRANCH  24  26
ATOM     26  C   UNL     1      43.528   5.381  10.853  0.00  0.00    +0.000 C 
BRANCH  26  27
ATOM     27  C   UNL     1      44.884   4.652  10.724  0.00  0.00    +0.000 C 
ATOM     28  C   UNL     1      45.430   4.696   9.289  0.00  0.00    +0.000 C 
ATOM     29  C   UNL     1      44.606   3.805   8.363  0.00  0.00    +0.000 C 
ATOM     30  C   UNL     1      44.507   2.383   8.915  0.00  0.00    +0.000 C 
ATOM     31  N   UNL     1      43.991   2.352  10.285  0.00  0.00    +0.000 NA
ATOM     32  C   UNL     1      44.799   3.185  11.181  0.00  0.00    +0.000 C 
ATOM     33  H   UNL     1      44.009   1.389  10.622  0.00  0.00    +0.000 HD
ENDBRANCH  26  27
ENDBRANCH  24  26
ENDBRANCH  23  24
ENDBRANCH   4  23
TORSDOF 7
ENDMDL
MODEL 7
REMARK VINA RESULT:    -6.834      3.371      8.798
REMARK INTER + INTRA:         -10.551
REMARK INTER:                  -8.673
REMARK INTRA:                  -1.878
REMARK UNBOUND:                -0.920
REMARK  Name = 
REMARK  7 active torsions:
REMARK  status: ('A' for Active; 'I' for Inactive)
REMARK    1  A    between atoms: C_2  and  C_20
REMARK    2  A    between atoms: N_3  and  C_4
REMARK    3  A    between atoms: C_4  and  C_5
REMARK    4  A    between atoms: C_8  and  C_9
REMARK    5  A    between atoms: C_9  and  N_10
REMARK    6  A    between atoms: N_10  and  C_11
REMARK    7  A    between atoms: C_11  and  C_12
REMARK                            x       y       z     vdW  Elec       q    Type
REMARK                         _______ _______ _______ _____ _____    ______ ____
ROOT
ATOM      1  C   UNL     1      48.830   6.425  15.538  0.00  0.00    +0.000 A 
ATOM      2  C   UNL     1      48.073   5.368  16.047  0.00  0.00    +0.000 A 
ATOM      3  C   UNL     1      48.623   4.529  17.016  0.00  0.00    +0.000 A 
ATOM      4  C   UNL     1      49.926   4.767  17.440  0.00  0.00    +0.000 A 
ATOM      5  N   UNL     1      50.704   5.743  16.902  0.00  0.00    +0.000 NA
ATOM      6  C   UNL     1      50.140   6.548  15.979  0.00  0.00    +0.000 A 
ENDROOT
BRANCH   1   7
ATOM      7  C   UNL     1      48.278   7.390  14.531  0.00  0.00    +0.000 C 
BRANCH   7  10
ATOM      8  O   UNL     1      47.409   7.799  11.889  0.00  0.00    +0.000 OA
ATOM      9  C   UNL     1      46.728   7.106  12.638  0.00  0.00    +0.000 C 
ATOM     10  N   UNL     1      47.055   6.901  13.949  0.00  0.00    +0.000 N 
ATOM     11  H   UNL     1      46.587   6.164  14.467  0.00  0.00    +0.000 HD
BRANCH   9  12
ATOM     12  C   UNL     1      45.474   6.491  12.191  0.00  0.00    +0.000 A 
ATOM     13  C   UNL     1      44.497   7.265  11.585  0.00  0.00    +0.000 A 
ATOM     14  S   UNL     1      43.100   6.384  11.154  0.00  0.00    +0.000 S 
ATOM     15  C   UNL     1      43.777   4.928  11.723  0.00  0.00    +0.000 A 
ATOM     16  N   UNL     1      43.096   3.754  11.626  0.00  0.00    +0.000 NA
ATOM     17  C   UNL     1      43.747   2.726  12.055  0.00  0.00    +0.000 A 
ATOM     18  N   UNL     1      45.008   2.764  12.589  0.00  0.00    +0.000 N 
ATOM     19  C   UNL     1      45.701   3.936  12.777  0.00  0.00    +0.000 A 
ATOM     20  O   UNL     1      46.769   3.949  13.377  0.00  0.00    +0.000 OA
ATOM     21  C   UNL     1      45.035   5.117  12.260  0.00  0.00    +0.000 A 
ATOM     22  H   UNL     1      45.450   1.925  12.940  0.00  0.00    +0.000 HD
ENDBRANCH   9  12
ENDBRANCH   7  10
ENDBRANCH   1   7
BRANCH   4  23
ATOM     23  C   UNL     1      50.537   3.922  18.543  0.00  0.00    +0.000 C 
BRANCH  23  24
ATOM     24  N   UNL     1      50.370   4.488  19.893  0.00  0.00    +0.000 NA
ATOM     25  H   UNL     1      50.731   5.444  19.838  0.00  0.00    +0.000 HD
BRANCH  24  26
ATOM     26  C   UNL     1      48.954   4.579  20.296  0.00  0.00    +0.000 C 
BRANCH  26  27
ATOM     27  C   UNL     1      48.724   5.897  21.069  0.00  0.00    +0.000 C 
ATOM     28  C   UNL     1      47.391   6.563  20.695  0.00  0.00    +0.000 C 
ATOM     29  C   UNL     1      47.446   7.137  19.281  0.00  0.00    +0.000 C 
ATOM     30  C   UNL     1      48.642   8.074  19.116  0.00  0.00    +0.000 C 
ATOM     31  N   UNL     1      49.907   7.433  19.481  0.00  0.00    +0.000 NA
ATOM     32  C   UNL     1      49.865   6.906  20.848  0.00  0.00    +0.000 C 
ATOM     33  H   UNL     1      50.657   8.121  19.414  0.00  0.00    +0.000 HD
ENDBRANCH  26  27
ENDBRANCH  24  26
ENDBRANCH  23  24
ENDBRANCH   4  23
TORSDOF 7
ENDMDL
MODEL 8
REMARK VINA RESULT:    -6.782      3.455      9.053
REMARK INTER + INTRA:         -10.478
REMARK INTER:                  -8.701
REMARK INTRA:                  -1.776
REMARK UNBOUND:                -0.920
REMARK  Name = 
REMARK  7 active torsions:
REMARK  status: ('A' for Active; 'I' for Inactive)
REMARK    1  A    between atoms: C_2  and  C_20
REMARK    2  A    between atoms: N_3  and  C_4
REMARK    3  A    between atoms: C_4  and  C_5
REMARK    4  A    between atoms: C_8  and  C_9
REMARK    5  A    between atoms: C_9  and  N_10
REMARK    6  A    between atoms: N_10  and  C_11
REMARK    7  A    between atoms: C_11  and  C_12
REMARK                            x       y       z     vdW  Elec       q    Type
REMARK                         _______ _______ _______ _____ _____    ______ ____
ROOT
ATOM      1  C   UNL     1      48.475   4.392  17.620  0.00  0.00    +0.000 A 
ATOM      2  C   UNL     1      48.766   3.914  18.899  0.00  0.00    +0.000 A 
ATOM      3  C   UNL     1      49.713   4.571  19.683  0.00  0.00    +0.000 A 
ATOM      4  C   UNL     1      50.355   5.686  19.156  0.00  0.00    +0.000 A 
ATOM      5  N   UNL     1      50.142   6.121  17.887  0.00  0.00    +0.000 NA
ATOM      6  C   UNL     1      49.209   5.476  17.158  0.00  0.00    +0.000 A 
ENDROOT
BRANCH   1   7
ATOM      7  C   UNL     1      47.433   3.758  16.748  0.00  0.00    +0.000 C 
BRANCH   7  10
ATOM      8  O   UNL     1      47.237   3.230  13.994  0.00  0.00    +0.000 OA
ATOM      9  C   UNL     1      46.859   4.317  14.419  0.00  0.00    +0.000 C 
ATOM     10  N   UNL     1      46.968   4.670  15.734  0.00  0.00    +0.000 N 
ATOM     11  H   UNL     1      46.461   5.481  16.073  0.00  0.00    +0.000 HD
BRANCH   9  12
ATOM     12  C   UNL     1      46.313   5.346  13.527  0.00  0.00    +0.000 A 
ATOM     13  C   UNL     1      47.082   6.448  13.183  0.00  0.00    +0.000 A 
ATOM     14  S   UNL     1      46.274   7.548  12.158  0.00  0.00    +0.000 S 
ATOM     15  C   UNL     1      44.886   6.563  12.105  0.00  0.00    +0.000 A 
ATOM     16  N   UNL     1      43.803   6.919  11.362  0.00  0.00    +0.000 NA
ATOM     17  C   UNL     1      42.841   6.058  11.379  0.00  0.00    +0.000 A 
ATOM     18  N   UNL     1      42.855   4.882  12.082  0.00  0.00    +0.000 N 
ATOM     19  C   UNL     1      43.894   4.520  12.905  0.00  0.00    +0.000 A 
ATOM     20  O   UNL     1      43.817   3.528  13.620  0.00  0.00    +0.000 OA
ATOM     21  C   UNL     1      45.025   5.428  12.880  0.00  0.00    +0.000 A 
ATOM     22  H   UNL     1      42.053   4.267  12.080  0.00  0.00    +0.000 HD
ENDBRANCH   9  12
ENDBRANCH   7  10
ENDBRANCH   1   7
BRANCH   4  23
ATOM     23  C   UNL     1      51.341   6.472  20.002  0.00  0.00    +0.000 C 
BRANCH  23  24
ATOM     24  N   UNL     1      50.945   7.871  20.237  0.00  0.00    +0.000 NA
ATOM     25  H   UNL     1      50.811   8.280  19.309  0.00  0.00    +0.000 HD
BRANCH  24  26
ATOM     26  C   UNL     1      49.660   7.982  20.952  0.00  0.00    +0.000 C 
BRANCH  26  27
ATOM     27  C   UNL     1      48.960   9.299  20.548  0.00  0.00    +0.000 C 
ATOM     28  C   UNL     1      47.463   9.095  20.264  0.00  0.00    +0.000 C 
ATOM     29  C   UNL     1      47.254   8.321  18.965  0.00  0.00    +0.000 C 
ATOM     30  C   UNL     1      47.991   8.988  17.804  0.00  0.00    +0.000 C 
ATOM     31  N   UNL     1      49.415   9.183  18.087  0.00  0.00    +0.000 NA
ATOM     32  C   UNL     1      49.617   9.951  19.318  0.00  0.00    +0.000 C 
ATOM     33  H   UNL     1      49.839   9.688  17.308  0.00  0.00    +0.000 HD
ENDBRANCH  26  27
ENDBRANCH  24  26
ENDBRANCH  23  24
ENDBRANCH   4  23
TORSDOF 7
ENDMDL
MODEL 9
REMARK VINA RESULT:    -6.770      3.471      8.670
REMARK INTER + INTRA:         -10.459
REMARK INTER:                  -8.857
REMARK INTRA:                  -1.602
REMARK UNBOUND:                -0.920
REMARK  Name = 
REMARK  7 active torsions:
REMARK  status: ('A' for Active; 'I' for Inactive)
REMARK    1  A    between atoms: C_2  and  C_20
REMARK    2  A    between atoms: N_3  and  C_4
REMARK    3  A    between atoms: C_4  and  C_5
REMARK    4  A    between atoms: C_8  and  C_9
REMARK    5  A    between atoms: C_9  and  N_10
REMARK    6  A    between atoms: N_10  and  C_11
REMARK    7  A    between atoms: C_11  and  C_12
REMARK                            x       y       z     vdW  Elec       q    Type
REMARK                         _______ _______ _______ _____ _____    ______ ____
ROOT
ATOM      1  C   UNL     1      48.606   3.779  17.321  0.00  0.00    +0.000 A 
ATOM      2  C   UNL     1      49.649   2.859  17.188  0.00  0.00    +0.000 A 
ATOM      3  C   UNL     1      50.903   3.156  17.719  0.00  0.00    +0.000 A 
ATOM      4  C   UNL     1      51.083   4.377  18.359  0.00  0.00    +0.000 A 
ATOM      5  N   UNL     1      50.104   5.316  18.431  0.00  0.00    +0.000 NA
ATOM      6  C   UNL     1      48.897   4.995  17.924  0.00  0.00    +0.000 A 
ENDROOT
BRANCH   1   7
ATOM      7  C   UNL     1      47.223   3.497  16.814  0.00  0.00    +0.000 C 
BRANCH   7  10
ATOM      8  O   UNL     1      47.266   3.122  14.029  0.00  0.00    +0.000 OA
ATOM      9  C   UNL     1      46.830   4.176  14.479  0.00  0.00    +0.000 C 
ATOM     10  N   UNL     1      46.822   4.456  15.817  0.00  0.00    +0.000 N 
ATOM     11  H   UNL     1      46.270   5.237  16.156  0.00  0.00    +0.000 HD
BRANCH   9  12
ATOM     12  C   UNL     1      46.335   5.243  13.603  0.00  0.00    +0.000 A 
ATOM     13  C   UNL     1      47.126   6.351  13.341  0.00  0.00    +0.000 A 
ATOM     14  S   UNL     1      46.377   7.496  12.322  0.00  0.00    +0.000 S 
ATOM     15  C   UNL     1      44.987   6.525  12.161  0.00  0.00    +0.000 A 
ATOM     16  N   UNL     1      43.945   6.918  11.379  0.00  0.00    +0.000 NA
ATOM     17  C   UNL     1      42.979   6.064  11.314  0.00  0.00    +0.000 A 
ATOM     18  N   UNL     1      42.951   4.862  11.971  0.00  0.00    +0.000 N 
ATOM     19  C   UNL     1      43.946   4.460  12.830  0.00  0.00    +0.000 A 
ATOM     20  O   UNL     1      43.827   3.442  13.500  0.00  0.00    +0.000 OA
ATOM     21  C   UNL     1      45.082   5.360  12.897  0.00  0.00    +0.000 A 
ATOM     22  H   UNL     1      42.147   4.253  11.905  0.00  0.00    +0.000 HD
ENDBRANCH   9  12
ENDBRANCH   7  10
ENDBRANCH   1   7
BRANCH   4  23
ATOM     23  C   UNL     1      52.413   4.709  19.012  0.00  0.00    +0.000 C 
BRANCH  23  24
ATOM     24  N   UNL     1      53.294   5.548  18.181  0.00  0.00    +0.000 NA
ATOM     25  H   UNL     1      53.012   5.371  17.213  0.00  0.00    +0.000 HD
BRANCH  24  26
ATOM     26  C   UNL     1      53.105   6.988  18.432  0.00  0.00    +0.000 C 
BRANCH  26  27
ATOM     27  C   UNL     1      53.263   7.767  17.107  0.00  0.00    +0.000 C 
ATOM     28  C   UNL     1      52.368   9.015  17.058  0.00  0.00    +0.000 C 
ATOM     29  C   UNL     1      50.898   8.626  16.918  0.00  0.00    +0.000 C 
ATOM     30  C   UNL     1      50.687   7.699  15.721  0.00  0.00    +0.000 C 
ATOM     31  N   UNL     1      51.550   6.517  15.773  0.00  0.00    +0.000 NA
ATOM     32  C   UNL     1      52.963   6.888  15.880  0.00  0.00    +0.000 C 
ATOM     33  H   UNL     1      51.414   5.971  14.922  0.00  0.00    +0.000 HD
ENDBRANCH  26  27
ENDBRANCH  24  26
ENDBRANCH  23  24
ENDBRANCH   4  23
TORSDOF 7
ENDMDL
