MODEL 1
REMARK VINA RESULT:    -7.368      0.000      0.000
REMARK INTER + INTRA:         -13.745
REMARK INTER:                 -11.675
REMARK INTRA:                  -2.070
REMARK UNBOUND:                -2.070
REMARK  Name = 
REMARK  13 active torsions:
REMARK  status: ('A' for Active; 'I' for Inactive)
REMARK    1  A    between atoms: C_1  and  C_2
REMARK    2  A    between atoms: C_2  and  C_3
REMARK    3  A    between atoms: C_2  and  N_4
REMARK    4  A    between atoms: N_4  and  C_5
REMARK    5  A    between atoms: C_5  and  C_6
REMARK    6  A    between atoms: C_6  and  C_7
REMARK    7  A    between atoms: C_6  and  N_13
REMARK    8  A    between atoms: N_13  and  C_14
REMARK    9  A    between atoms: N_13  and  C_15
REMARK   10  A    between atoms: C_15  and  C_16
REMARK   11  A    between atoms: C_19  and  C_20
REMARK   12  A    between atoms: C_20  and  N_21
REMARK   13  A    between atoms: C_22  and  C_24
REMARK                            x       y       z     vdW  Elec       q    Type
REMARK                         _______ _______ _______ _____ _____    ______ ____
ROOT
ATOM      1  C   UNL     1      46.960   4.531  14.615  0.00  0.00    +0.000 A 
ATOM      2  C   UNL     1      47.760   5.654  14.530  0.00  0.00    +0.000 A 
ATOM      3  C   UNL     1      48.399   6.101  15.687  0.00  0.00    +0.000 A 
ATOM      4  C   UNL     1      48.254   5.404  16.888  0.00  0.00    +0.000 A 
ATOM      5  C   UNL     1      47.413   4.314  16.887  0.00  0.00    +0.000 A 
ATOM      6  N   UNL     1      46.782   3.882  15.788  0.00  0.00    +0.000 NA
ENDROOT
BRANCH   1   7
ATOM      7  C   UNL     1      46.333   3.958  13.346  0.00  0.00    +0.000 C 
BRANCH   7   8
ATOM      8  N   UNL     1      45.060   4.566  12.883  0.00  0.00    +0.000 NA
ATOM      9  C   UNL     1      44.017   3.533  12.857  0.00  0.00    +0.000 C 
BRANCH   8  10
ATOM     10  C   UNL     1      45.219   5.264  11.565  0.00  0.00    +0.000 C 
BRANCH  10  11
ATOM     11  C   UNL     1      45.860   6.647  11.736  0.00  0.00    +0.000 A 
ATOM     12  C   UNL     1      45.144   7.695  12.326  0.00  0.00    +0.000 A 
ATOM     13  C   UNL     1      45.767   8.911  12.599  0.00  0.00    +0.000 A 
ATOM     14  C   UNL     1      47.117   9.091  12.302  0.00  0.00    +0.000 A 
ATOM     15  C   UNL     1      47.843   8.063  11.706  0.00  0.00    +0.000 A 
ATOM     16  C   UNL     1      47.214   6.854  11.410  0.00  0.00    +0.000 A 
ENDBRANCH  10  11
BRANCH  10  17
ATOM     17  C   UNL     1      43.870   5.360  10.807  0.00  0.00    +0.000 C 
BRANCH  17  18
ATOM     18  N   UNL     1      43.862   4.679   9.503  0.00  0.00    +0.000 NA
ATOM     19  H   UNL     1      43.026   4.095   9.447  0.00  0.00    +0.000 HD
BRANCH  18  21
ATOM     20  C   UNL     1      44.628   2.401   9.266  0.00  0.00    +0.000 C 
ATOM     21  C   UNL     1      45.063   3.862   9.314  0.00  0.00    +0.000 C 
ATOM     22  C   UNL     1      45.824   4.217   8.031  0.00  0.00    +0.000 C 
ENDBRANCH  18  21
ENDBRANCH  17  18
ENDBRANCH  10  17
ENDBRANCH   8  10
ENDBRANCH   7   8
ENDBRANCH   1   7
BRANCH   4  23
ATOM     23  C   UNL     1      48.966   5.788  18.145  0.00  0.00    +0.000 C 
BRANCH  23  24
ATOM     24  N   UNL     1      50.068   4.915  18.431  0.00  0.00    +0.000 N 
ATOM     25  C   UNL     1      51.326   5.141  17.940  0.00  0.00    +0.000 C 
ATOM     26  O   UNL     1      51.595   6.101  17.227  0.00  0.00    +0.000 OA
ATOM     27  H   UNL     1      49.835   3.987  18.765  0.00  0.00    +0.000 HD
BRANCH  25  28
ATOM     28  C   UNL     1      52.347   4.179  18.361  0.00  0.00    +0.000 A 
ATOM     29  C   UNL     1      53.436   4.613  19.103  0.00  0.00    +0.000 A 
ATOM     30  S   UNL     1      54.505   3.355  19.533  0.00  0.00    +0.000 S 
ATOM     31  C   UNL     1      53.569   2.196  18.705  0.00  0.00    +0.000 A 
ATOM     32  N   UNL     1      53.952   0.893  18.656  0.00  0.00    +0.000 NA
ATOM     33  C   UNL     1      53.158   0.135  17.967  0.00  0.00    +0.000 A 
ATOM     34  N   UNL     1      52.024   0.554  17.342  0.00  0.00    +0.000 N 
ATOM     35  C   UNL     1      51.570   1.852  17.409  0.00  0.00    +0.000 A 
ATOM     36  O   UNL     1      50.489   2.180  16.921  0.00  0.00    +0.000 OA
ATOM     37  C   UNL     1      52.440   2.757  18.137  0.00  0.00    +0.000 A 
ATOM     38  H   UNL     1      51.429  -0.093  16.846  0.00  0.00    +0.000 HD
ENDBRANCH  25  28
ENDBRANCH  23  24
ENDBRANCH   4  23
TORSDOF 10
ENDMDL
MODEL 2
REMARK VINA RESULT:    -6.983      4.087      8.819
REMARK INTER + INTRA:         -13.135
REMARK INTER:                 -11.554
REMARK INTRA:                  -1.581
REMARK UNBOUND:                -2.070
REMARK  Name = 
REMARK  13 active torsions:
REMARK  status: ('A' for Active; 'I' for Inactive)
REMARK    1  A    between atoms: C_1  and  C_2
REMARK    2  A    between atoms: C_2  and  C_3
REMARK    3  A    between atoms: C_2  and  N_4
REMARK    4  A    between atoms: N_4  and  C_5
REMARK    5  A    between atoms: C_5  and  C_6
REMARK    6  A    between atoms: C_6  and  C_7
REMARK    7  A    between atoms: C_6  and  N_13
REMARK    8  A    between atoms: N_13  and  C_14
REMARK    9  A    between atoms: N_13  and  C_15
REMARK   10  A    between atoms: C_15  and  C_16
REMARK   11  A    between atoms: C_19  and  C_20
REMARK   12  A    between atoms: C_20  and  N_21
REMARK   13  A    between atoms: C_22  and  C_24
REMARK                            x       y       z     vdW  Elec       q    Type
REMARK                         _______ _______ _______ _____ _____    ______ ____
ROOT
ATOM      1  C   UNL     1      49.671   7.927  15.896  0.00  0.00    +0.000 A 
ATOM      2  C   UNL     1      48.804   8.974  15.650  0.00  0.00    +0.000 A 
ATOM      3  C   UNL     1      48.130   9.001  14.428  0.00  0.00    +0.000 A 
ATOM      4  C   UNL     1      48.308   7.975  13.500  0.00  0.00    +0.000 A 
ATOM      5  C   UNL     1      49.215   6.988  13.816  0.00  0.00    +0.000 A 
ATOM      6  N   UNL     1      49.879   6.956  14.978  0.00  0.00    +0.000 NA
ENDROOT
BRANCH   1   7
ATOM      7  C   UNL     1      50.342   7.813  17.263  0.00  0.00    +0.000 C 
BRANCH   7   8
ATOM      8  N   UNL     1      49.945   6.668  18.121  0.00  0.00    +0.000 NA
ATOM      9  C   UNL     1      50.610   5.452  17.636  0.00  0.00    +0.000 C 
BRANCH   8  10
ATOM     10  C   UNL     1      48.454   6.521  18.205  0.00  0.00    +0.000 C 
BRANCH  10  11
ATOM     11  C   UNL     1      47.858   7.449  19.270  0.00  0.00    +0.000 A 
ATOM     12  C   UNL     1      47.899   7.097  20.625  0.00  0.00    +0.000 A 
ATOM     13  C   UNL     1      47.475   7.996  21.601  0.00  0.00    +0.000 A 
ATOM     14  C   UNL     1      47.020   9.264  21.240  0.00  0.00    +0.000 A 
ATOM     15  C   UNL     1      46.964   9.627  19.897  0.00  0.00    +0.000 A 
ATOM     16  C   UNL     1      47.365   8.720  18.918  0.00  0.00    +0.000 A 
ENDBRANCH  10  11
BRANCH  10  17
ATOM     17  C   UNL     1      48.042   5.046  18.451  0.00  0.00    +0.000 C 
BRANCH  17  18
ATOM     18  N   UNL     1      46.781   4.657  17.801  0.00  0.00    +0.000 NA
ATOM     19  H   UNL     1      46.148   4.290  18.515  0.00  0.00    +0.000 HD
BRANCH  18  21
ATOM     20  C   UNL     1      47.182   4.396  15.434  0.00  0.00    +0.000 C 
ATOM     21  C   UNL     1      47.000   3.655  16.755  0.00  0.00    +0.000 C 
ATOM     22  C   UNL     1      48.225   2.774  17.028  0.00  0.00    +0.000 C 
ENDBRANCH  18  21
ENDBRANCH  17  18
ENDBRANCH  10  17
ENDBRANCH   8  10
ENDBRANCH   7   8
ENDBRANCH   1   7
BRANCH   4  23
ATOM     23  C   UNL     1      47.564   7.908  12.205  0.00  0.00    +0.000 C 
BRANCH  23  24
ATOM     24  N   UNL     1      46.824   6.687  12.068  0.00  0.00    +0.000 N 
ATOM     25  C   UNL     1      45.512   6.667  11.679  0.00  0.00    +0.000 C 
ATOM     26  O   UNL     1      44.883   7.687  11.420  0.00  0.00    +0.000 OA
ATOM     27  H   UNL     1      47.206   5.872  12.535  0.00  0.00    +0.000 HD
BRANCH  25  28
ATOM     28  C   UNL     1      44.915   5.336  11.547  0.00  0.00    +0.000 A 
ATOM     29  C   UNL     1      44.215   4.788  12.611  0.00  0.00    +0.000 A 
ATOM     30  S   UNL     1      43.562   3.249  12.270  0.00  0.00    +0.000 S 
ATOM     31  C   UNL     1      44.230   3.247  10.702  0.00  0.00    +0.000 A 
ATOM     32  N   UNL     1      44.064   2.183   9.872  0.00  0.00    +0.000 NA
ATOM     33  C   UNL     1      44.652   2.313   8.725  0.00  0.00    +0.000 A 
ATOM     34  N   UNL     1      45.370   3.401   8.332  0.00  0.00    +0.000 N 
ATOM     35  C   UNL     1      45.519   4.521   9.118  0.00  0.00    +0.000 A 
ATOM     36  O   UNL     1      46.087   5.529   8.698  0.00  0.00    +0.000 OA
ATOM     37  C   UNL     1      44.914   4.419  10.433  0.00  0.00    +0.000 A 
ATOM     38  H   UNL     1      45.779   3.455   7.411  0.00  0.00    +0.000 HD
ENDBRANCH  25  28
ENDBRANCH  23  24
ENDBRANCH   4  23
TORSDOF 10
ENDMDL
MODEL 3
REMARK VINA RESULT:    -6.895      3.452      5.515
REMARK INTER + INTRA:         -12.996
REMARK INTER:                 -11.221
REMARK INTRA:                  -1.775
REMARK UNBOUND:                -2.070
REMARK  Name = 
REMARK  13 active torsions:
REMARK  status: ('A' for Active; 'I' for Inactive)
REMARK    1  A    between atoms: C_1  and  C_2
REMARK    2  A    between atoms: C_2  and  C_3
REMARK    3  A    between atoms: C_2  and  N_4
REMARK    4  A    between atoms: N_4  and  C_5
REMARK    5  A    between atoms: C_5  and  C_6
REMARK    6  A    between atoms: C_6  and  C_7
REMARK    7  A    between atoms: C_6  and  N_13
REMARK    8  A    between atoms: N_13  and  C_14
REMARK    9  A    between atoms: N_13  and  C_15
REMARK   10  A    between atoms: C_15  and  C_16
REMARK   11  A    between atoms: C_19  and  C_20
REMARK   12  A    between atoms: C_20  and  N_21
REMARK   13  A    between atoms: C_22  and  C_24
REMARK                            x       y       z     vdW  Elec       q    Type
REMARK                         _______ _______ _______ _____ _____    ______ ____
ROOT
ATOM      1  C   UNL     1      47.025   4.306  14.580  0.00  0.00    +0.000 A 
ATOM      2  C   UNL     1      47.708   5.506  14.554  0.00  0.00    +0.000 A 
ATOM      3  C   UNL     1      48.397   5.902  15.701  0.00  0.00    +0.000 A 
ATOM      4  C   UNL     1      48.416   5.082  16.831  0.00  0.00    +0.000 A 
ATOM      5  C   UNL     1      47.682   3.918  16.779  0.00  0.00    +0.000 A 
ATOM      6  N   UNL     1      47.006   3.533  15.691  0.00  0.00    +0.000 NA
ENDROOT
BRANCH   1   7
ATOM      7  C   UNL     1      46.351   3.797  13.309  0.00  0.00    +0.000 C 
BRANCH   7   8
ATOM      8  N   UNL     1      45.289   4.648  12.715  0.00  0.00    +0.000 NA
ATOM      9  C   UNL     1      44.060   3.857  12.579  0.00  0.00    +0.000 C 
BRANCH   8  10
ATOM     10  C   UNL     1      45.727   5.269  11.421  0.00  0.00    +0.000 C 
BRANCH  10  11
ATOM     11  C   UNL     1      46.003   6.769  11.584  0.00  0.00    +0.000 A 
ATOM     12  C   UNL     1      44.944   7.679  11.694  0.00  0.00    +0.000 A 
ATOM     13  C   UNL     1      45.193   9.021  11.971  0.00  0.00    +0.000 A 
ATOM     14  C   UNL     1      46.500   9.471  12.156  0.00  0.00    +0.000 A 
ATOM     15  C   UNL     1      47.565   8.582  12.040  0.00  0.00    +0.000 A 
ATOM     16  C   UNL     1      47.319   7.243  11.740  0.00  0.00    +0.000 A 
ENDBRANCH  10  11
BRANCH  10  17
ATOM     17  C   UNL     1      44.700   5.005  10.289  0.00  0.00    +0.000 C 
BRANCH  17  18
ATOM     18  N   UNL     1      45.273   5.054   8.935  0.00  0.00    +0.000 NA
ATOM     19  H   UNL     1      44.875   5.857   8.444  0.00  0.00    +0.000 HD
BRANCH  18  21
ATOM     20  C   UNL     1      46.220   3.528   7.319  0.00  0.00    +0.000 C 
ATOM     21  C   UNL     1      45.003   3.821   8.191  0.00  0.00    +0.000 C 
ATOM     22  C   UNL     1      44.726   2.625   9.110  0.00  0.00    +0.000 C 
ENDBRANCH  18  21
ENDBRANCH  17  18
ENDBRANCH  10  17
ENDBRANCH   8  10
ENDBRANCH   7   8
ENDBRANCH   1   7
BRANCH   4  23
ATOM     23  C   UNL     1      49.192   5.413  18.066  0.00  0.00    +0.000 C 
BRANCH  23  24
ATOM     24  N   UNL     1      48.847   6.702  18.592  0.00  0.00    +0.000 N 
ATOM     25  C   UNL     1      47.707   6.913  19.320  0.00  0.00    +0.000 C 
ATOM     26  O   UNL     1      46.908   6.018  19.571  0.00  0.00    +0.000 OA
ATOM     27  H   UNL     1      49.315   7.500  18.177  0.00  0.00    +0.000 HD
BRANCH  25  28
ATOM     28  C   UNL     1      47.524   8.277  19.821  0.00  0.00    +0.000 A 
ATOM     29  C   UNL     1      47.272   8.487  21.168  0.00  0.00    +0.000 A 
ATOM     30  S   UNL     1      47.119  10.135  21.579  0.00  0.00    +0.000 S 
ATOM     31  C   UNL     1      47.345  10.621  19.961  0.00  0.00    +0.000 A 
ATOM     32  N   UNL     1      47.302  11.934  19.612  0.00  0.00    +0.000 NA
ATOM     33  C   UNL     1      47.461  12.148  18.344  0.00  0.00    +0.000 A 
ATOM     34  N   UNL     1      47.671  11.182  17.408  0.00  0.00    +0.000 N 
ATOM     35  C   UNL     1      47.775   9.846  17.723  0.00  0.00    +0.000 A 
ATOM     36  O   UNL     1      48.066   9.007  16.872  0.00  0.00    +0.000 OA
ATOM     37  C   UNL     1      47.566   9.541  19.126  0.00  0.00    +0.000 A 
ATOM     38  H   UNL     1      47.820  11.416  16.438  0.00  0.00    +0.000 HD
ENDBRANCH  25  28
ENDBRANCH  23  24
ENDBRANCH   4  23
TORSDOF 10
ENDMDL
MODEL 4
REMARK VINA RESULT:    -6.710      1.260      3.323
REMARK INTER + INTRA:         -12.702
REMARK INTER:                 -12.147
REMARK INTRA:                  -0.556
REMARK UNBOUND:                -2.070
REMARK  Name = 
REMARK  13 active torsions:
REMARK  status: ('A' for Active; 'I' for Inactive)
REMARK    1  A    between atoms: C_1  and  C_2
REMARK    2  A    between atoms: C_2  and  C_3
REMARK    3  A    between atoms: C_2  and  N_4
REMARK    4  A    between atoms: N_4  and  C_5
REMARK    5  A    between atoms: C_5  and  C_6
REMARK    6  A    between atoms: C_6  and  C_7
REMARK    7  A    between atoms: C_6  and  N_13
REMARK    8  A    between atoms: N_13  and  C_14
REMARK    9  A    between atoms: N_13  and  C_15
REMARK   10  A    between atoms: C_15  and  C_16
REMARK   11  A    between atoms: C_19  and  C_20
REMARK   12  A    between atoms: C_20  and  N_21
REMARK   13  A    between atoms: C_22  and  C_24
REMARK                            x       y       z     vdW  Elec       q    Type
REMARK                         _______ _______ _______ _____ _____    ______ ____
ROOT
ATOM      1  C   UNL     1      46.598   4.669  13.699  0.00  0.00    +0.000 A 
ATOM      2  C   UNL     1      47.288   5.835  13.432  0.00  0.00    +0.000 A 
ATOM      3  C   UNL     1      48.058   6.397  14.450  0.00  0.00    +0.000 A 
ATOM      4  C   UNL     1      48.150   5.771  15.694  0.00  0.00    +0.000 A 
ATOM      5  C   UNL     1      47.403   4.629  15.882  0.00  0.00    +0.000 A 
ATOM      6  N   UNL     1      46.649   4.087  14.918  0.00  0.00    +0.000 NA
ENDROOT
BRANCH   1   7
ATOM      7  C   UNL     1      45.833   3.975  12.575  0.00  0.00    +0.000 C 
BRANCH   7   8
ATOM      8  N   UNL     1      44.398   4.323  12.415  0.00  0.00    +0.000 NA
ATOM      9  C   UNL     1      43.591   3.104  12.550  0.00  0.00    +0.000 C 
BRANCH   8  10
ATOM     10  C   UNL     1      44.138   5.052  11.130  0.00  0.00    +0.000 C 
BRANCH  10  11
ATOM     11  C   UNL     1      44.667   4.268   9.923  0.00  0.00    +0.000 A 
ATOM     12  C   UNL     1      45.568   4.861   9.029  0.00  0.00    +0.000 A 
ATOM     13  C   UNL     1      46.148   4.110   8.009  0.00  0.00    +0.000 A 
ATOM     14  C   UNL     1      45.849   2.754   7.876  0.00  0.00    +0.000 A 
ATOM     15  C   UNL     1      44.949   2.151   8.750  0.00  0.00    +0.000 A 
ATOM     16  C   UNL     1      44.349   2.907   9.756  0.00  0.00    +0.000 A 
ENDBRANCH  10  11
BRANCH  10  17
ATOM     17  C   UNL     1      44.718   6.489  11.165  0.00  0.00    +0.000 C 
BRANCH  17  18
ATOM     18  N   UNL     1      43.700   7.551  11.123  0.00  0.00    +0.000 NA
ATOM     19  H   UNL     1      43.116   7.407  10.297  0.00  0.00    +0.000 HD
BRANCH  18  21
ATOM     20  C   UNL     1      43.193   9.899  10.871  0.00  0.00    +0.000 C 
ATOM     21  C   UNL     1      44.310   8.882  11.086  0.00  0.00    +0.000 C 
ATOM     22  C   UNL     1      45.075   9.218  12.373  0.00  0.00    +0.000 C 
ENDBRANCH  18  21
ENDBRANCH  17  18
ENDBRANCH  10  17
ENDBRANCH   8  10
ENDBRANCH   7   8
ENDBRANCH   1   7
BRANCH   4  23
ATOM     23  C   UNL     1      49.012   6.282  16.804  0.00  0.00    +0.000 C 
BRANCH  23  24
ATOM     24  N   UNL     1      50.153   5.443  17.032  0.00  0.00    +0.000 N 
ATOM     25  C   UNL     1      50.816   5.423  18.229  0.00  0.00    +0.000 C 
ATOM     26  O   UNL     1      50.482   6.116  19.183  0.00  0.00    +0.000 OA
ATOM     27  H   UNL     1      50.622   5.083  16.209  0.00  0.00    +0.000 HD
BRANCH  25  28
ATOM     28  C   UNL     1      51.934   4.479  18.312  0.00  0.00    +0.000 A 
ATOM     29  C   UNL     1      53.162   4.909  18.793  0.00  0.00    +0.000 A 
ATOM     30  S   UNL     1      54.335   3.673  18.851  0.00  0.00    +0.000 S 
ATOM     31  C   UNL     1      53.252   2.531  18.197  0.00  0.00    +0.000 A 
ATOM     32  N   UNL     1      53.643   1.252  17.959  0.00  0.00    +0.000 NA
ATOM     33  C   UNL     1      52.721   0.507  17.433  0.00  0.00    +0.000 A 
ATOM     34  N   UNL     1      51.457   0.918  17.140  0.00  0.00    +0.000 N 
ATOM     35  C   UNL     1      51.002   2.188  17.413  0.00  0.00    +0.000 A 
ATOM     36  O   UNL     1      49.825   2.502  17.232  0.00  0.00    +0.000 OA
ATOM     37  C   UNL     1      52.003   3.080  17.968  0.00  0.00    +0.000 A 
ATOM     38  H   UNL     1      50.773   0.280  16.760  0.00  0.00    +0.000 HD
ENDBRANCH  25  28
ENDBRANCH  23  24
ENDBRANCH   4  23
TORSDOF 10
ENDMDL
MODEL 5
REMARK VINA RESULT:    -6.594      3.968      9.426
REMARK INTER + INTRA:         -12.518
REMARK INTER:                 -10.640
REMARK INTRA:                  -1.878
REMARK UNBOUND:                -2.070
REMARK  Name = 
REMARK  13 active torsions:
REMARK  status: ('A' for Active; 'I' for Inactive)
REMARK    1  A    between atoms: C_1  and  C_2
REMARK    2  A    between atoms: C_2  and  C_3
REMARK    3  A    between atoms: C_2  and  N_4
REMARK    4  A    between atoms: N_4  and  C_5
REMARK    5  A    between atoms: C_5  and  C_6
REMARK    6  A    between atoms: C_6  and  C_7
REMARK    7  A    between atoms: C_6  and  N_13
REMARK    8  A    between atoms: N_13  and  C_14
REMARK    9  A    between atoms: N_13  and  C_15
REMARK   10  A    between atoms: C_15  and  C_16
REMARK   11  A    between atoms: C_19  and  C_20
REMARK   12  A    between atoms: C_20  and  N_21
REMARK   13  A    between atoms: C_22  and  C_24
REMARK                            x       y       z     vdW  Elec       q    Type
REMARK                         _______ _______ _______ _____ _____    ______ ____
ROOT
ATOM      1  C   UNL     1      49.676   7.883  15.575  0.00  0.00    +0.000 A 
ATOM      2  C   UNL     1      48.817   8.947  15.380  0.00  0.00    +0.000 A 
ATOM      3  C   UNL     1      48.086   9.000  14.193  0.00  0.00    +0.000 A 
ATOM      4  C   UNL     1      48.203   7.981  13.246  0.00  0.00    +0.000 A 
ATOM      5  C   UNL     1      49.106   6.975  13.509  0.00  0.00    +0.000 A 
ATOM      6  N   UNL     1      49.824   6.920  14.638  0.00  0.00    +0.000 NA
ENDROOT
BRANCH   1   7
ATOM      7  C   UNL     1      50.409   7.743  16.907  0.00  0.00    +0.000 C 
BRANCH   7   8
ATOM      8  N   UNL     1      49.671   7.098  18.023  0.00  0.00    +0.000 NA
ATOM      9  C   UNL     1      49.642   8.014  19.170  0.00  0.00    +0.000 C 
BRANCH   8  10
ATOM     10  C   UNL     1      50.240   5.754  18.368  0.00  0.00    +0.000 C 
BRANCH  10  11
ATOM     11  C   UNL     1      49.428   4.621  17.729  0.00  0.00    +0.000 A 
ATOM     12  C   UNL     1      48.125   4.851  17.269  0.00  0.00    +0.000 A 
ATOM     13  C   UNL     1      47.437   3.860  16.573  0.00  0.00    +0.000 A 
ATOM     14  C   UNL     1      48.044   2.632  16.313  0.00  0.00    +0.000 A 
ATOM     15  C   UNL     1      49.335   2.382  16.771  0.00  0.00    +0.000 A 
ATOM     16  C   UNL     1      50.016   3.364  17.489  0.00  0.00    +0.000 A 
ENDBRANCH  10  11
BRANCH  10  17
ATOM     17  C   UNL     1      50.358   5.564  19.902  0.00  0.00    +0.000 C 
BRANCH  17  18
ATOM     18  N   UNL     1      49.438   4.559  20.458  0.00  0.00    +0.000 NA
ATOM     19  H   UNL     1      48.891   4.162  19.691  0.00  0.00    +0.000 HD
BRANCH  18  21
ATOM     20  C   UNL     1      49.363   6.137  22.285  0.00  0.00    +0.000 C 
ATOM     21  C   UNL     1      48.548   5.142  21.465  0.00  0.00    +0.000 C 
ATOM     22  C   UNL     1      47.338   5.852  20.845  0.00  0.00    +0.000 C 
ENDBRANCH  18  21
ENDBRANCH  17  18
ENDBRANCH  10  17
ENDBRANCH   8  10
ENDBRANCH   7   8
ENDBRANCH   1   7
BRANCH   4  23
ATOM     23  C   UNL     1      47.397   7.941  11.988  0.00  0.00    +0.000 C 
BRANCH  23  24
ATOM     24  N   UNL     1      46.721   6.687  11.817  0.00  0.00    +0.000 N 
ATOM     25  C   UNL     1      45.356   6.584  11.839  0.00  0.00    +0.000 C 
ATOM     26  O   UNL     1      44.622   7.552  12.004  0.00  0.00    +0.000 OA
ATOM     27  H   UNL     1      47.275   5.851  11.963  0.00  0.00    +0.000 HD
BRANCH  25  28
ATOM     28  C   UNL     1      44.823   5.239  11.608  0.00  0.00    +0.000 A 
ATOM     29  C   UNL     1      44.114   4.598  12.612  0.00  0.00    +0.000 A 
ATOM     30  S   UNL     1      43.541   3.058  12.157  0.00  0.00    +0.000 S 
ATOM     31  C   UNL     1      44.258   3.180  10.616  0.00  0.00    +0.000 A 
ATOM     32  N   UNL     1      44.166   2.163   9.718  0.00  0.00    +0.000 NA
ATOM     33  C   UNL     1      44.784   2.388   8.602  0.00  0.00    +0.000 A 
ATOM     34  N   UNL     1      45.465   3.527   8.300  0.00  0.00    +0.000 N 
ATOM     35  C   UNL     1      45.540   4.602   9.156  0.00  0.00    +0.000 A 
ATOM     36  O   UNL     1      46.075   5.657   8.818  0.00  0.00    +0.000 OA
ATOM     37  C   UNL     1      44.897   4.393  10.441  0.00  0.00    +0.000 A 
ATOM     38  H   UNL     1      45.900   3.655   7.398  0.00  0.00    +0.000 HD
ENDBRANCH  25  28
ENDBRANCH  23  24
ENDBRANCH   4  23
TORSDOF 10
ENDMDL
MODEL 6
REMARK VINA RESULT:    -6.295      3.712      9.368
REMARK INTER + INTRA:         -12.045
REMARK INTER:                 -10.057
REMARK INTRA:                  -1.987
REMARK UNBOUND:                -2.070
REMARK  Name = 
REMARK  13 active torsions:
REMARK  status: ('A' for Active; 'I' for Inactive)
REMARK    1  A    between atoms: C_1  and  C_2
REMARK    2  A    between atoms: C_2  and  C_3
REMARK    3  A    between atoms: C_2  and  N_4
REMARK    4  A    between atoms: N_4  and  C_5
REMARK    5  A    between atoms: C_5  and  C_6
REMARK    6  A    between atoms: C_6  and  C_7
REMARK    7  A    between atoms: C_6  and  N_13
REMARK    8  A    between atoms: N_13  and  C_14
REMARK    9  A    between atoms: N_13  and  C_15
REMARK   10  A    between atoms: C_15  and  C_16
REMARK   11  A    between atoms: C_19  and  C_20
REMARK   12  A    between atoms: C_20  and  N_21
REMARK   13  A    between atoms: C_22  and  C_24
REMARK                            x       y       z     vdW  Elec       q    Type
REMARK                         _______ _______ _______ _____ _____    ______ ____
ROOT
ATOM      1  C   UNL     1      49.675   8.412  15.703  0.00  0.00    +0.000 A 
ATOM      2  C   UNL     1      48.391   8.886  15.516  0.00  0.00    +0.000 A 
ATOM      3  C   UNL     1      47.818   8.761  14.250  0.00  0.00    +0.000 A 
ATOM      4  C   UNL     1      48.519   8.141  13.215  0.00  0.00    +0.000 A 
ATOM      5  C   UNL     1      49.805   7.727  13.483  0.00  0.00    +0.000 A 
ATOM      6  N   UNL     1      50.373   7.853  14.688  0.00  0.00    +0.000 NA
ENDROOT
BRANCH   1   7
ATOM      7  C   UNL     1      50.290   8.439  17.100  0.00  0.00    +0.000 C 
BRANCH   7   8
ATOM      8  N   UNL     1      49.843   7.397  18.059  0.00  0.00    +0.000 NA
ATOM      9  C   UNL     1      50.133   7.847  19.426  0.00  0.00    +0.000 C 
BRANCH   8  10
ATOM     10  C   UNL     1      50.442   6.057  17.750  0.00  0.00    +0.000 C 
BRANCH  10  11
ATOM     11  C   UNL     1      49.358   4.993  17.538  0.00  0.00    +0.000 A 
ATOM     12  C   UNL     1      49.254   3.900  18.408  0.00  0.00    +0.000 A 
ATOM     13  C   UNL     1      48.192   3.005  18.293  0.00  0.00    +0.000 A 
ATOM     14  C   UNL     1      47.212   3.197  17.320  0.00  0.00    +0.000 A 
ATOM     15  C   UNL     1      47.305   4.273  16.441  0.00  0.00    +0.000 A 
ATOM     16  C   UNL     1      48.379   5.155  16.539  0.00  0.00    +0.000 A 
ENDBRANCH  10  11
BRANCH  10  17
ATOM     17  C   UNL     1      51.452   5.620  18.842  0.00  0.00    +0.000 C 
BRANCH  17  18
ATOM     18  N   UNL     1      52.861   5.694  18.424  0.00  0.00    +0.000 NA
ATOM     19  H   UNL     1      52.891   5.911  17.426  0.00  0.00    +0.000 HD
BRANCH  18  21
ATOM     20  C   UNL     1      52.803   3.317  18.000  0.00  0.00    +0.000 C 
ATOM     21  C   UNL     1      53.570   4.441  18.691  0.00  0.00    +0.000 C 
ATOM     22  C   UNL     1      55.019   4.462  18.189  0.00  0.00    +0.000 C 
ENDBRANCH  18  21
ENDBRANCH  17  18
ENDBRANCH  10  17
ENDBRANCH   8  10
ENDBRANCH   7   8
ENDBRANCH   1   7
BRANCH   4  23
ATOM     23  C   UNL     1      47.936   7.912  11.857  0.00  0.00    +0.000 C 
BRANCH  23  24
ATOM     24  N   UNL     1      47.112   6.740  11.812  0.00  0.00    +0.000 N 
ATOM     25  C   UNL     1      45.745   6.808  11.784  0.00  0.00    +0.000 C 
ATOM     26  O   UNL     1      45.136   7.872  11.794  0.00  0.00    +0.000 OA
ATOM     27  H   UNL     1      47.551   5.868  12.086  0.00  0.00    +0.000 HD
BRANCH  25  28
ATOM     28  C   UNL     1      45.053   5.520  11.697  0.00  0.00    +0.000 A 
ATOM     29  C   UNL     1      44.345   5.045  12.790  0.00  0.00    +0.000 A 
ATOM     30  S   UNL     1      43.576   3.550  12.499  0.00  0.00    +0.000 S 
ATOM     31  C   UNL     1      44.199   3.470  10.915  0.00  0.00    +0.000 A 
ATOM     32  N   UNL     1      43.936   2.404  10.113  0.00  0.00    +0.000 NA
ATOM     33  C   UNL     1      44.501   2.469   8.948  0.00  0.00    +0.000 A 
ATOM     34  N   UNL     1      45.283   3.496   8.514  0.00  0.00    +0.000 N 
ATOM     35  C   UNL     1      45.532   4.617   9.271  0.00  0.00    +0.000 A 
ATOM     36  O   UNL     1      46.157   5.574   8.815  0.00  0.00    +0.000 OA
ATOM     37  C   UNL     1      44.956   4.584  10.603  0.00  0.00    +0.000 A 
ATOM     38  H   UNL     1      45.669   3.502   7.581  0.00  0.00    +0.000 HD
ENDBRANCH  25  28
ENDBRANCH  23  24
ENDBRANCH   4  23
TORSDOF 10
ENDMDL
MODEL 7
REMARK VINA RESULT:    -6.086      3.896      9.139
REMARK INTER + INTRA:         -11.714
REMARK INTER:                 -10.515
REMARK INTRA:                  -1.199
REMARK UNBOUND:                -2.070
REMARK  Name = 
REMARK  13 active torsions:
REMARK  status: ('A' for Active; 'I' for Inactive)
REMARK    1  A    between atoms: C_1  and  C_2
REMARK    2  A    between atoms: C_2  and  C_3
REMARK    3  A    between atoms: C_2  and  N_4
REMARK    4  A    between atoms: N_4  and  C_5
REMARK    5  A    between atoms: C_5  and  C_6
REMARK    6  A    between atoms: C_6  and  C_7
REMARK    7  A    between atoms: C_6  and  N_13
REMARK    8  A    between atoms: N_13  and  C_14
REMARK    9  A    between atoms: N_13  and  C_15
REMARK   10  A    between atoms: C_15  and  C_16
REMARK   11  A    between atoms: C_19  and  C_20
REMARK   12  A    between atoms: C_20  and  N_21
REMARK   13  A    between atoms: C_22  and  C_24
REMARK                            x       y       z     vdW  Elec       q    Type
REMARK                         _______ _______ _______ _____ _____    ______ ____
ROOT
ATOM      1  C   UNL     1      49.256   7.776  16.006  0.00  0.00    +0.000 A 
ATOM      2  C   UNL     1      48.288   8.714  15.705  0.00  0.00    +0.000 A 
ATOM      3  C   UNL     1      47.766   8.734  14.411  0.00  0.00    +0.000 A 
ATOM      4  C   UNL     1      48.193   7.804  13.463  0.00  0.00    +0.000 A 
ATOM      5  C   UNL     1      49.183   6.925  13.841  0.00  0.00    +0.000 A 
ATOM      6  N   UNL     1      49.704   6.904  15.074  0.00  0.00    +0.000 NA
ENDROOT
BRANCH   1   7
ATOM      7  C   UNL     1      49.770   7.661  17.439  0.00  0.00    +0.000 C 
BRANCH   7   8
ATOM      8  N   UNL     1      48.763   7.715  18.529  0.00  0.00    +0.000 NA
ATOM      9  C   UNL     1      49.243   8.619  19.581  0.00  0.00    +0.000 C 
BRANCH   8  10
ATOM     10  C   UNL     1      48.424   6.349  19.047  0.00  0.00    +0.000 C 
BRANCH  10  11
ATOM     11  C   UNL     1      49.666   5.629  19.585  0.00  0.00    +0.000 A 
ATOM     12  C   UNL     1      50.688   5.228  18.716  0.00  0.00    +0.000 A 
ATOM     13  C   UNL     1      51.872   4.692  19.218  0.00  0.00    +0.000 A 
ATOM     14  C   UNL     1      52.058   4.562  20.593  0.00  0.00    +0.000 A 
ATOM     15  C   UNL     1      51.049   4.946  21.472  0.00  0.00    +0.000 A 
ATOM     16  C   UNL     1      49.854   5.461  20.971  0.00  0.00    +0.000 A 
ENDBRANCH  10  11
BRANCH  10  17
ATOM     17  C   UNL     1      47.701   5.497  17.973  0.00  0.00    +0.000 C 
BRANCH  17  18
ATOM     18  N   UNL     1      47.573   4.073  18.320  0.00  0.00    +0.000 NA
ATOM     19  H   UNL     1      48.349   3.817  18.933  0.00  0.00    +0.000 HD
BRANCH  18  21
ATOM     20  C   UNL     1      47.355   4.128  15.915  0.00  0.00    +0.000 C 
ATOM     21  C   UNL     1      47.571   3.225  17.125  0.00  0.00    +0.000 C 
ATOM     22  C   UNL     1      48.878   2.439  16.956  0.00  0.00    +0.000 C 
ENDBRANCH  18  21
ENDBRANCH  17  18
ENDBRANCH  10  17
ENDBRANCH   8  10
ENDBRANCH   7   8
ENDBRANCH   1   7
BRANCH   4  23
ATOM     23  C   UNL     1      47.623   7.725  12.083  0.00  0.00    +0.000 C 
BRANCH  23  24
ATOM     24  N   UNL     1      46.884   6.514  11.870  0.00  0.00    +0.000 N 
ATOM     25  C   UNL     1      45.517   6.477  11.902  0.00  0.00    +0.000 C 
ATOM     26  O   UNL     1      44.832   7.472  12.114  0.00  0.00    +0.000 OA
ATOM     27  H   UNL     1      47.398   5.647  11.976  0.00  0.00    +0.000 HD
BRANCH  25  28
ATOM     28  C   UNL     1      44.916   5.171  11.623  0.00  0.00    +0.000 A 
ATOM     29  C   UNL     1      44.186   4.524  12.609  0.00  0.00    +0.000 A 
ATOM     30  S   UNL     1      43.534   3.033  12.099  0.00  0.00    +0.000 S 
ATOM     31  C   UNL     1      44.240   3.184  10.555  0.00  0.00    +0.000 A 
ATOM     32  N   UNL     1      44.090   2.210   9.619  0.00  0.00    +0.000 NA
ATOM     33  C   UNL     1      44.707   2.450   8.505  0.00  0.00    +0.000 A 
ATOM     34  N   UNL     1      45.440   3.566   8.241  0.00  0.00    +0.000 N 
ATOM     35  C   UNL     1      45.576   4.600   9.139  0.00  0.00    +0.000 A 
ATOM     36  O   UNL     1      46.159   5.641   8.837  0.00  0.00    +0.000 OA
ATOM     37  C   UNL     1      44.937   4.370  10.422  0.00  0.00    +0.000 A 
ATOM     38  H   UNL     1      45.872   3.709   7.340  0.00  0.00    +0.000 HD
ENDBRANCH  25  28
ENDBRANCH  23  24
ENDBRANCH   4  23
TORSDOF 10
ENDMDL
MODEL 8
REMARK VINA RESULT:    -5.860      3.793      6.247
REMARK INTER + INTRA:         -11.356
REMARK INTER:                 -10.220
REMARK INTRA:                  -1.136
REMARK UNBOUND:                -2.070
REMARK  Name = 
REMARK  13 active torsions:
REMARK  status: ('A' for Active; 'I' for Inactive)
REMARK    1  A    between atoms: C_1  and  C_2
REMARK    2  A    between atoms: C_2  and  C_3
REMARK    3  A    between atoms: C_2  and  N_4
REMARK    4  A    between atoms: N_4  and  C_5
REMARK    5  A    between atoms: C_5  and  C_6
REMARK    6  A    between atoms: C_6  and  C_7
REMARK    7  A    between atoms: C_6  and  N_13
REMARK    8  A    between atoms: N_13  and  C_14
REMARK    9  A    between atoms: N_13  and  C_15
REMARK   10  A    between atoms: C_15  and  C_16
REMARK   11  A    between atoms: C_19  and  C_20
REMARK   12  A    between atoms: C_20  and  N_21
REMARK   13  A    between atoms: C_22  and  C_24
REMARK                            x       y       z     vdW  Elec       q    Type
REMARK                         _______ _______ _______ _____ _____    ______ ____
ROOT
ATOM      1  C   UNL     1      46.905   4.801  13.731  0.00  0.00    +0.000 A 
ATOM      2  C   UNL     1      46.907   4.366  15.042  0.00  0.00    +0.000 A 
ATOM      3  C   UNL     1      47.752   5.005  15.950  0.00  0.00    +0.000 A 
ATOM      4  C   UNL     1      48.546   6.078  15.541  0.00  0.00    +0.000 A 
ATOM      5  C   UNL     1      48.503   6.424  14.209  0.00  0.00    +0.000 A 
ATOM      6  N   UNL     1      47.708   5.811  13.324  0.00  0.00    +0.000 NA
ENDROOT
BRANCH   1   7
ATOM      7  C   UNL     1      45.916   4.193  12.739  0.00  0.00    +0.000 C 
BRANCH   7   8
ATOM      8  N   UNL     1      44.539   4.750  12.724  0.00  0.00    +0.000 NA
ATOM      9  C   UNL     1      43.588   3.684  13.060  0.00  0.00    +0.000 C 
BRANCH   8  10
ATOM     10  C   UNL     1      44.221   5.424  11.422  0.00  0.00    +0.000 C 
BRANCH  10  11
ATOM     11  C   UNL     1      44.774   4.632  10.231  0.00  0.00    +0.000 A 
ATOM     12  C   UNL     1      44.252   3.373   9.910  0.00  0.00    +0.000 A 
ATOM     13  C   UNL     1      44.662   2.712   8.755  0.00  0.00    +0.000 A 
ATOM     14  C   UNL     1      45.586   3.305   7.895  0.00  0.00    +0.000 A 
ATOM     15  C   UNL     1      46.123   4.552   8.203  0.00  0.00    +0.000 A 
ATOM     16  C   UNL     1      45.731   5.204   9.371  0.00  0.00    +0.000 A 
ENDBRANCH  10  11
BRANCH  10  17
ATOM     17  C   UNL     1      44.724   6.891  11.404  0.00  0.00    +0.000 C 
BRANCH  17  18
ATOM     18  N   UNL     1      44.863   7.496  12.738  0.00  0.00    +0.000 NA
ATOM     19  H   UNL     1      43.930   7.634  13.130  0.00  0.00    +0.000 HD
BRANCH  18  21
ATOM     20  C   UNL     1      46.808   8.572  11.794  0.00  0.00    +0.000 C 
ATOM     21  C   UNL     1      45.581   8.771  12.679  0.00  0.00    +0.000 C 
ATOM     22  C   UNL     1      44.719   9.910  12.119  0.00  0.00    +0.000 C 
ENDBRANCH  18  21
ENDBRANCH  17  18
ENDBRANCH  10  17
ENDBRANCH   8  10
ENDBRANCH   7   8
ENDBRANCH   1   7
BRANCH   4  23
ATOM     23  C   UNL     1      49.419   6.850  16.478  0.00  0.00    +0.000 C 
BRANCH  23  24
ATOM     24  N   UNL     1      48.753   7.153  17.712  0.00  0.00    +0.000 N 
ATOM     25  C   UNL     1      49.378   7.812  18.736  0.00  0.00    +0.000 C 
ATOM     26  O   UNL     1      50.542   8.188  18.669  0.00  0.00    +0.000 OA
ATOM     27  H   UNL     1      47.912   6.624  17.914  0.00  0.00    +0.000 HD
BRANCH  25  28
ATOM     28  C   UNL     1      48.545   8.081  19.911  0.00  0.00    +0.000 A 
ATOM     29  C   UNL     1      48.583   7.215  20.994  0.00  0.00    +0.000 A 
ATOM     30  S   UNL     1      47.577   7.700  22.283  0.00  0.00    +0.000 S 
ATOM     31  C   UNL     1      47.026   9.062  21.419  0.00  0.00    +0.000 A 
ATOM     32  N   UNL     1      46.105   9.906  21.956  0.00  0.00    +0.000 NA
ATOM     33  C   UNL     1      45.760  10.878  21.173  0.00  0.00    +0.000 A 
ATOM     34  N   UNL     1      46.256  11.089  19.922  0.00  0.00    +0.000 N 
ATOM     35  C   UNL     1      47.228  10.292  19.360  0.00  0.00    +0.000 A 
ATOM     36  O   UNL     1      47.731  10.565  18.271  0.00  0.00    +0.000 OA
ATOM     37  C   UNL     1      47.626   9.161  20.178  0.00  0.00    +0.000 A 
ATOM     38  H   UNL     1      45.970  11.885  19.372  0.00  0.00    +0.000 HD
ENDBRANCH  25  28
ENDBRANCH  23  24
ENDBRANCH   4  23
TORSDOF 10
ENDMDL
MODEL 9
REMARK VINA RESULT:    -5.838      4.374      9.047
REMARK INTER + INTRA:         -11.321
REMARK INTER:                  -9.476
REMARK INTRA:                  -1.845
REMARK UNBOUND:                -2.070
REMARK  Name = 
REMARK  13 active torsions:
REMARK  status: ('A' for Active; 'I' for Inactive)
REMARK    1  A    between atoms: C_1  and  C_2
REMARK    2  A    between atoms: C_2  and  C_3
REMARK    3  A    between atoms: C_2  and  N_4
REMARK    4  A    between atoms: N_4  and  C_5
REMARK    5  A    between atoms: C_5  and  C_6
REMARK    6  A    between atoms: C_6  and  C_7
REMARK    7  A    between atoms: C_6  and  N_13
REMARK    8  A    between atoms: N_13  and  C_14
REMARK    9  A    between atoms: N_13  and  C_15
REMARK   10  A    between atoms: C_15  and  C_16
REMARK   11  A    between atoms: C_19  and  C_20
REMARK   12  A    between atoms: C_20  and  N_21
REMARK   13  A    between atoms: C_22  and  C_24
REMARK                            x       y       z     vdW  Elec       q    Type
REMARK                         _______ _______ _______ _____ _____    ______ ____
ROOT
ATOM      1  C   UNL     1      50.538   7.620  14.826  0.00  0.00    +0.000 A 
ATOM      2  C   UNL     1      50.654   8.652  13.915  0.00  0.00    +0.000 A 
ATOM      3  C   UNL     1      49.708   8.743  12.894  0.00  0.00    +0.000 A 
ATOM      4  C   UNL     1      48.656   7.830  12.822  0.00  0.00    +0.000 A 
ATOM      5  C   UNL     1      48.636   6.815  13.753  0.00  0.00    +0.000 A 
ATOM      6  N   UNL     1      49.545   6.707  14.730  0.00  0.00    +0.000 NA
ENDROOT
BRANCH   1   7
ATOM      7  C   UNL     1      51.494   7.555  16.014  0.00  0.00    +0.000 C 
BRANCH   7   8
ATOM      8  N   UNL     1      51.066   8.226  17.268  0.00  0.00    +0.000 NA
ATOM      9  C   UNL     1      51.587   7.473  18.416  0.00  0.00    +0.000 C 
BRANCH   8  10
ATOM     10  C   UNL     1      49.579   8.415  17.324  0.00  0.00    +0.000 C 
BRANCH  10  11
ATOM     11  C   UNL     1      49.210   9.836  17.764  0.00  0.00    +0.000 A 
ATOM     12  C   UNL     1      50.196  10.825  17.874  0.00  0.00    +0.000 A 
ATOM     13  C   UNL     1      49.844  12.146  18.147  0.00  0.00    +0.000 A 
ATOM     14  C   UNL     1      48.504  12.499  18.300  0.00  0.00    +0.000 A 
ATOM     15  C   UNL     1      47.512  11.527  18.204  0.00  0.00    +0.000 A 
ATOM     16  C   UNL     1      47.864  10.202  17.954  0.00  0.00    +0.000 A 
ENDBRANCH  10  11
BRANCH  10  17
ATOM     17  C   UNL     1      48.905   7.353  18.230  0.00  0.00    +0.000 C 
BRANCH  17  18
ATOM     18  N   UNL     1      48.092   6.367  17.500  0.00  0.00    +0.000 NA
ATOM     19  H   UNL     1      47.114   6.660  17.540  0.00  0.00    +0.000 HD
BRANCH  18  21
ATOM     20  C   UNL     1      49.496   4.402  17.452  0.00  0.00    +0.000 C 
ATOM     21  C   UNL     1      48.242   5.022  18.062  0.00  0.00    +0.000 C 
ATOM     22  C   UNL     1      48.360   5.031  19.591  0.00  0.00    +0.000 C 
ENDBRANCH  18  21
ENDBRANCH  17  18
ENDBRANCH  10  17
ENDBRANCH   8  10
ENDBRANCH   7   8
ENDBRANCH   1   7
BRANCH   4  23
ATOM     23  C   UNL     1      47.571   7.914  11.796  0.00  0.00    +0.000 C 
BRANCH  23  24
ATOM     24  N   UNL     1      46.825   6.693  11.696  0.00  0.00    +0.000 N 
ATOM     25  C   UNL     1      45.459   6.676  11.609  0.00  0.00    +0.000 C 
ATOM     26  O   UNL     1      44.784   7.699  11.609  0.00  0.00    +0.000 OA
ATOM     27  H   UNL     1      47.306   5.845  11.975  0.00  0.00    +0.000 HD
BRANCH  25  28
ATOM     28  C   UNL     1      44.854   5.349  11.469  0.00  0.00    +0.000 A 
ATOM     29  C   UNL     1      44.113   4.818  12.514  0.00  0.00    +0.000 A 
ATOM     30  S   UNL     1      43.458   3.283  12.165  0.00  0.00    +0.000 S 
ATOM     31  C   UNL     1      44.177   3.260  10.621  0.00  0.00    +0.000 A 
ATOM     32  N   UNL     1      44.029   2.190   9.796  0.00  0.00    +0.000 NA
ATOM     33  C   UNL     1      44.657   2.303   8.668  0.00  0.00    +0.000 A 
ATOM     34  N   UNL     1      45.398   3.380   8.289  0.00  0.00    +0.000 N 
ATOM     35  C   UNL     1      45.532   4.506   9.070  0.00  0.00    +0.000 A 
ATOM     36  O   UNL     1      46.123   5.505   8.660  0.00  0.00    +0.000 OA
ATOM     37  C   UNL     1      44.881   4.422  10.364  0.00  0.00    +0.000 A 
ATOM     38  H   UNL     1      45.838   3.421   7.382  0.00  0.00    +0.000 HD
ENDBRANCH  25  28
ENDBRANCH  23  24
ENDBRANCH   4  23
TORSDOF 10
ENDMDL
