MODEL 1
REMARK VINA RESULT:    -8.022      0.000      0.000
REMARK INTER + INTRA:         -10.642
REMARK INTER:                  -9.897
REMARK INTRA:                  -0.745
REMARK UNBOUND:                -0.745
REMARK  Name = 
REMARK  4 active torsions:
REMARK  status: ('A' for Active; 'I' for Inactive)
REMARK    1  A    between atoms: C_5  and  C_6
REMARK    2  A    between atoms: C_10  and  C_11
REMARK    3  A    between atoms: C_11  and  C_12
REMARK    4  A    between atoms: C_12  and  C_13
REMARK                            x       y       z     vdW  Elec       q    Type
REMARK                         _______ _______ _______ _____ _____    ______ ____
ROOT
ATOM      1  C   UNL     1      47.024   6.621  12.545  0.00  0.00    +0.000 A 
ATOM      2  C   UNL     1      47.745   5.797  13.406  0.00  0.00    +0.000 A 
ATOM      3  N   UNL     1      47.383   4.528  13.699  0.00  0.00    +0.000 NA
ATOM      4  C   UNL     1      46.236   4.116  13.111  0.00  0.00    +0.000 A 
ATOM      5  C   UNL     1      45.447   4.921  12.285  0.00  0.00    +0.000 A 
ATOM      6  N   UNL     1      45.859   6.185  11.993  0.00  0.00    +0.000 NA
ENDROOT
BRANCH   1  11
ATOM      7  F   UNL     1      48.619  11.772  11.147  0.00  0.00    +0.000 F 
ATOM      8  C   UNL     1      48.244  10.527  11.467  0.00  0.00    +0.000 A 
ATOM      9  C   UNL     1      49.174   9.511  11.376  0.00  0.00    +0.000 A 
ATOM     10  C   UNL     1      48.778   8.217  11.720  0.00  0.00    +0.000 A 
ATOM     11  C   UNL     1      47.466   7.965  12.148  0.00  0.00    +0.000 A 
ATOM     12  C   UNL     1      46.621   9.078  12.203  0.00  0.00    +0.000 A 
ATOM     13  N   UNL     1      46.972  10.343  11.871  0.00  0.00    +0.000 NA
ENDBRANCH   1  11
BRANCH   5  14
ATOM     14  C   UNL     1      44.125   4.411  11.708  0.00  0.00    +0.000 C 
ATOM     15  C   UNL     1      42.885   4.584  12.580  0.00  0.00    +0.000 C 
ATOM     16  C   UNL     1      43.436   3.212  12.350  0.00  0.00    +0.000 C 
BRANCH  14  17
ATOM     17  C   UNL     1      43.951   4.596  10.206  0.00  0.00    +0.000 C 
BRANCH  17  18
ATOM     18  C   UNL     1      44.925   3.816   9.344  0.00  0.00    +0.000 A 
ATOM     19  C   UNL     1      44.998   2.415   9.351  0.00  0.00    +0.000 A 
ATOM     20  C   UNL     1      45.839   1.737   8.463  0.00  0.00    +0.000 A 
ATOM     21  C   UNL     1      46.607   2.453   7.552  0.00  0.00    +0.000 A 
ATOM     22 CL   UNL     1      47.610   1.616   6.432  0.00  0.00    +0.000 Cl
ATOM     23  C   UNL     1      46.556   3.844   7.532  0.00  0.00    +0.000 A 
ATOM     24  C   UNL     1      45.719   4.520   8.422  0.00  0.00    +0.000 A 
ENDBRANCH  17  18
ENDBRANCH  14  17
ENDBRANCH   5  14
TORSDOF 4
ENDMDL
MODEL 2
REMARK VINA RESULT:    -8.007      2.951      4.306
REMARK INTER + INTRA:         -10.624
REMARK INTER:                 -10.176
REMARK INTRA:                  -0.448
REMARK UNBOUND:                -0.745
REMARK  Name = 
REMARK  4 active torsions:
REMARK  status: ('A' for Active; 'I' for Inactive)
REMARK    1  A    between atoms: C_5  and  C_6
REMARK    2  A    between atoms: C_10  and  C_11
REMARK    3  A    between atoms: C_11  and  C_12
REMARK    4  A    between atoms: C_12  and  C_13
REMARK                            x       y       z     vdW  Elec       q    Type
REMARK                         _______ _______ _______ _____ _____    ______ ____
ROOT
ATOM      1  C   UNL     1      47.142   5.404  13.922  0.00  0.00    +0.000 A 
ATOM      2  C   UNL     1      47.801   6.349  13.140  0.00  0.00    +0.000 A 
ATOM      3  N   UNL     1      47.301   6.836  11.982  0.00  0.00    +0.000 NA
ATOM      4  C   UNL     1      46.110   6.313  11.615  0.00  0.00    +0.000 A 
ATOM      5  C   UNL     1      45.434   5.323  12.334  0.00  0.00    +0.000 A 
ATOM      6  N   UNL     1      45.957   4.877  13.508  0.00  0.00    +0.000 NA
ENDROOT
BRANCH   1  11
ATOM      7  F   UNL     1      48.992   3.795  18.924  0.00  0.00    +0.000 F 
ATOM      8  C   UNL     1      48.552   4.165  17.714  0.00  0.00    +0.000 A 
ATOM      9  C   UNL     1      47.767   3.285  16.997  0.00  0.00    +0.000 A 
ATOM     10  C   UNL     1      47.304   3.681  15.741  0.00  0.00    +0.000 A 
ATOM     11  C   UNL     1      47.635   4.944  15.228  0.00  0.00    +0.000 A 
ATOM     12  C   UNL     1      48.431   5.745  16.051  0.00  0.00    +0.000 A 
ATOM     13  N   UNL     1      48.900   5.389  17.271  0.00  0.00    +0.000 NA
ENDBRANCH   1  11
BRANCH   5  14
ATOM     14  C   UNL     1      44.121   4.727  11.823  0.00  0.00    +0.000 C 
ATOM     15  C   UNL     1      42.896   4.903  12.715  0.00  0.00    +0.000 C 
ATOM     16  C   UNL     1      43.497   3.542  12.550  0.00  0.00    +0.000 C 
BRANCH  14  17
ATOM     17  C   UNL     1      43.904   4.817  10.317  0.00  0.00    +0.000 C 
BRANCH  17  18
ATOM     18  C   UNL     1      44.792   3.911   9.484  0.00  0.00    +0.000 A 
ATOM     19  C   UNL     1      44.765   2.512   9.585  0.00  0.00    +0.000 A 
ATOM     20  C   UNL     1      45.527   1.717   8.723  0.00  0.00    +0.000 A 
ATOM     21  C   UNL     1      46.313   2.313   7.744  0.00  0.00    +0.000 A 
ATOM     22 CL   UNL     1      47.216   1.332   6.656  0.00  0.00    +0.000 Cl
ATOM     23  C   UNL     1      46.359   3.699   7.628  0.00  0.00    +0.000 A 
ATOM     24  C   UNL     1      45.602   4.493   8.493  0.00  0.00    +0.000 A 
ENDBRANCH  17  18
ENDBRANCH  14  17
ENDBRANCH   5  14
TORSDOF 4
ENDMDL
MODEL 3
REMARK VINA RESULT:    -7.803      1.797      2.534
REMARK INTER + INTRA:         -10.373
REMARK INTER:                  -9.652
REMARK INTRA:                  -0.721
REMARK UNBOUND:                -0.745
REMARK  Name = 
REMARK  4 active torsions:
REMARK  status: ('A' for Active; 'I' for Inactive)
REMARK    1  A    between atoms: C_5  and  C_6
REMARK    2  A    between atoms: C_10  and  C_11
REMARK    3  A    between atoms: C_11  and  C_12
REMARK    4  A    between atoms: C_12  and  C_13
REMARK                            x       y       z     vdW  Elec       q    Type
REMARK                         _______ _______ _______ _____ _____    ______ ____
ROOT
ATOM      1  C   UNL     1      46.494   7.190  12.204  0.00  0.00    +0.000 A 
ATOM      2  C   UNL     1      45.605   8.207  11.863  0.00  0.00    +0.000 A 
ATOM      3  N   UNL     1      44.338   7.979  11.448  0.00  0.00    +0.000 NA
ATOM      4  C   UNL     1      43.998   6.673  11.358  0.00  0.00    +0.000 A 
ATOM      5  C   UNL     1      44.869   5.615  11.635  0.00  0.00    +0.000 A 
ATOM      6  N   UNL     1      46.128   5.886  12.074  0.00  0.00    +0.000 NA
ENDROOT
BRANCH   1  11
ATOM      7  F   UNL     1      51.596   7.980  14.297  0.00  0.00    +0.000 F 
ATOM      8  C   UNL     1      50.367   7.809  13.792  0.00  0.00    +0.000 A 
ATOM      9  C   UNL     1      50.012   8.515  12.660  0.00  0.00    +0.000 A 
ATOM     10  C   UNL     1      48.733   8.325  12.134  0.00  0.00    +0.000 A 
ATOM     11  C   UNL     1      47.838   7.436  12.747  0.00  0.00    +0.000 A 
ATOM     12  C   UNL     1      48.317   6.778  13.883  0.00  0.00    +0.000 A 
ATOM     13  N   UNL     1      49.549   6.944  14.422  0.00  0.00    +0.000 NA
ENDBRANCH   1  11
BRANCH   5  14
ATOM     14  C   UNL     1      44.437   4.161  11.446  0.00  0.00    +0.000 C 
ATOM     15  C   UNL     1      43.721   3.500  12.621  0.00  0.00    +0.000 C 
ATOM     16  C   UNL     1      45.107   3.062  12.263  0.00  0.00    +0.000 C 
BRANCH  14  17
ATOM     17  C   UNL     1      43.958   3.797  10.046  0.00  0.00    +0.000 C 
BRANCH  17  18
ATOM     18  C   UNL     1      45.043   3.324   9.096  0.00  0.00    +0.000 A 
ATOM     19  C   UNL     1      45.371   1.971   8.925  0.00  0.00    +0.000 A 
ATOM     20  C   UNL     1      46.306   1.577   7.963  0.00  0.00    +0.000 A 
ATOM     21  C   UNL     1      46.913   2.532   7.155  0.00  0.00    +0.000 A 
ATOM     22 CL   UNL     1      48.031   2.042   5.942  0.00  0.00    +0.000 Cl
ATOM     23  C   UNL     1      46.607   3.881   7.311  0.00  0.00    +0.000 A 
ATOM     24  C   UNL     1      45.676   4.273   8.276  0.00  0.00    +0.000 A 
ENDBRANCH  17  18
ENDBRANCH  14  17
ENDBRANCH   5  14
TORSDOF 4
ENDMDL
MODEL 4
REMARK VINA RESULT:    -7.647      2.395      2.877
REMARK INTER + INTRA:         -10.180
REMARK INTER:                  -9.486
REMARK INTRA:                  -0.694
REMARK UNBOUND:                -0.745
REMARK  Name = 
REMARK  4 active torsions:
REMARK  status: ('A' for Active; 'I' for Inactive)
REMARK    1  A    between atoms: C_5  and  C_6
REMARK    2  A    between atoms: C_10  and  C_11
REMARK    3  A    between atoms: C_11  and  C_12
REMARK    4  A    between atoms: C_12  and  C_13
REMARK                            x       y       z     vdW  Elec       q    Type
REMARK                         _______ _______ _______ _____ _____    ______ ____
ROOT
ATOM      1  C   UNL     1      45.134   8.073  11.760  0.00  0.00    +0.000 A 
ATOM      2  C   UNL     1      46.416   8.051  12.305  0.00  0.00    +0.000 A 
ATOM      3  N   UNL     1      47.092   6.911  12.572  0.00  0.00    +0.000 NA
ATOM      4  C   UNL     1      46.416   5.773  12.294  0.00  0.00    +0.000 A 
ATOM      5  C   UNL     1      45.109   5.740  11.799  0.00  0.00    +0.000 A 
ATOM      6  N   UNL     1      44.472   6.909  11.520  0.00  0.00    +0.000 NA
ENDROOT
BRANCH   1  11
ATOM      7  F   UNL     1      42.357  12.691  10.348  0.00  0.00    +0.000 F 
ATOM      8  C   UNL     1      43.041  11.588  10.680  0.00  0.00    +0.000 A 
ATOM      9  C   UNL     1      44.254  11.729  11.324  0.00  0.00    +0.000 A 
ATOM     10  C   UNL     1      44.957  10.576  11.676  0.00  0.00    +0.000 A 
ATOM     11  C   UNL     1      44.435   9.308  11.379  0.00  0.00    +0.000 A 
ATOM     12  C   UNL     1      43.197   9.297  10.730  0.00  0.00    +0.000 A 
ATOM     13  N   UNL     1      42.492  10.397  10.371  0.00  0.00    +0.000 NA
ENDBRANCH   1  11
BRANCH   5  14
ATOM     14  C   UNL     1      44.381   4.414  11.573  0.00  0.00    +0.000 C 
ATOM     15  C   UNL     1      43.472   3.931  12.699  0.00  0.00    +0.000 C 
ATOM     16  C   UNL     1      44.746   3.199  12.417  0.00  0.00    +0.000 C 
BRANCH  14  17
ATOM     17  C   UNL     1      43.915   4.159  10.145  0.00  0.00    +0.000 C 
BRANCH  17  18
ATOM     18  C   UNL     1      44.959   3.555   9.225  0.00  0.00    +0.000 A 
ATOM     19  C   UNL     1      45.169   2.173   9.112  0.00  0.00    +0.000 A 
ATOM     20  C   UNL     1      46.072   1.660   8.174  0.00  0.00    +0.000 A 
ATOM     21  C   UNL     1      46.763   2.524   7.333  0.00  0.00    +0.000 A 
ATOM     22 CL   UNL     1      47.841   1.889   6.152  0.00  0.00    +0.000 Cl
ATOM     23  C   UNL     1      46.575   3.899   7.432  0.00  0.00    +0.000 A 
ATOM     24  C   UNL     1      45.677   4.411   8.372  0.00  0.00    +0.000 A 
ENDBRANCH  17  18
ENDBRANCH  14  17
ENDBRANCH   5  14
TORSDOF 4
ENDMDL
MODEL 5
REMARK VINA RESULT:    -7.142      3.786      6.694
REMARK INTER + INTRA:          -9.557
REMARK INTER:                  -8.989
REMARK INTRA:                  -0.568
REMARK UNBOUND:                -0.745
REMARK  Name = 
REMARK  4 active torsions:
REMARK  status: ('A' for Active; 'I' for Inactive)
REMARK    1  A    between atoms: C_5  and  C_6
REMARK    2  A    between atoms: C_10  and  C_11
REMARK    3  A    between atoms: C_11  and  C_12
REMARK    4  A    between atoms: C_12  and  C_13
REMARK                            x       y       z     vdW  Elec       q    Type
REMARK                         _______ _______ _______ _____ _____    ______ ____
ROOT
ATOM      1  C   UNL     1      44.904   2.889   9.561  0.00  0.00    +0.000 A 
ATOM      2  C   UNL     1      44.151   1.869  10.136  0.00  0.00    +0.000 A 
ATOM      3  N   UNL     1      43.295   2.065  11.164  0.00  0.00    +0.000 NA
ATOM      4  C   UNL     1      43.241   3.336  11.622  0.00  0.00    +0.000 A 
ATOM      5  C   UNL     1      44.016   4.384  11.117  0.00  0.00    +0.000 A 
ATOM      6  N   UNL     1      44.847   4.152  10.065  0.00  0.00    +0.000 NA
ENDROOT
BRANCH   1  11
ATOM      7  F   UNL     1      48.100   2.037   5.078  0.00  0.00    +0.000 F 
ATOM      8  C   UNL     1      47.341   2.258   6.160  0.00  0.00    +0.000 A 
ATOM      9  C   UNL     1      46.803   3.516   6.345  0.00  0.00    +0.000 A 
ATOM     10  C   UNL     1      46.006   3.737   7.470  0.00  0.00    +0.000 A 
ATOM     11  C   UNL     1      45.762   2.700   8.382  0.00  0.00    +0.000 A 
ATOM     12  C   UNL     1      46.358   1.472   8.080  0.00  0.00    +0.000 A 
ATOM     13  N   UNL     1      47.140   1.226   7.002  0.00  0.00    +0.000 NA
ENDBRANCH   1  11
BRANCH   5  14
ATOM     14  C   UNL     1      43.953   5.784  11.729  0.00  0.00    +0.000 C 
ATOM     15  C   UNL     1      42.582   6.454  11.769  0.00  0.00    +0.000 C 
ATOM     16  C   UNL     1      43.631   6.981  10.842  0.00  0.00    +0.000 C 
BRANCH  14  17
ATOM     17  C   UNL     1      44.878   6.022  12.915  0.00  0.00    +0.000 C 
BRANCH  17  18
ATOM     18  C   UNL     1      46.035   6.968  12.651  0.00  0.00    +0.000 A 
ATOM     19  C   UNL     1      47.205   6.575  11.984  0.00  0.00    +0.000 A 
ATOM     20  C   UNL     1      48.199   7.508  11.672  0.00  0.00    +0.000 A 
ATOM     21  C   UNL     1      48.027   8.845  12.014  0.00  0.00    +0.000 A 
ATOM     22 CL   UNL     1      49.232   9.998  11.592  0.00  0.00    +0.000 Cl
ATOM     23  C   UNL     1      46.877   9.256  12.682  0.00  0.00    +0.000 A 
ATOM     24  C   UNL     1      45.887   8.322  12.997  0.00  0.00    +0.000 A 
ENDBRANCH  17  18
ENDBRANCH  14  17
ENDBRANCH   5  14
TORSDOF 4
ENDMDL
MODEL 6
REMARK VINA RESULT:    -6.877      3.835      6.965
REMARK INTER + INTRA:          -9.229
REMARK INTER:                  -9.302
REMARK INTRA:                   0.072
REMARK UNBOUND:                -0.745
REMARK  Name = 
REMARK  4 active torsions:
REMARK  status: ('A' for Active; 'I' for Inactive)
REMARK    1  A    between atoms: C_5  and  C_6
REMARK    2  A    between atoms: C_10  and  C_11
REMARK    3  A    between atoms: C_11  and  C_12
REMARK    4  A    between atoms: C_12  and  C_13
REMARK                            x       y       z     vdW  Elec       q    Type
REMARK                         _______ _______ _______ _____ _____    ______ ____
ROOT
ATOM      1  C   UNL     1      44.900   4.690  10.055  0.00  0.00    +0.000 A 
ATOM      2  C   UNL     1      43.557   4.694  10.425  0.00  0.00    +0.000 A 
ATOM      3  N   UNL     1      43.018   5.608  11.262  0.00  0.00    +0.000 NA
ATOM      4  C   UNL     1      43.894   6.517  11.747  0.00  0.00    +0.000 A 
ATOM      5  C   UNL     1      45.260   6.525  11.451  0.00  0.00    +0.000 A 
ATOM      6  N   UNL     1      45.759   5.603  10.583  0.00  0.00    +0.000 NA
ENDROOT
BRANCH   1  11
ATOM      7  F   UNL     1      47.170   1.247   6.310  0.00  0.00    +0.000 F 
ATOM      8  C   UNL     1      46.608   2.065   7.210  0.00  0.00    +0.000 A 
ATOM      9  C   UNL     1      45.920   1.510   8.270  0.00  0.00    +0.000 A 
ATOM     10  C   UNL     1      45.345   2.368   9.209  0.00  0.00    +0.000 A 
ATOM     11  C   UNL     1      45.468   3.759   9.070  0.00  0.00    +0.000 A 
ATOM     12  C   UNL     1      46.193   4.196   7.957  0.00  0.00    +0.000 A 
ATOM     13  N   UNL     1      46.758   3.391   7.027  0.00  0.00    +0.000 NA
ENDBRANCH   1  11
BRANCH   5  14
ATOM     14  C   UNL     1      46.205   7.544  12.090  0.00  0.00    +0.000 C 
ATOM     15  C   UNL     1      45.569   8.591  13.000  0.00  0.00    +0.000 C 
ATOM     16  C   UNL     1      46.126   9.009  11.675  0.00  0.00    +0.000 C 
BRANCH  14  17
ATOM     17  C   UNL     1      47.570   7.005  12.497  0.00  0.00    +0.000 C 
BRANCH  17  18
ATOM     18  C   UNL     1      47.595   6.233  13.803  0.00  0.00    +0.000 A 
ATOM     19  C   UNL     1      46.911   5.022  13.987  0.00  0.00    +0.000 A 
ATOM     20  C   UNL     1      47.048   4.295  15.174  0.00  0.00    +0.000 A 
ATOM     21  C   UNL     1      47.880   4.767  16.183  0.00  0.00    +0.000 A 
ATOM     22 CL   UNL     1      48.080   3.850  17.625  0.00  0.00    +0.000 Cl
ATOM     23  C   UNL     1      48.563   5.969  16.025  0.00  0.00    +0.000 A 
ATOM     24  C   UNL     1      48.421   6.696  14.841  0.00  0.00    +0.000 A 
ENDBRANCH  17  18
ENDBRANCH  14  17
ENDBRANCH   5  14
TORSDOF 4
ENDMDL
MODEL 7
REMARK VINA RESULT:    -6.316      3.839      7.169
REMARK INTER + INTRA:          -8.537
REMARK INTER:                  -8.286
REMARK INTRA:                  -0.251
REMARK UNBOUND:                -0.745
REMARK  Name = 
REMARK  4 active torsions:
REMARK  status: ('A' for Active; 'I' for Inactive)
REMARK    1  A    between atoms: C_5  and  C_6
REMARK    2  A    between atoms: C_10  and  C_11
REMARK    3  A    between atoms: C_11  and  C_12
REMARK    4  A    between atoms: C_12  and  C_13
REMARK                            x       y       z     vdW  Elec       q    Type
REMARK                         _______ _______ _______ _____ _____    ______ ____
ROOT
ATOM      1  C   UNL     1      45.424   6.262  11.165  0.00  0.00    +0.000 A 
ATOM      2  C   UNL     1      44.499   7.298  11.274  0.00  0.00    +0.000 A 
ATOM      3  N   UNL     1      44.793   8.504  11.808  0.00  0.00    +0.000 NA
ATOM      4  C   UNL     1      46.060   8.628  12.264  0.00  0.00    +0.000 A 
ATOM      5  C   UNL     1      47.009   7.603  12.230  0.00  0.00    +0.000 A 
ATOM      6  N   UNL     1      46.682   6.411  11.660  0.00  0.00    +0.000 NA
ENDROOT
BRANCH   1  11
ATOM      7  F   UNL     1      44.212   1.411   8.708  0.00  0.00    +0.000 F 
ATOM      8  C   UNL     1      44.521   2.577   9.291  0.00  0.00    +0.000 A 
ATOM      9  C   UNL     1      45.133   3.555   8.533  0.00  0.00    +0.000 A 
ATOM     10  C   UNL     1      45.443   4.771   9.145  0.00  0.00    +0.000 A 
ATOM     11  C   UNL     1      45.137   4.984  10.497  0.00  0.00    +0.000 A 
ATOM     12  C   UNL     1      44.513   3.920  11.154  0.00  0.00    +0.000 A 
ATOM     13  N   UNL     1      44.203   2.727  10.592  0.00  0.00    +0.000 NA
ENDBRANCH   1  11
BRANCH   5  14
ATOM     14  C   UNL     1      48.404   7.793  12.826  0.00  0.00    +0.000 C 
ATOM     15  C   UNL     1      49.383   8.645  12.024  0.00  0.00    +0.000 C 
ATOM     16  C   UNL     1      49.612   7.171  12.133  0.00  0.00    +0.000 C 
BRANCH  14  17
ATOM     17  C   UNL     1      48.456   7.916  14.344  0.00  0.00    +0.000 C 
BRANCH  17  18
ATOM     18  C   UNL     1      48.369   6.604  15.101  0.00  0.00    +0.000 A 
ATOM     19  C   UNL     1      49.072   6.361  16.290  0.00  0.00    +0.000 A 
ATOM     20  C   UNL     1      48.879   5.175  17.006  0.00  0.00    +0.000 A 
ATOM     21  C   UNL     1      47.973   4.227  16.546  0.00  0.00    +0.000 A 
ATOM     22 CL   UNL     1      47.705   2.788  17.450  0.00  0.00    +0.000 Cl
ATOM     23  C   UNL     1      47.269   4.445  15.365  0.00  0.00    +0.000 A 
ATOM     24  C   UNL     1      47.466   5.627  14.648  0.00  0.00    +0.000 A 
ENDBRANCH  17  18
ENDBRANCH  14  17
ENDBRANCH   5  14
TORSDOF 4
ENDMDL
MODEL 8
REMARK VINA RESULT:    -6.238      4.792      7.785
REMARK INTER + INTRA:          -8.442
REMARK INTER:                  -7.785
REMARK INTRA:                  -0.656
REMARK UNBOUND:                -0.745
REMARK  Name = 
REMARK  4 active torsions:
REMARK  status: ('A' for Active; 'I' for Inactive)
REMARK    1  A    between atoms: C_5  and  C_6
REMARK    2  A    between atoms: C_10  and  C_11
REMARK    3  A    between atoms: C_11  and  C_12
REMARK    4  A    between atoms: C_12  and  C_13
REMARK                            x       y       z     vdW  Elec       q    Type
REMARK                         _______ _______ _______ _____ _____    ______ ____
ROOT
ATOM      1  C   UNL     1      47.767   6.094  13.381  0.00  0.00    +0.000 A 
ATOM      2  C   UNL     1      48.716   6.723  12.578  0.00  0.00    +0.000 A 
ATOM      3  N   UNL     1      49.770   7.412  13.072  0.00  0.00    +0.000 NA
ATOM      4  C   UNL     1      49.824   7.473  14.422  0.00  0.00    +0.000 A 
ATOM      5  C   UNL     1      48.868   6.908  15.271  0.00  0.00    +0.000 A 
ATOM      6  N   UNL     1      47.836   6.200  14.736  0.00  0.00    +0.000 NA
ENDROOT
BRANCH   1  11
ATOM      7  F   UNL     1      43.608   2.899  11.503  0.00  0.00    +0.000 F 
ATOM      8  C   UNL     1      44.613   3.672  11.937  0.00  0.00    +0.000 A 
ATOM      9  C   UNL     1      44.775   4.923  11.378  0.00  0.00    +0.000 A 
ATOM     10  C   UNL     1      45.819   5.726  11.840  0.00  0.00    +0.000 A 
ATOM     11  C   UNL     1      46.676   5.265  12.850  0.00  0.00    +0.000 A 
ATOM     12  C   UNL     1      46.405   3.983  13.339  0.00  0.00    +0.000 A 
ATOM     13  N   UNL     1      45.405   3.178  12.908  0.00  0.00    +0.000 NA
ENDBRANCH   1  11
BRANCH   5  14
ATOM     14  C   UNL     1      48.957   7.075  16.788  0.00  0.00    +0.000 C 
ATOM     15  C   UNL     1      48.589   8.446  17.350  0.00  0.00    +0.000 C 
ATOM     16  C   UNL     1      50.015   7.996  17.385  0.00  0.00    +0.000 C 
BRANCH  14  17
ATOM     17  C   UNL     1      48.549   5.856  17.606  0.00  0.00    +0.000 C 
BRANCH  17  18
ATOM     18  C   UNL     1      49.466   4.655  17.473  0.00  0.00    +0.000 A 
ATOM     19  C   UNL     1      50.840   4.708  17.750  0.00  0.00    +0.000 A 
ATOM     20  C   UNL     1      51.624   3.551  17.712  0.00  0.00    +0.000 A 
ATOM     21  C   UNL     1      51.039   2.327  17.408  0.00  0.00    +0.000 A 
ATOM     22 CL   UNL     1      51.996   0.897  17.403  0.00  0.00    +0.000 Cl
ATOM     23  C   UNL     1      49.679   2.251  17.122  0.00  0.00    +0.000 A 
ATOM     24  C   UNL     1      48.898   3.409  17.156  0.00  0.00    +0.000 A 
ENDBRANCH  17  18
ENDBRANCH  14  17
ENDBRANCH   5  14
TORSDOF 4
ENDMDL
MODEL 9
REMARK VINA RESULT:    -6.209      2.074      3.153
REMARK INTER + INTRA:          -8.406
REMARK INTER:                  -7.846
REMARK INTRA:                  -0.560
REMARK UNBOUND:                -0.745
REMARK  Name = 
REMARK  4 active torsions:
REMARK  status: ('A' for Active; 'I' for Inactive)
REMARK    1  A    between atoms: C_5  and  C_6
REMARK    2  A    between atoms: C_10  and  C_11
REMARK    3  A    between atoms: C_11  and  C_12
REMARK    4  A    between atoms: C_12  and  C_13
REMARK                            x       y       z     vdW  Elec       q    Type
REMARK                         _______ _______ _______ _____ _____    ______ ____
ROOT
ATOM      1  C   UNL     1      46.967   8.660  12.675  0.00  0.00    +0.000 A 
ATOM      2  C   UNL     1      48.340   8.753  12.889  0.00  0.00    +0.000 A 
ATOM      3  N   UNL     1      49.116   7.694  13.215  0.00  0.00    +0.000 NA
ATOM      4  C   UNL     1      48.450   6.525  13.350  0.00  0.00    +0.000 A 
ATOM      5  C   UNL     1      47.067   6.389  13.201  0.00  0.00    +0.000 A 
ATOM      6  N   UNL     1      46.325   7.473  12.847  0.00  0.00    +0.000 NA
ENDROOT
BRANCH   1  11
ATOM      7  F   UNL     1      43.730  12.903  11.079  0.00  0.00    +0.000 F 
ATOM      8  C   UNL     1      44.519  11.885  11.446  0.00  0.00    +0.000 A 
ATOM      9  C   UNL     1      45.887  12.040  11.355  0.00  0.00    +0.000 A 
ATOM     10  C   UNL     1      46.703  10.979  11.749  0.00  0.00    +0.000 A 
ATOM     11  C   UNL     1      46.137   9.787  12.225  0.00  0.00    +0.000 A 
ATOM     12  C   UNL     1      44.741   9.755  12.275  0.00  0.00    +0.000 A 
ATOM     13  N   UNL     1      43.921  10.764  11.896  0.00  0.00    +0.000 NA
ENDBRANCH   1  11
BRANCH   5  14
ATOM     14  C   UNL     1      46.372   5.047  13.436  0.00  0.00    +0.000 C 
ATOM     15  C   UNL     1      46.546   4.417  14.815  0.00  0.00    +0.000 C 
ATOM     16  C   UNL     1      47.209   3.788  13.630  0.00  0.00    +0.000 C 
BRANCH  14  17
ATOM     17  C   UNL     1      45.014   4.887  12.764  0.00  0.00    +0.000 C 
BRANCH  17  18
ATOM     18  C   UNL     1      45.062   4.503  11.297  0.00  0.00    +0.000 A 
ATOM     19  C   UNL     1      45.525   5.371  10.296  0.00  0.00    +0.000 A 
ATOM     20  C   UNL     1      45.647   4.936   8.972  0.00  0.00    +0.000 A 
ATOM     21  C   UNL     1      45.320   3.627   8.639  0.00  0.00    +0.000 A 
ATOM     22 CL   UNL     1      45.511   3.082   7.019  0.00  0.00    +0.000 Cl
ATOM     23  C   UNL     1      44.853   2.751   9.615  0.00  0.00    +0.000 A 
ATOM     24  C   UNL     1      44.727   3.187  10.936  0.00  0.00    +0.000 A 
ENDBRANCH  17  18
ENDBRANCH  14  17
ENDBRANCH   5  14
TORSDOF 4
ENDMDL
