MODEL 1
REMARK VINA RESULT:    -7.646      0.000      0.000
REMARK INTER + INTRA:         -11.832
REMARK INTER:                 -10.775
REMARK INTRA:                  -1.056
REMARK UNBOUND:                -1.056
REMARK  Name = 
REMARK  9 active torsions:
REMARK  status: ('A' for Active; 'I' for Inactive)
REMARK    1  A    between atoms: C_1  and  O_2
REMARK    2  A    between atoms: O_2  and  C_3
REMARK    3  A    between atoms: N_10  and  C_11
REMARK    4  A    between atoms: C_11  and  C_12
REMARK    5  A    between atoms: C_12  and  C_13
REMARK    6  A    between atoms: C_12  and  C_14
REMARK    7  A    between atoms: C_17  and  O_18
REMARK    8  A    between atoms: O_18  and  C_19
REMARK    9  A    between atoms: C_19  and  C_20
REMARK                            x       y       z     vdW  Elec       q    Type
REMARK                         _______ _______ _______ _____ _____    ______ ____
ROOT
ATOM      1  C   UNL     1      47.060   6.916  13.436  0.00  0.00    +0.000 C 
ATOM      2  C   UNL     1      46.766   8.380  13.074  0.00  0.00    +0.000 C 
ENDROOT
BRANCH   1   3
ATOM      3  C   UNL     1      46.308   5.983  12.508  0.00  0.00    +0.000 A 
ATOM      4  C   UNL     1      46.121   6.378  11.177  0.00  0.00    +0.000 A 
ATOM      5  C   UNL     1      45.485   5.541  10.266  0.00  0.00    +0.000 A 
ATOM      6  C   UNL     1      45.047   4.278  10.662  0.00  0.00    +0.000 A 
ATOM      7  C   UNL     1      45.174   3.894  11.998  0.00  0.00    +0.000 A 
ATOM      8  C   UNL     1      45.803   4.740  12.918  0.00  0.00    +0.000 A 
BRANCH   6   9
ATOM      9  O   UNL     1      44.495   3.348   9.821  0.00  0.00    +0.000 OA
BRANCH   9  10
ATOM     10  C   UNL     1      44.671   3.633   8.432  0.00  0.00    +0.000 C 
BRANCH  10  11
ATOM     11  C   UNL     1      45.814   2.820   7.890  0.00  0.00    +0.000 A 
ATOM     12  C   UNL     1      45.938   1.465   8.198  0.00  0.00    +0.000 A 
ATOM     13  C   UNL     1      46.996   0.759   7.648  0.00  0.00    +0.000 A 
ATOM     14  N   UNL     1      47.919   1.303   6.825  0.00  0.00    +0.000 NA
ATOM     15  C   UNL     1      47.786   2.617   6.549  0.00  0.00    +0.000 A 
ATOM     16  C   UNL     1      46.765   3.409   7.051  0.00  0.00    +0.000 A 
ENDBRANCH  10  11
ENDBRANCH   9  10
ENDBRANCH   6   9
ENDBRANCH   1   3
BRANCH   1  17
ATOM     17  C   UNL     1      48.576   6.668  13.478  0.00  0.00    +0.000 C 
BRANCH  17  25
ATOM     18  C   UNL     1      48.792   5.606  16.599  0.00  0.00    +0.000 A 
ATOM     19  C   UNL     1      49.077   5.576  17.970  0.00  0.00    +0.000 A 
ATOM     20  N   UNL     1      49.738   6.529  18.672  0.00  0.00    +0.000 NA
ATOM     21  C   UNL     1      50.198   7.611  18.001  0.00  0.00    +0.000 A 
ATOM     22  C   UNL     1      50.014   7.723  16.620  0.00  0.00    +0.000 A 
ATOM     23  N   UNL     1      50.424   8.723  15.776  0.00  0.00    +0.000 NA
ATOM     24  C   UNL     1      49.996   8.365  14.592  0.00  0.00    +0.000 A 
ATOM     25  N   UNL     1      49.293   7.186  14.630  0.00  0.00    +0.000 N 
ATOM     26  C   UNL     1      49.306   6.728  15.931  0.00  0.00    +0.000 A 
BRANCH  18  28
ATOM     27  C   UNL     1      47.285   3.790  16.710  0.00  0.00    +0.000 C 
ATOM     28  O   UNL     1      48.098   4.650  15.911  0.00  0.00    +0.000 OA
ENDBRANCH  18  28
ENDBRANCH  17  25
ENDBRANCH   1  17
TORSDOF 7
ENDMDL
MODEL 2
REMARK VINA RESULT:    -7.507      1.456      2.385
REMARK INTER + INTRA:         -11.636
REMARK INTER:                 -10.531
REMARK INTRA:                  -1.105
REMARK UNBOUND:                -1.056
REMARK  Name = 
REMARK  9 active torsions:
REMARK  status: ('A' for Active; 'I' for Inactive)
REMARK    1  A    between atoms: C_1  and  O_2
REMARK    2  A    between atoms: O_2  and  C_3
REMARK    3  A    between atoms: N_10  and  C_11
REMARK    4  A    between atoms: C_11  and  C_12
REMARK    5  A    between atoms: C_12  and  C_13
REMARK    6  A    between atoms: C_12  and  C_14
REMARK    7  A    between atoms: C_17  and  O_18
REMARK    8  A    between atoms: O_18  and  C_19
REMARK    9  A    between atoms: C_19  and  C_20
REMARK                            x       y       z     vdW  Elec       q    Type
REMARK                         _______ _______ _______ _____ _____    ______ ____
ROOT
ATOM      1  C   UNL     1      46.800   6.340  13.677  0.00  0.00    +0.000 C 
ATOM      2  C   UNL     1      47.310   7.688  13.144  0.00  0.00    +0.000 C 
ENDROOT
BRANCH   1   3
ATOM      3  C   UNL     1      46.065   5.587  12.585  0.00  0.00    +0.000 A 
ATOM      4  C   UNL     1      46.098   6.104  11.284  0.00  0.00    +0.000 A 
ATOM      5  C   UNL     1      45.488   5.430  10.232  0.00  0.00    +0.000 A 
ATOM      6  C   UNL     1      44.854   4.208  10.456  0.00  0.00    +0.000 A 
ATOM      7  C   UNL     1      44.763   3.710  11.756  0.00  0.00    +0.000 A 
ATOM      8  C   UNL     1      45.367   4.393  12.817  0.00  0.00    +0.000 A 
BRANCH   6   9
ATOM      9  O   UNL     1      44.305   3.426   9.474  0.00  0.00    +0.000 OA
BRANCH   9  10
ATOM     10  C   UNL     1      44.713   3.772   8.149  0.00  0.00    +0.000 C 
BRANCH  10  11
ATOM     11  C   UNL     1      45.862   2.897   7.729  0.00  0.00    +0.000 A 
ATOM     12  C   UNL     1      45.924   1.558   8.120  0.00  0.00    +0.000 A 
ATOM     13  C   UNL     1      46.991   0.792   7.680  0.00  0.00    +0.000 A 
ATOM     14  N   UNL     1      47.981   1.262   6.890  0.00  0.00    +0.000 NA
ATOM     15  C   UNL     1      47.907   2.561   6.533  0.00  0.00    +0.000 A 
ATOM     16  C   UNL     1      46.883   3.409   6.922  0.00  0.00    +0.000 A 
ENDBRANCH  10  11
ENDBRANCH   9  10
ENDBRANCH   6   9
ENDBRANCH   1   3
BRANCH   1  17
ATOM     17  C   UNL     1      47.949   5.547  14.318  0.00  0.00    +0.000 C 
BRANCH  17  25
ATOM     18  C   UNL     1      49.113   6.540  17.247  0.00  0.00    +0.000 A 
ATOM     19  C   UNL     1      49.419   6.553  18.614  0.00  0.00    +0.000 A 
ATOM     20  N   UNL     1      49.034   5.630  19.530  0.00  0.00    +0.000 NA
ATOM     21  C   UNL     1      48.258   4.602  19.113  0.00  0.00    +0.000 A 
ATOM     22  C   UNL     1      47.851   4.514  17.778  0.00  0.00    +0.000 A 
ATOM     23  N   UNL     1      47.056   3.568  17.183  0.00  0.00    +0.000 NA
ATOM     24  C   UNL     1      46.988   3.927  15.925  0.00  0.00    +0.000 A 
ATOM     25  N   UNL     1      47.731   5.052  15.666  0.00  0.00    +0.000 N 
ATOM     26  C   UNL     1      48.287   5.475  16.854  0.00  0.00    +0.000 A 
BRANCH  18  28
ATOM     27  C   UNL     1      48.861   8.720  16.373  0.00  0.00    +0.000 C 
ATOM     28  O   UNL     1      49.534   7.461  16.329  0.00  0.00    +0.000 OA
ENDBRANCH  18  28
ENDBRANCH  17  25
ENDBRANCH   1  17
TORSDOF 7
ENDMDL
MODEL 3
REMARK VINA RESULT:    -7.246      1.145      1.805
REMARK INTER + INTRA:         -11.267
REMARK INTER:                 -10.300
REMARK INTRA:                  -0.968
REMARK UNBOUND:                -1.056
REMARK  Name = 
REMARK  9 active torsions:
REMARK  status: ('A' for Active; 'I' for Inactive)
REMARK    1  A    between atoms: C_1  and  O_2
REMARK    2  A    between atoms: O_2  and  C_3
REMARK    3  A    between atoms: N_10  and  C_11
REMARK    4  A    between atoms: C_11  and  C_12
REMARK    5  A    between atoms: C_12  and  C_13
REMARK    6  A    between atoms: C_12  and  C_14
REMARK    7  A    between atoms: C_17  and  O_18
REMARK    8  A    between atoms: O_18  and  C_19
REMARK    9  A    between atoms: C_19  and  C_20
REMARK                            x       y       z     vdW  Elec       q    Type
REMARK                         _______ _______ _______ _____ _____    ______ ____
ROOT
ATOM      1  C   UNL     1      47.437   7.230  13.658  0.00  0.00    +0.000 C 
ATOM      2  C   UNL     1      47.912   8.458  12.865  0.00  0.00    +0.000 C 
ENDROOT
BRANCH   1   3
ATOM      3  C   UNL     1      46.694   6.271  12.748  0.00  0.00    +0.000 A 
ATOM      4  C   UNL     1      46.276   5.044  13.277  0.00  0.00    +0.000 A 
ATOM      5  C   UNL     1      45.544   4.147  12.506  0.00  0.00    +0.000 A 
ATOM      6  C   UNL     1      45.191   4.473  11.196  0.00  0.00    +0.000 A 
ATOM      7  C   UNL     1      45.650   5.666  10.638  0.00  0.00    +0.000 A 
ATOM      8  C   UNL     1      46.397   6.564  11.409  0.00  0.00    +0.000 A 
BRANCH   6   9
ATOM      9  O   UNL     1      44.398   3.700  10.390  0.00  0.00    +0.000 OA
BRANCH   9  10
ATOM     10  C   UNL     1      44.465   4.033   9.003  0.00  0.00    +0.000 C 
BRANCH  10  11
ATOM     11  C   UNL     1      45.467   3.144   8.317  0.00  0.00    +0.000 A 
ATOM     12  C   UNL     1      46.359   3.662   7.377  0.00  0.00    +0.000 A 
ATOM     13  C   UNL     1      47.278   2.802   6.798  0.00  0.00    +0.000 A 
ATOM     14  N   UNL     1      47.367   1.486   7.090  0.00  0.00    +0.000 NA
ATOM     15  C   UNL     1      46.488   1.004   7.993  0.00  0.00    +0.000 A 
ATOM     16  C   UNL     1      45.531   1.782   8.626  0.00  0.00    +0.000 A 
ENDBRANCH  10  11
ENDBRANCH   9  10
ENDBRANCH   6   9
ENDBRANCH   1   3
BRANCH   1  17
ATOM     17  C   UNL     1      48.613   6.591  14.413  0.00  0.00    +0.000 C 
BRANCH  17  25
ATOM     18  C   UNL     1      48.440   4.654  17.084  0.00  0.00    +0.000 A 
ATOM     19  C   UNL     1      48.344   4.250  18.422  0.00  0.00    +0.000 A 
ATOM     20  N   UNL     1      48.333   5.064  19.505  0.00  0.00    +0.000 NA
ATOM     21  C   UNL     1      48.450   6.397  19.303  0.00  0.00    +0.000 A 
ATOM     22  C   UNL     1      48.601   6.910  18.011  0.00  0.00    +0.000 A 
ATOM     23  N   UNL     1      48.753   8.215  17.617  0.00  0.00    +0.000 NA
ATOM     24  C   UNL     1      48.840   8.166  16.311  0.00  0.00    +0.000 A 
ATOM     25  N   UNL     1      48.718   6.885  15.831  0.00  0.00    +0.000 N 
ATOM     26  C   UNL     1      48.585   6.039  16.912  0.00  0.00    +0.000 A 
BRANCH  18  28
ATOM     27  C   UNL     1      48.477   2.427  16.297  0.00  0.00    +0.000 C 
ATOM     28  O   UNL     1      48.419   3.822  15.999  0.00  0.00    +0.000 OA
ENDBRANCH  18  28
ENDBRANCH  17  25
ENDBRANCH   1  17
TORSDOF 7
ENDMDL
MODEL 4
REMARK VINA RESULT:    -6.718      2.861      4.607
REMARK INTER + INTRA:         -10.523
REMARK INTER:                  -9.326
REMARK INTRA:                  -1.197
REMARK UNBOUND:                -1.056
REMARK  Name = 
REMARK  9 active torsions:
REMARK  status: ('A' for Active; 'I' for Inactive)
REMARK    1  A    between atoms: C_1  and  O_2
REMARK    2  A    between atoms: O_2  and  C_3
REMARK    3  A    between atoms: N_10  and  C_11
REMARK    4  A    between atoms: C_11  and  C_12
REMARK    5  A    between atoms: C_12  and  C_13
REMARK    6  A    between atoms: C_12  and  C_14
REMARK    7  A    between atoms: C_17  and  O_18
REMARK    8  A    between atoms: O_18  and  C_19
REMARK    9  A    between atoms: C_19  and  C_20
REMARK                            x       y       z     vdW  Elec       q    Type
REMARK                         _______ _______ _______ _____ _____    ______ ____
ROOT
ATOM      1  C   UNL     1      47.962   6.763  13.387  0.00  0.00    +0.000 C 
ATOM      2  C   UNL     1      48.060   6.234  14.826  0.00  0.00    +0.000 C 
ENDROOT
BRANCH   1   3
ATOM      3  C   UNL     1      46.940   5.965  12.602  0.00  0.00    +0.000 A 
ATOM      4  C   UNL     1      46.484   6.485  11.385  0.00  0.00    +0.000 A 
ATOM      5  C   UNL     1      45.587   5.773  10.595  0.00  0.00    +0.000 A 
ATOM      6  C   UNL     1      45.149   4.510  10.995  0.00  0.00    +0.000 A 
ATOM      7  C   UNL     1      45.549   4.005  12.232  0.00  0.00    +0.000 A 
ATOM      8  C   UNL     1      46.442   4.726  13.033  0.00  0.00    +0.000 A 
BRANCH   6   9
ATOM      9  O   UNL     1      44.342   3.695  10.247  0.00  0.00    +0.000 OA
BRANCH   9  10
ATOM     10  C   UNL     1      44.408   3.932   8.840  0.00  0.00    +0.000 C 
BRANCH  10  11
ATOM     11  C   UNL     1      45.506   3.098   8.238  0.00  0.00    +0.000 A 
ATOM     12  C   UNL     1      45.580   1.727   8.482  0.00  0.00    +0.000 A 
ATOM     13  C   UNL     1      46.598   1.004   7.880  0.00  0.00    +0.000 A 
ATOM     14  N   UNL     1      47.527   1.548   7.063  0.00  0.00    +0.000 NA
ATOM     15  C   UNL     1      47.443   2.877   6.850  0.00  0.00    +0.000 A 
ATOM     16  C   UNL     1      46.465   3.686   7.407  0.00  0.00    +0.000 A 
ENDBRANCH  10  11
ENDBRANCH   9  10
ENDBRANCH   6   9
ENDBRANCH   1   3
BRANCH   1  17
ATOM     17  C   UNL     1      47.705   8.278  13.389  0.00  0.00    +0.000 C 
BRANCH  17  25
ATOM     18  C   UNL     1      47.180  10.919  11.474  0.00  0.00    +0.000 A 
ATOM     19  C   UNL     1      47.396  11.940  10.539  0.00  0.00    +0.000 A 
ATOM     20  N   UNL     1      48.560  12.205   9.897  0.00  0.00    +0.000 NA
ATOM     21  C   UNL     1      49.638  11.441  10.188  0.00  0.00    +0.000 A 
ATOM     22  C   UNL     1      49.551  10.423  11.143  0.00  0.00    +0.000 A 
ATOM     23  N   UNL     1      50.531   9.570  11.581  0.00  0.00    +0.000 NA
ATOM     24  C   UNL     1      49.942   8.802  12.464  0.00  0.00    +0.000 A 
ATOM     25  N   UNL     1      48.608   9.096  12.598  0.00  0.00    +0.000 N 
ATOM     26  C   UNL     1      48.324  10.163  11.771  0.00  0.00    +0.000 A 
BRANCH  18  28
ATOM     27  C   UNL     1      44.873  10.481  11.218  0.00  0.00    +0.000 C 
ATOM     28  O   UNL     1      45.992  10.644  12.091  0.00  0.00    +0.000 OA
ENDBRANCH  18  28
ENDBRANCH  17  25
ENDBRANCH   1  17
TORSDOF 7
ENDMDL
MODEL 5
REMARK VINA RESULT:    -6.357      1.377      2.098
REMARK INTER + INTRA:         -10.015
REMARK INTER:                  -9.806
REMARK INTRA:                  -0.209
REMARK UNBOUND:                -1.056
REMARK  Name = 
REMARK  9 active torsions:
REMARK  status: ('A' for Active; 'I' for Inactive)
REMARK    1  A    between atoms: C_1  and  O_2
REMARK    2  A    between atoms: O_2  and  C_3
REMARK    3  A    between atoms: N_10  and  C_11
REMARK    4  A    between atoms: C_11  and  C_12
REMARK    5  A    between atoms: C_12  and  C_13
REMARK    6  A    between atoms: C_12  and  C_14
REMARK    7  A    between atoms: C_17  and  O_18
REMARK    8  A    between atoms: O_18  and  C_19
REMARK    9  A    between atoms: C_19  and  C_20
REMARK                            x       y       z     vdW  Elec       q    Type
REMARK                         _______ _______ _______ _____ _____    ______ ____
ROOT
ATOM      1  C   UNL     1      45.841   6.139  13.349  0.00  0.00    +0.000 C 
ATOM      2  C   UNL     1      45.980   7.621  12.965  0.00  0.00    +0.000 C 
ENDROOT
BRANCH   1   3
ATOM      3  C   UNL     1      45.398   5.325  12.149  0.00  0.00    +0.000 A 
ATOM      4  C   UNL     1      45.700   5.808  10.870  0.00  0.00    +0.000 A 
ATOM      5  C   UNL     1      45.366   5.078   9.734  0.00  0.00    +0.000 A 
ATOM      6  C   UNL     1      44.746   3.834   9.856  0.00  0.00    +0.000 A 
ATOM      7  C   UNL     1      44.388   3.367  11.121  0.00  0.00    +0.000 A 
ATOM      8  C   UNL     1      44.713   4.106  12.264  0.00  0.00    +0.000 A 
BRANCH   6   9
ATOM      9  O   UNL     1      44.461   3.002   8.806  0.00  0.00    +0.000 OA
BRANCH   9  10
ATOM     10  C   UNL     1      44.824   3.524   7.526  0.00  0.00    +0.000 C 
BRANCH  10  11
ATOM     11  C   UNL     1      46.040   2.801   7.012  0.00  0.00    +0.000 A 
ATOM     12  C   UNL     1      46.685   3.222   5.849  0.00  0.00    +0.000 A 
ATOM     13  C   UNL     1      47.816   2.535   5.438  0.00  0.00    +0.000 A 
ATOM     14  N   UNL     1      48.338   1.478   6.098  0.00  0.00    +0.000 NA
ATOM     15  C   UNL     1      47.692   1.082   7.214  0.00  0.00    +0.000 A 
ATOM     16  C   UNL     1      46.553   1.701   7.705  0.00  0.00    +0.000 A 
ENDBRANCH  10  11
ENDBRANCH   9  10
ENDBRANCH   6   9
ENDBRANCH   1   3
BRANCH   1  17
ATOM     17  C   UNL     1      47.134   5.632  14.006  0.00  0.00    +0.000 C 
BRANCH  17  25
ATOM     18  C   UNL     1      49.370   6.866  16.102  0.00  0.00    +0.000 A 
ATOM     19  C   UNL     1      50.442   7.616  16.603  0.00  0.00    +0.000 A 
ATOM     20  N   UNL     1      51.262   8.420  15.884  0.00  0.00    +0.000 NA
ATOM     21  C   UNL     1      51.062   8.505  14.548  0.00  0.00    +0.000 A 
ATOM     22  C   UNL     1      50.050   7.762  13.932  0.00  0.00    +0.000 A 
ATOM     23  N   UNL     1      49.716   7.702  12.603  0.00  0.00    +0.000 NA
ATOM     24  C   UNL     1      48.699   6.878  12.547  0.00  0.00    +0.000 A 
ATOM     25  N   UNL     1      48.333   6.421  13.789  0.00  0.00    +0.000 N 
ATOM     26  C   UNL     1      49.207   6.957  14.711  0.00  0.00    +0.000 A 
BRANCH  18  28
ATOM     27  C   UNL     1      48.217   6.585  18.145  0.00  0.00    +0.000 C 
ATOM     28  O   UNL     1      48.532   6.082  16.846  0.00  0.00    +0.000 OA
ENDBRANCH  18  28
ENDBRANCH  17  25
ENDBRANCH   1  17
TORSDOF 7
ENDMDL
MODEL 6
REMARK VINA RESULT:    -6.355      1.788      3.094
REMARK INTER + INTRA:         -10.012
REMARK INTER:                  -8.557
REMARK INTRA:                  -1.455
REMARK UNBOUND:                -1.056
REMARK  Name = 
REMARK  9 active torsions:
REMARK  status: ('A' for Active; 'I' for Inactive)
REMARK    1  A    between atoms: C_1  and  O_2
REMARK    2  A    between atoms: O_2  and  C_3
REMARK    3  A    between atoms: N_10  and  C_11
REMARK    4  A    between atoms: C_11  and  C_12
REMARK    5  A    between atoms: C_12  and  C_13
REMARK    6  A    between atoms: C_12  and  C_14
REMARK    7  A    between atoms: C_17  and  O_18
REMARK    8  A    between atoms: O_18  and  C_19
REMARK    9  A    between atoms: C_19  and  C_20
REMARK                            x       y       z     vdW  Elec       q    Type
REMARK                         _______ _______ _______ _____ _____    ______ ____
ROOT
ATOM      1  C   UNL     1      49.427   8.489  14.424  0.00  0.00    +0.000 C 
ATOM      2  C   UNL     1      50.472   9.344  13.691  0.00  0.00    +0.000 C 
ENDROOT
BRANCH   1   3
ATOM      3  C   UNL     1      48.281   8.146  13.493  0.00  0.00    +0.000 A 
ATOM      4  C   UNL     1      48.552   7.354  12.370  0.00  0.00    +0.000 A 
ATOM      5  C   UNL     1      47.532   6.963  11.509  0.00  0.00    +0.000 A 
ATOM      6  C   UNL     1      46.213   7.334  11.770  0.00  0.00    +0.000 A 
ATOM      7  C   UNL     1      45.936   8.169  12.853  0.00  0.00    +0.000 A 
ATOM      8  C   UNL     1      46.963   8.573  13.713  0.00  0.00    +0.000 A 
BRANCH   6   9
ATOM      9  O   UNL     1      45.131   6.924  11.037  0.00  0.00    +0.000 OA
BRANCH   9  10
ATOM     10  C   UNL     1      44.568   5.681  11.462  0.00  0.00    +0.000 C 
BRANCH  10  11
ATOM     11  C   UNL     1      44.778   4.640  10.397  0.00  0.00    +0.000 A 
ATOM     12  C   UNL     1      44.311   3.336  10.567  0.00  0.00    +0.000 A 
ATOM     13  C   UNL     1      44.508   2.427   9.541  0.00  0.00    +0.000 A 
ATOM     14  N   UNL     1      45.127   2.725   8.377  0.00  0.00    +0.000 NA
ATOM     15  C   UNL     1      45.580   3.988   8.238  0.00  0.00    +0.000 A 
ATOM     16  C   UNL     1      45.433   4.969   9.206  0.00  0.00    +0.000 A 
ENDBRANCH  10  11
ENDBRANCH   9  10
ENDBRANCH   6   9
ENDBRANCH   1   3
BRANCH   1  17
ATOM     17  C   UNL     1      50.094   7.266  15.073  0.00  0.00    +0.000 C 
BRANCH  17  25
ATOM     18  C   UNL     1      47.925   5.040  16.196  0.00  0.00    +0.000 A 
ATOM     19  C   UNL     1      47.075   4.340  17.063  0.00  0.00    +0.000 A 
ATOM     20  N   UNL     1      46.932   4.560  18.393  0.00  0.00    +0.000 NA
ATOM     21  C   UNL     1      47.688   5.524  18.966  0.00  0.00    +0.000 A 
ATOM     22  C   UNL     1      48.607   6.254  18.206  0.00  0.00    +0.000 A 
ATOM     23  N   UNL     1      49.466   7.242  18.612  0.00  0.00    +0.000 NA
ATOM     24  C   UNL     1      50.098   7.609  17.526  0.00  0.00    +0.000 A 
ATOM     25  N   UNL     1      49.666   6.922  16.418  0.00  0.00    +0.000 N 
ATOM     26  C   UNL     1      48.713   6.015  16.828  0.00  0.00    +0.000 A 
BRANCH  18  28
ATOM     27  C   UNL     1      46.825   4.468  14.185  0.00  0.00    +0.000 C 
ATOM     28  O   UNL     1      48.037   4.828  14.850  0.00  0.00    +0.000 OA
ENDBRANCH  18  28
ENDBRANCH  17  25
ENDBRANCH   1  17
TORSDOF 7
ENDMDL
MODEL 7
REMARK VINA RESULT:    -6.207      2.694      8.496
REMARK INTER + INTRA:          -9.804
REMARK INTER:                  -8.824
REMARK INTRA:                  -0.980
REMARK UNBOUND:                -1.056
REMARK  Name = 
REMARK  9 active torsions:
REMARK  status: ('A' for Active; 'I' for Inactive)
REMARK    1  A    between atoms: C_1  and  O_2
REMARK    2  A    between atoms: O_2  and  C_3
REMARK    3  A    between atoms: N_10  and  C_11
REMARK    4  A    between atoms: C_11  and  C_12
REMARK    5  A    between atoms: C_12  and  C_13
REMARK    6  A    between atoms: C_12  and  C_14
REMARK    7  A    between atoms: C_17  and  O_18
REMARK    8  A    between atoms: O_18  and  C_19
REMARK    9  A    between atoms: C_19  and  C_20
REMARK                            x       y       z     vdW  Elec       q    Type
REMARK                         _______ _______ _______ _____ _____    ______ ____
ROOT
ATOM      1  C   UNL     1      47.315   6.807  12.204  0.00  0.00    +0.000 C 
ATOM      2  C   UNL     1      47.762   8.277  12.170  0.00  0.00    +0.000 C 
ENDROOT
BRANCH   1   3
ATOM      3  C   UNL     1      47.554   6.216  13.580  0.00  0.00    +0.000 A 
ATOM      4  C   UNL     1      46.853   5.057  13.935  0.00  0.00    +0.000 A 
ATOM      5  C   UNL     1      47.069   4.439  15.163  0.00  0.00    +0.000 A 
ATOM      6  C   UNL     1      48.014   4.955  16.050  0.00  0.00    +0.000 A 
ATOM      7  C   UNL     1      48.677   6.141  15.734  0.00  0.00    +0.000 A 
ATOM      8  C   UNL     1      48.452   6.769  14.505  0.00  0.00    +0.000 A 
BRANCH   6   9
ATOM      9  O   UNL     1      48.364   4.370  17.238  0.00  0.00    +0.000 OA
BRANCH   9  10
ATOM     10  C   UNL     1      49.191   5.182  18.074  0.00  0.00    +0.000 C 
BRANCH  10  11
ATOM     11  C   UNL     1      50.493   4.476  18.336  0.00  0.00    +0.000 A 
ATOM     12  C   UNL     1      50.835   3.319  17.635  0.00  0.00    +0.000 A 
ATOM     13  C   UNL     1      52.059   2.726  17.898  0.00  0.00    +0.000 A 
ATOM     14  N   UNL     1      52.950   3.203  18.795  0.00  0.00    +0.000 NA
ATOM     15  C   UNL     1      52.595   4.317  19.469  0.00  0.00    +0.000 A 
ATOM     16  C   UNL     1      51.393   4.981  19.279  0.00  0.00    +0.000 A 
ENDBRANCH  10  11
ENDBRANCH   9  10
ENDBRANCH   6   9
ENDBRANCH   1   3
BRANCH   1  17
ATOM     17  C   UNL     1      45.867   6.674  11.709  0.00  0.00    +0.000 C 
BRANCH  17  25
ATOM     18  C   UNL     1      44.196   3.830  11.514  0.00  0.00    +0.000 A 
ATOM     19  C   UNL     1      43.710   2.612  11.023  0.00  0.00    +0.000 A 
ATOM     20  N   UNL     1      43.960   2.085   9.799  0.00  0.00    +0.000 NA
ATOM     21  C   UNL     1      44.728   2.797   8.942  0.00  0.00    +0.000 A 
ATOM     22  C   UNL     1      45.228   4.051   9.309  0.00  0.00    +0.000 A 
ATOM     23  N   UNL     1      45.996   4.917   8.575  0.00  0.00    +0.000 NA
ATOM     24  C   UNL     1      46.207   5.938   9.368  0.00  0.00    +0.000 A 
ATOM     25  N   UNL     1      45.634   5.761  10.603  0.00  0.00    +0.000 N 
ATOM     26  C   UNL     1      44.968   4.554  10.592  0.00  0.00    +0.000 A 
BRANCH  18  28
ATOM     27  C   UNL     1      42.805   5.163  12.881  0.00  0.00    +0.000 C 
ATOM     28  O   UNL     1      43.961   4.334  12.763  0.00  0.00    +0.000 OA
ENDBRANCH  18  28
ENDBRANCH  17  25
ENDBRANCH   1  17
TORSDOF 7
ENDMDL
MODEL 8
REMARK VINA RESULT:    -5.911      2.815      4.273
REMARK INTER + INTRA:          -9.386
REMARK INTER:                  -8.114
REMARK INTRA:                  -1.272
REMARK UNBOUND:                -1.056
REMARK  Name = 
REMARK  9 active torsions:
REMARK  status: ('A' for Active; 'I' for Inactive)
REMARK    1  A    between atoms: C_1  and  O_2
REMARK    2  A    between atoms: O_2  and  C_3
REMARK    3  A    between atoms: N_10  and  C_11
REMARK    4  A    between atoms: C_11  and  C_12
REMARK    5  A    between atoms: C_12  and  C_13
REMARK    6  A    between atoms: C_12  and  C_14
REMARK    7  A    between atoms: C_17  and  O_18
REMARK    8  A    between atoms: O_18  and  C_19
REMARK    9  A    between atoms: C_19  and  C_20
REMARK                            x       y       z     vdW  Elec       q    Type
REMARK                         _______ _______ _______ _____ _____    ______ ____
ROOT
ATOM      1  C   UNL     1      48.834   7.034  13.551  0.00  0.00    +0.000 C 
ATOM      2  C   UNL     1      48.752   7.450  15.028  0.00  0.00    +0.000 C 
ENDROOT
BRANCH   1   3
ATOM      3  C   UNL     1      47.547   6.357  13.122  0.00  0.00    +0.000 A 
ATOM      4  C   UNL     1      46.688   7.050  12.261  0.00  0.00    +0.000 A 
ATOM      5  C   UNL     1      45.519   6.459  11.792  0.00  0.00    +0.000 A 
ATOM      6  C   UNL     1      45.199   5.151  12.154  0.00  0.00    +0.000 A 
ATOM      7  C   UNL     1      46.016   4.470  13.057  0.00  0.00    +0.000 A 
ATOM      8  C   UNL     1      47.186   5.067  13.539  0.00  0.00    +0.000 A 
BRANCH   6   9
ATOM      9  O   UNL     1      44.124   4.453  11.674  0.00  0.00    +0.000 OA
BRANCH   9  10
ATOM     10  C   UNL     1      43.825   4.703  10.299  0.00  0.00    +0.000 C 
BRANCH  10  11
ATOM     11  C   UNL     1      44.690   3.834   9.427  0.00  0.00    +0.000 A 
ATOM     12  C   UNL     1      44.714   2.449   9.594  0.00  0.00    +0.000 A 
ATOM     13  C   UNL     1      45.509   1.697   8.745  0.00  0.00    +0.000 A 
ATOM     14  N   UNL     1      46.266   2.223   7.757  0.00  0.00    +0.000 NA
ATOM     15  C   UNL     1      46.236   3.565   7.621  0.00  0.00    +0.000 A 
ATOM     16  C   UNL     1      45.476   4.403   8.421  0.00  0.00    +0.000 A 
ENDBRANCH  10  11
ENDBRANCH   9  10
ENDBRANCH   6   9
ENDBRANCH   1   3
BRANCH   1  17
ATOM     17  C   UNL     1      49.231   8.233  12.677  0.00  0.00    +0.000 C 
BRANCH  17  25
ATOM     18  C   UNL     1      52.008   9.767  13.602  0.00  0.00    +0.000 A 
ATOM     19  C   UNL     1      53.318  10.263  13.576  0.00  0.00    +0.000 A 
ATOM     20  N   UNL     1      54.238  10.042  12.606  0.00  0.00    +0.000 NA
ATOM     21  C   UNL     1      53.891   9.250  11.565  0.00  0.00    +0.000 A 
ATOM     22  C   UNL     1      52.624   8.661  11.511  0.00  0.00    +0.000 A 
ATOM     23  N   UNL     1      52.106   7.821  10.559  0.00  0.00    +0.000 NA
ATOM     24  C   UNL     1      50.887   7.563  10.961  0.00  0.00    +0.000 A 
ATOM     25  N   UNL     1      50.574   8.225  12.123  0.00  0.00    +0.000 N 
ATOM     26  C   UNL     1      51.690   8.930  12.522  0.00  0.00    +0.000 A 
BRANCH  18  28
ATOM     27  C   UNL     1      50.447  11.301  14.491  0.00  0.00    +0.000 C 
ATOM     28  O   UNL     1      51.080  10.024  14.573  0.00  0.00    +0.000 OA
ENDBRANCH  18  28
ENDBRANCH  17  25
ENDBRANCH   1  17
TORSDOF 7
ENDMDL
MODEL 9
REMARK VINA RESULT:    -5.902      1.849      3.164
REMARK INTER + INTRA:          -9.373
REMARK INTER:                  -8.441
REMARK INTRA:                  -0.932
REMARK UNBOUND:                -1.056
REMARK  Name = 
REMARK  9 active torsions:
REMARK  status: ('A' for Active; 'I' for Inactive)
REMARK    1  A    between atoms: C_1  and  O_2
REMARK    2  A    between atoms: O_2  and  C_3
REMARK    3  A    between atoms: N_10  and  C_11
REMARK    4  A    between atoms: C_11  and  C_12
REMARK    5  A    between atoms: C_12  and  C_13
REMARK    6  A    between atoms: C_12  and  C_14
REMARK    7  A    between atoms: C_17  and  O_18
REMARK    8  A    between atoms: O_18  and  C_19
REMARK    9  A    between atoms: C_19  and  C_20
REMARK                            x       y       z     vdW  Elec       q    Type
REMARK                         _______ _______ _______ _____ _____    ______ ____
ROOT
ATOM      1  C   UNL     1      48.896   7.731  14.996  0.00  0.00    +0.000 C 
ATOM      2  C   UNL     1      50.198   8.128  14.283  0.00  0.00    +0.000 C 
ENDROOT
BRANCH   1   3
ATOM      3  C   UNL     1      47.832   7.362  13.981  0.00  0.00    +0.000 A 
ATOM      4  C   UNL     1      46.993   8.374  13.501  0.00  0.00    +0.000 A 
ATOM      5  C   UNL     1      46.033   8.105  12.530  0.00  0.00    +0.000 A 
ATOM      6  C   UNL     1      45.914   6.821  11.998  0.00  0.00    +0.000 A 
ATOM      7  C   UNL     1      46.704   5.791  12.508  0.00  0.00    +0.000 A 
ATOM      8  C   UNL     1      47.661   6.057  13.493  0.00  0.00    +0.000 A 
BRANCH   6   9
ATOM      9  O   UNL     1      45.067   6.479  10.977  0.00  0.00    +0.000 OA
BRANCH   9  10
ATOM     10  C   UNL     1      44.390   5.235  11.166  0.00  0.00    +0.000 C 
BRANCH  10  11
ATOM     11  C   UNL     1      44.772   4.280  10.069  0.00  0.00    +0.000 A 
ATOM     12  C   UNL     1      45.507   4.714   8.965  0.00  0.00    +0.000 A 
ATOM     13  C   UNL     1      45.854   3.784   7.998  0.00  0.00    +0.000 A 
ATOM     14  N   UNL     1      45.525   2.475   8.058  0.00  0.00    +0.000 NA
ATOM     15  C   UNL     1      44.806   2.079   9.129  0.00  0.00    +0.000 A 
ATOM     16  C   UNL     1      44.409   2.932  10.147  0.00  0.00    +0.000 A 
ENDBRANCH  10  11
ENDBRANCH   9  10
ENDBRANCH   6   9
ENDBRANCH   1   3
BRANCH   1  17
ATOM     17  C   UNL     1      49.168   6.640  16.042  0.00  0.00    +0.000 C 
BRANCH  17  25
ATOM     18  C   UNL     1      49.048   4.777  18.769  0.00  0.00    +0.000 A 
ATOM     19  C   UNL     1      48.793   4.373  20.086  0.00  0.00    +0.000 A 
ATOM     20  N   UNL     1      48.272   5.144  21.073  0.00  0.00    +0.000 NA
ATOM     21  C   UNL     1      47.987   6.436  20.791  0.00  0.00    +0.000 A 
ATOM     22  C   UNL     1      48.246   6.961  19.521  0.00  0.00    +0.000 A 
ATOM     23  N   UNL     1      48.046   8.237  19.061  0.00  0.00    +0.000 NA
ATOM     24  C   UNL     1      48.434   8.212  17.810  0.00  0.00    +0.000 A 
ATOM     25  N   UNL     1      48.851   6.962  17.423  0.00  0.00    +0.000 N 
ATOM     26  C   UNL     1      48.764   6.129  18.518  0.00  0.00    +0.000 A 
BRANCH  18  28
ATOM     27  C   UNL     1      50.958   3.779  17.802  0.00  0.00    +0.000 C 
ATOM     28  O   UNL     1      49.544   3.980  17.775  0.00  0.00    +0.000 OA
ENDBRANCH  18  28
ENDBRANCH  17  25
ENDBRANCH   1  17
TORSDOF 7
ENDMDL
