MODEL 1
REMARK VINA RESULT:    -8.238      0.000      0.000
REMARK INTER + INTRA:         -12.027
REMARK INTER:                 -11.127
REMARK INTRA:                  -0.900
REMARK UNBOUND:                -0.900
REMARK  Name = 
REMARK  7 active torsions:
REMARK  status: ('A' for Active; 'I' for Inactive)
REMARK    1  A    between atoms: C_1  and  O_2
REMARK    2  A    between atoms: O_2  and  C_3
REMARK    3  A    between atoms: C_5  and  C_6
REMARK    4  A    between atoms: C_6  and  O_7
REMARK    5  A    between atoms: O_7  and  C_8
REMARK    6  A    between atoms: C_12  and  C_13
REMARK    7  A    between atoms: C_17  and  C_18
REMARK                            x       y       z     vdW  Elec       q    Type
REMARK                         _______ _______ _______ _____ _____    ______ ____
ROOT
ATOM      1  C   UNL     1      46.610   3.854  13.557  0.00  0.00    +0.000 A 
ATOM      2  C   UNL     1      45.617   3.277  12.778  0.00  0.00    +0.000 A 
ATOM      3  C   UNL     1      44.907   4.087  11.898  0.00  0.00    +0.000 A 
ATOM      4  N   UNL     1      45.142   5.418  11.780  0.00  0.00    +0.000 NA
ATOM      5  C   UNL     1      46.104   5.979  12.557  0.00  0.00    +0.000 A 
ATOM      6  C   UNL     1      46.839   5.221  13.464  0.00  0.00    +0.000 A 
ENDROOT
BRANCH   5   7
ATOM      7  C   UNL     1      46.332   7.424  12.356  0.00  0.00    +0.000 A 
ATOM      8  C   UNL     1      47.632   7.964  12.383  0.00  0.00    +0.000 A 
ATOM      9  C   UNL     1      47.860   9.332  12.200  0.00  0.00    +0.000 A 
ATOM     10  C   UNL     1      46.786  10.195  11.994  0.00  0.00    +0.000 A 
ATOM     11  C   UNL     1      45.493   9.684  11.972  0.00  0.00    +0.000 A 
ATOM     12 CL   UNL     1      44.158  10.743  11.732  0.00  0.00    +0.000 Cl
ATOM     13  C   UNL     1      45.264   8.319  12.151  0.00  0.00    +0.000 A 
ENDBRANCH   5   7
BRANCH   1  15
ATOM     14  C   UNL     1      47.460   3.764  15.757  0.00  0.00    +0.000 C 
ATOM     15  O   UNL     1      47.393   3.185  14.458  0.00  0.00    +0.000 OA
ENDBRANCH   1  15
BRANCH   3  16
ATOM     16  C   UNL     1      43.835   3.481  11.021  0.00  0.00    +0.000 C 
BRANCH  16  17
ATOM     17  O   UNL     1      43.954   3.992   9.691  0.00  0.00    +0.000 OA
BRANCH  17  18
ATOM     18  C   UNL     1      44.945   3.465   8.914  0.00  0.00    +0.000 A 
ATOM     19  C   UNL     1      45.680   4.371   8.155  0.00  0.00    +0.000 A 
ATOM     20  N   UNL     1      46.681   4.027   7.307  0.00  0.00    +0.000 NA
ATOM     21  C   UNL     1      46.966   2.710   7.210  0.00  0.00    +0.000 A 
ATOM     22  C   UNL     1      46.301   1.728   7.927  0.00  0.00    +0.000 A 
ATOM     23  C   UNL     1      45.275   2.117   8.797  0.00  0.00    +0.000 A 
BRANCH  22  24
ATOM     24  C   UNL     1      46.649   0.352   7.767  0.00  0.00    +0.000 C 
ATOM     25  N   UNL     1      46.944  -0.762   7.647  0.00  0.00    +0.000 NA
ENDBRANCH  22  24
ENDBRANCH  17  18
ENDBRANCH  16  17
ENDBRANCH   3  16
TORSDOF 6
ENDMDL
MODEL 2
REMARK VINA RESULT:    -8.210      1.078      1.435
REMARK INTER + INTRA:         -11.989
REMARK INTER:                 -11.124
REMARK INTRA:                  -0.865
REMARK UNBOUND:                -0.900
REMARK  Name = 
REMARK  7 active torsions:
REMARK  status: ('A' for Active; 'I' for Inactive)
REMARK    1  A    between atoms: C_1  and  O_2
REMARK    2  A    between atoms: O_2  and  C_3
REMARK    3  A    between atoms: C_5  and  C_6
REMARK    4  A    between atoms: C_6  and  O_7
REMARK    5  A    between atoms: O_7  and  C_8
REMARK    6  A    between atoms: C_12  and  C_13
REMARK    7  A    between atoms: C_17  and  C_18
REMARK                            x       y       z     vdW  Elec       q    Type
REMARK                         _______ _______ _______ _____ _____    ______ ____
ROOT
ATOM      1  C   UNL     1      46.692   3.877  13.627  0.00  0.00    +0.000 A 
ATOM      2  C   UNL     1      45.691   3.293  12.863  0.00  0.00    +0.000 A 
ATOM      3  C   UNL     1      44.967   4.096  11.988  0.00  0.00    +0.000 A 
ATOM      4  N   UNL     1      45.197   5.427  11.861  0.00  0.00    +0.000 NA
ATOM      5  C   UNL     1      46.167   5.995  12.622  0.00  0.00    +0.000 A 
ATOM      6  C   UNL     1      46.915   5.245  13.524  0.00  0.00    +0.000 A 
ENDROOT
BRANCH   5   7
ATOM      7  C   UNL     1      46.387   7.440  12.411  0.00  0.00    +0.000 A 
ATOM      8  C   UNL     1      45.318   8.353  12.481  0.00  0.00    +0.000 A 
ATOM      9  C   UNL     1      45.512   9.724  12.276  0.00  0.00    +0.000 A 
ATOM     10  C   UNL     1      46.785  10.211  11.990  0.00  0.00    +0.000 A 
ATOM     11  C   UNL     1      47.854   9.325  11.909  0.00  0.00    +0.000 A 
ATOM     12 CL   UNL     1      49.429   9.915  11.543  0.00  0.00    +0.000 Cl
ATOM     13  C   UNL     1      47.662   7.958  12.115  0.00  0.00    +0.000 A 
ENDBRANCH   5   7
BRANCH   1  15
ATOM     14  C   UNL     1      47.575   3.804  15.815  0.00  0.00    +0.000 C 
ATOM     15  O   UNL     1      47.489   3.216  14.521  0.00  0.00    +0.000 OA
ENDBRANCH   1  15
BRANCH   3  16
ATOM     16  C   UNL     1      43.887   3.482  11.128  0.00  0.00    +0.000 C 
BRANCH  16  17
ATOM     17  O   UNL     1      43.971   4.005   9.801  0.00  0.00    +0.000 OA
BRANCH  17  18
ATOM     18  C   UNL     1      44.955   3.498   9.000  0.00  0.00    +0.000 A 
ATOM     19  C   UNL     1      45.677   4.423   8.253  0.00  0.00    +0.000 A 
ATOM     20  N   UNL     1      46.669   4.102   7.385  0.00  0.00    +0.000 NA
ATOM     21  C   UNL     1      46.957   2.788   7.255  0.00  0.00    +0.000 A 
ATOM     22  C   UNL     1      46.303   1.788   7.957  0.00  0.00    +0.000 A 
ATOM     23  C   UNL     1      45.287   2.154   8.848  0.00  0.00    +0.000 A 
BRANCH  22  24
ATOM     24  C   UNL     1      46.654   0.417   7.762  0.00  0.00    +0.000 C 
ATOM     25  N   UNL     1      46.949  -0.690   7.595  0.00  0.00    +0.000 NA
ENDBRANCH  22  24
ENDBRANCH  17  18
ENDBRANCH  16  17
ENDBRANCH   3  16
TORSDOF 6
ENDMDL
MODEL 3
REMARK VINA RESULT:    -7.346      2.445      4.308
REMARK INTER + INTRA:         -10.822
REMARK INTER:                 -10.265
REMARK INTRA:                  -0.557
REMARK UNBOUND:                -0.900
REMARK  Name = 
REMARK  7 active torsions:
REMARK  status: ('A' for Active; 'I' for Inactive)
REMARK    1  A    between atoms: C_1  and  O_2
REMARK    2  A    between atoms: O_2  and  C_3
REMARK    3  A    between atoms: C_5  and  C_6
REMARK    4  A    between atoms: C_6  and  O_7
REMARK    5  A    between atoms: O_7  and  C_8
REMARK    6  A    between atoms: C_12  and  C_13
REMARK    7  A    between atoms: C_17  and  C_18
REMARK                            x       y       z     vdW  Elec       q    Type
REMARK                         _______ _______ _______ _____ _____    ______ ____
ROOT
ATOM      1  C   UNL     1      45.909   6.663  12.378  0.00  0.00    +0.000 A 
ATOM      2  C   UNL     1      45.109   5.691  11.796  0.00  0.00    +0.000 A 
ATOM      3  C   UNL     1      45.112   4.412  12.341  0.00  0.00    +0.000 A 
ATOM      4  N   UNL     1      45.874   4.078  13.413  0.00  0.00    +0.000 NA
ATOM      5  C   UNL     1      46.667   5.030  13.968  0.00  0.00    +0.000 A 
ATOM      6  C   UNL     1      46.715   6.324  13.458  0.00  0.00    +0.000 A 
ENDROOT
BRANCH   5   7
ATOM      7  C   UNL     1      47.446   4.610  15.151  0.00  0.00    +0.000 A 
ATOM      8  C   UNL     1      47.506   3.257  15.535  0.00  0.00    +0.000 A 
ATOM      9  C   UNL     1      48.235   2.846  16.657  0.00  0.00    +0.000 A 
ATOM     10  C   UNL     1      48.917   3.787  17.425  0.00  0.00    +0.000 A 
ATOM     11  C   UNL     1      48.864   5.130  17.069  0.00  0.00    +0.000 A 
ATOM     12 CL   UNL     1      49.691   6.301  18.019  0.00  0.00    +0.000 Cl
ATOM     13  C   UNL     1      48.139   5.540  15.948  0.00  0.00    +0.000 A 
ENDBRANCH   5   7
BRANCH   1  15
ATOM     14  C   UNL     1      45.556   8.941  12.892  0.00  0.00    +0.000 C 
ATOM     15  O   UNL     1      46.004   7.963  11.959  0.00  0.00    +0.000 OA
ENDBRANCH   1  15
BRANCH   3  16
ATOM     16  C   UNL     1      44.233   3.339  11.741  0.00  0.00    +0.000 C 
BRANCH  16  17
ATOM     17  O   UNL     1      43.885   3.694  10.401  0.00  0.00    +0.000 OA
BRANCH  17  18
ATOM     18  C   UNL     1      44.751   3.310   9.417  0.00  0.00    +0.000 A 
ATOM     19  C   UNL     1      45.182   4.310   8.552  0.00  0.00    +0.000 A 
ATOM     20  N   UNL     1      46.017   4.109   7.502  0.00  0.00    +0.000 NA
ATOM     21  C   UNL     1      46.447   2.843   7.305  0.00  0.00    +0.000 A 
ATOM     22  C   UNL     1      46.084   1.777   8.112  0.00  0.00    +0.000 A 
ATOM     23  C   UNL     1      45.223   2.019   9.189  0.00  0.00    +0.000 A 
BRANCH  22  24
ATOM     24  C   UNL     1      46.569   0.462   7.838  0.00  0.00    +0.000 C 
ATOM     25  N   UNL     1      46.959  -0.609   7.630  0.00  0.00    +0.000 NA
ENDBRANCH  22  24
ENDBRANCH  17  18
ENDBRANCH  16  17
ENDBRANCH   3  16
TORSDOF 6
ENDMDL
MODEL 4
REMARK VINA RESULT:    -6.574      3.481      7.779
REMARK INTER + INTRA:          -9.779
REMARK INTER:                  -9.025
REMARK INTRA:                  -0.754
REMARK UNBOUND:                -0.900
REMARK  Name = 
REMARK  7 active torsions:
REMARK  status: ('A' for Active; 'I' for Inactive)
REMARK    1  A    between atoms: C_1  and  O_2
REMARK    2  A    between atoms: O_2  and  C_3
REMARK    3  A    between atoms: C_5  and  C_6
REMARK    4  A    between atoms: C_6  and  O_7
REMARK    5  A    between atoms: O_7  and  C_8
REMARK    6  A    between atoms: C_12  and  C_13
REMARK    7  A    between atoms: C_17  and  C_18
REMARK                            x       y       z     vdW  Elec       q    Type
REMARK                         _______ _______ _______ _____ _____    ______ ____
ROOT
ATOM      1  C   UNL     1      45.212   8.775  12.114  0.00  0.00    +0.000 A 
ATOM      2  C   UNL     1      46.275   8.664  12.999  0.00  0.00    +0.000 A 
ATOM      3  C   UNL     1      46.897   7.428  13.138  0.00  0.00    +0.000 A 
ATOM      4  N   UNL     1      46.498   6.329  12.451  0.00  0.00    +0.000 NA
ATOM      5  C   UNL     1      45.447   6.441  11.599  0.00  0.00    +0.000 A 
ATOM      6  C   UNL     1      44.777   7.648  11.427  0.00  0.00    +0.000 A 
ENDROOT
BRANCH   5   7
ATOM      7  C   UNL     1      45.084   5.215  10.859  0.00  0.00    +0.000 A 
ATOM      8  C   UNL     1      44.296   4.214  11.457  0.00  0.00    +0.000 A 
ATOM      9  C   UNL     1      43.952   3.045  10.769  0.00  0.00    +0.000 A 
ATOM     10  C   UNL     1      44.396   2.851   9.463  0.00  0.00    +0.000 A 
ATOM     11  C   UNL     1      45.183   3.823   8.856  0.00  0.00    +0.000 A 
ATOM     12 CL   UNL     1      45.748   3.586   7.248  0.00  0.00    +0.000 Cl
ATOM     13  C   UNL     1      45.525   4.991   9.541  0.00  0.00    +0.000 A 
ENDBRANCH   5   7
BRANCH   1  15
ATOM     14  C   UNL     1      43.749   9.926  10.662  0.00  0.00    +0.000 C 
ATOM     15  O   UNL     1      44.509   9.923  11.866  0.00  0.00    +0.000 OA
ENDBRANCH   1  15
BRANCH   3  16
ATOM     16  C   UNL     1      48.073   7.283  14.078  0.00  0.00    +0.000 C 
BRANCH  16  17
ATOM     17  O   UNL     1      48.343   5.897  14.302  0.00  0.00    +0.000 OA
BRANCH  17  18
ATOM     18  C   UNL     1      48.057   5.408  15.544  0.00  0.00    +0.000 A 
ATOM     19  C   UNL     1      47.216   4.300  15.590  0.00  0.00    +0.000 A 
ATOM     20  N   UNL     1      46.803   3.697  16.733  0.00  0.00    +0.000 NA
ATOM     21  C   UNL     1      47.252   4.227  17.893  0.00  0.00    +0.000 A 
ATOM     22  C   UNL     1      48.098   5.322  17.957  0.00  0.00    +0.000 A 
ATOM     23  C   UNL     1      48.509   5.919  16.759  0.00  0.00    +0.000 A 
BRANCH  22  24
ATOM     24  C   UNL     1      48.525   5.835  19.220  0.00  0.00    +0.000 C 
ATOM     25  N   UNL     1      48.873   6.236  20.250  0.00  0.00    +0.000 NA
ENDBRANCH  22  24
ENDBRANCH  17  18
ENDBRANCH  16  17
ENDBRANCH   3  16
TORSDOF 6
ENDMDL
MODEL 5
REMARK VINA RESULT:    -6.455      2.306      3.683
REMARK INTER + INTRA:          -9.619
REMARK INTER:                  -8.902
REMARK INTRA:                  -0.717
REMARK UNBOUND:                -0.900
REMARK  Name = 
REMARK  7 active torsions:
REMARK  status: ('A' for Active; 'I' for Inactive)
REMARK    1  A    between atoms: C_1  and  O_2
REMARK    2  A    between atoms: O_2  and  C_3
REMARK    3  A    between atoms: C_5  and  C_6
REMARK    4  A    between atoms: C_6  and  O_7
REMARK    5  A    between atoms: O_7  and  C_8
REMARK    6  A    between atoms: C_12  and  C_13
REMARK    7  A    between atoms: C_17  and  C_18
REMARK                            x       y       z     vdW  Elec       q    Type
REMARK                         _______ _______ _______ _____ _____    ______ ____
ROOT
ATOM      1  C   UNL     1      44.691   8.109  11.526  0.00  0.00    +0.000 A 
ATOM      2  C   UNL     1      44.323   6.801  11.249  0.00  0.00    +0.000 A 
ATOM      3  C   UNL     1      45.104   5.768  11.758  0.00  0.00    +0.000 A 
ATOM      4  N   UNL     1      46.214   5.993  12.504  0.00  0.00    +0.000 NA
ATOM      5  C   UNL     1      46.578   7.276  12.758  0.00  0.00    +0.000 A 
ATOM      6  C   UNL     1      45.843   8.351  12.265  0.00  0.00    +0.000 A 
ENDROOT
BRANCH   5   7
ATOM      7  C   UNL     1      47.777   7.451  13.602  0.00  0.00    +0.000 A 
ATOM      8  C   UNL     1      48.139   6.480  14.555  0.00  0.00    +0.000 A 
ATOM      9  C   UNL     1      49.269   6.637  15.366  0.00  0.00    +0.000 A 
ATOM     10  C   UNL     1      50.060   7.776  15.243  0.00  0.00    +0.000 A 
ATOM     11  C   UNL     1      49.716   8.751  14.314  0.00  0.00    +0.000 A 
ATOM     12 CL   UNL     1      50.680  10.169  14.164  0.00  0.00    +0.000 Cl
ATOM     13  C   UNL     1      48.591   8.595  13.502  0.00  0.00    +0.000 A 
ENDBRANCH   5   7
BRANCH   1  15
ATOM     14  C   UNL     1      44.725  10.453  11.243  0.00  0.00    +0.000 C 
ATOM     15  O   UNL     1      44.020   9.224  11.102  0.00  0.00    +0.000 OA
ENDBRANCH   1  15
BRANCH   3  16
ATOM     16  C   UNL     1      44.713   4.333  11.492  0.00  0.00    +0.000 C 
BRANCH  16  17
ATOM     17  O   UNL     1      44.217   4.207  10.157  0.00  0.00    +0.000 OA
BRANCH  17  18
ATOM     18  C   UNL     1      45.072   3.684   9.229  0.00  0.00    +0.000 A 
ATOM     19  C   UNL     1      45.671   4.594   8.363  0.00  0.00    +0.000 A 
ATOM     20  N   UNL     1      46.522   4.255   7.363  0.00  0.00    +0.000 NA
ATOM     21  C   UNL     1      46.792   2.938   7.219  0.00  0.00    +0.000 A 
ATOM     22  C   UNL     1      46.255   1.953   8.032  0.00  0.00    +0.000 A 
ATOM     23  C   UNL     1      45.383   2.337   9.057  0.00  0.00    +0.000 A 
BRANCH  22  24
ATOM     24  C   UNL     1      46.578   0.578   7.815  0.00  0.00    +0.000 C 
ATOM     25  N   UNL     1      46.826  -0.540   7.646  0.00  0.00    +0.000 NA
ENDBRANCH  22  24
ENDBRANCH  17  18
ENDBRANCH  16  17
ENDBRANCH   3  16
TORSDOF 6
ENDMDL
MODEL 6
REMARK VINA RESULT:    -6.404      3.706      6.558
REMARK INTER + INTRA:          -9.550
REMARK INTER:                  -8.856
REMARK INTRA:                  -0.695
REMARK UNBOUND:                -0.900
REMARK  Name = 
REMARK  7 active torsions:
REMARK  status: ('A' for Active; 'I' for Inactive)
REMARK    1  A    between atoms: C_1  and  O_2
REMARK    2  A    between atoms: O_2  and  C_3
REMARK    3  A    between atoms: C_5  and  C_6
REMARK    4  A    between atoms: C_6  and  O_7
REMARK    5  A    between atoms: O_7  and  C_8
REMARK    6  A    between atoms: C_12  and  C_13
REMARK    7  A    between atoms: C_17  and  C_18
REMARK                            x       y       z     vdW  Elec       q    Type
REMARK                         _______ _______ _______ _____ _____    ______ ____
ROOT
ATOM      1  C   UNL     1      44.778   5.417  11.670  0.00  0.00    +0.000 A 
ATOM      2  C   UNL     1      45.213   4.409  12.518  0.00  0.00    +0.000 A 
ATOM      3  C   UNL     1      46.443   4.556  13.150  0.00  0.00    +0.000 A 
ATOM      4  N   UNL     1      47.235   5.641  12.960  0.00  0.00    +0.000 NA
ATOM      5  C   UNL     1      46.811   6.616  12.116  0.00  0.00    +0.000 A 
ATOM      6  C   UNL     1      45.595   6.519  11.447  0.00  0.00    +0.000 A 
ENDROOT
BRANCH   5   7
ATOM      7  C   UNL     1      47.705   7.784  11.980  0.00  0.00    +0.000 A 
ATOM      8  C   UNL     1      47.210   9.095  12.109  0.00  0.00    +0.000 A 
ATOM      9  C   UNL     1      48.046  10.209  11.976  0.00  0.00    +0.000 A 
ATOM     10  C   UNL     1      49.400  10.034  11.702  0.00  0.00    +0.000 A 
ATOM     11  C   UNL     1      49.909   8.747  11.562  0.00  0.00    +0.000 A 
ATOM     12 CL   UNL     1      51.578   8.520  11.210  0.00  0.00    +0.000 Cl
ATOM     13  C   UNL     1      49.076   7.635  11.698  0.00  0.00    +0.000 A 
ENDBRANCH   5   7
BRANCH   1  15
ATOM     14  C   UNL     1      42.422   5.525  11.794  0.00  0.00    +0.000 C 
ATOM     15  O   UNL     1      43.591   5.416  10.988  0.00  0.00    +0.000 OA
ENDBRANCH   1  15
BRANCH   3  16
ATOM     16  C   UNL     1      46.932   3.485  14.097  0.00  0.00    +0.000 C 
BRANCH  16  17
ATOM     17  O   UNL     1      46.686   3.885  15.447  0.00  0.00    +0.000 OA
BRANCH  17  18
ATOM     18  C   UNL     1      47.731   3.783  16.320  0.00  0.00    +0.000 A 
ATOM     19  C   UNL     1      47.895   4.841  17.210  0.00  0.00    +0.000 A 
ATOM     20  N   UNL     1      48.891   4.925  18.126  0.00  0.00    +0.000 NA
ATOM     21  C   UNL     1      49.772   3.900  18.159  0.00  0.00    +0.000 A 
ATOM     22  C   UNL     1      49.695   2.799  17.322  0.00  0.00    +0.000 A 
ATOM     23  C   UNL     1      48.652   2.740  16.390  0.00  0.00    +0.000 A 
BRANCH  22  24
ATOM     24  C   UNL     1      50.668   1.756  17.406  0.00  0.00    +0.000 C 
ATOM     25  N   UNL     1      51.455   0.910  17.489  0.00  0.00    +0.000 NA
ENDBRANCH  22  24
ENDBRANCH  17  18
ENDBRANCH  16  17
ENDBRANCH   3  16
TORSDOF 6
ENDMDL
MODEL 7
REMARK VINA RESULT:    -6.342      2.347      3.393
REMARK INTER + INTRA:          -9.466
REMARK INTER:                  -8.762
REMARK INTRA:                  -0.704
REMARK UNBOUND:                -0.900
REMARK  Name = 
REMARK  7 active torsions:
REMARK  status: ('A' for Active; 'I' for Inactive)
REMARK    1  A    between atoms: C_1  and  O_2
REMARK    2  A    between atoms: O_2  and  C_3
REMARK    3  A    between atoms: C_5  and  C_6
REMARK    4  A    between atoms: C_6  and  O_7
REMARK    5  A    between atoms: O_7  and  C_8
REMARK    6  A    between atoms: C_12  and  C_13
REMARK    7  A    between atoms: C_17  and  C_18
REMARK                            x       y       z     vdW  Elec       q    Type
REMARK                         _______ _______ _______ _____ _____    ______ ____
ROOT
ATOM      1  C   UNL     1      47.624   5.904  13.903  0.00  0.00    +0.000 A 
ATOM      2  C   UNL     1      46.381   5.881  13.285  0.00  0.00    +0.000 A 
ATOM      3  C   UNL     1      46.168   6.709  12.188  0.00  0.00    +0.000 A 
ATOM      4  N   UNL     1      47.124   7.542  11.707  0.00  0.00    +0.000 NA
ATOM      5  C   UNL     1      48.332   7.572  12.326  0.00  0.00    +0.000 A 
ATOM      6  C   UNL     1      48.600   6.776  13.435  0.00  0.00    +0.000 A 
ENDROOT
BRANCH   5   7
ATOM      7  C   UNL     1      49.337   8.477  11.732  0.00  0.00    +0.000 A 
ATOM      8  C   UNL     1      50.636   8.022  11.436  0.00  0.00    +0.000 A 
ATOM      9  C   UNL     1      51.599   8.871  10.880  0.00  0.00    +0.000 A 
ATOM     10  C   UNL     1      51.283  10.201  10.612  0.00  0.00    +0.000 A 
ATOM     11  C   UNL     1      50.008  10.673  10.904  0.00  0.00    +0.000 A 
ATOM     12 CL   UNL     1      49.611  12.318  10.590  0.00  0.00    +0.000 Cl
ATOM     13  C   UNL     1      49.045   9.826  11.457  0.00  0.00    +0.000 A 
ENDBRANCH   5   7
BRANCH   1  15
ATOM     14  C   UNL     1      47.098   4.073  15.298  0.00  0.00    +0.000 C 
ATOM     15  O   UNL     1      47.982   5.144  14.983  0.00  0.00    +0.000 OA
ENDBRANCH   1  15
BRANCH   3  16
ATOM     16  C   UNL     1      44.832   6.687  11.482  0.00  0.00    +0.000 C 
BRANCH  16  17
ATOM     17  O   UNL     1      44.199   5.422  11.686  0.00  0.00    +0.000 OA
BRANCH  17  18
ATOM     18  C   UNL     1      44.385   4.477  10.719  0.00  0.00    +0.000 A 
ATOM     19  C   UNL     1      43.813   3.231  10.958  0.00  0.00    +0.000 A 
ATOM     20  N   UNL     1      43.918   2.165  10.125  0.00  0.00    +0.000 NA
ATOM     21  C   UNL     1      44.630   2.352   8.992  0.00  0.00    +0.000 A 
ATOM     22  C   UNL     1      45.233   3.553   8.655  0.00  0.00    +0.000 A 
ATOM     23  C   UNL     1      45.102   4.634   9.535  0.00  0.00    +0.000 A 
BRANCH  22  24
ATOM     24  C   UNL     1      45.980   3.675   7.444  0.00  0.00    +0.000 C 
ATOM     25  N   UNL     1      46.577   3.786   6.458  0.00  0.00    +0.000 NA
ENDBRANCH  22  24
ENDBRANCH  17  18
ENDBRANCH  16  17
ENDBRANCH   3  16
TORSDOF 6
ENDMDL
MODEL 8
REMARK VINA RESULT:    -6.295      3.283      4.913
REMARK INTER + INTRA:          -9.403
REMARK INTER:                  -8.657
REMARK INTRA:                  -0.746
REMARK UNBOUND:                -0.900
REMARK  Name = 
REMARK  7 active torsions:
REMARK  status: ('A' for Active; 'I' for Inactive)
REMARK    1  A    between atoms: C_1  and  O_2
REMARK    2  A    between atoms: O_2  and  C_3
REMARK    3  A    between atoms: C_5  and  C_6
REMARK    4  A    between atoms: C_6  and  O_7
REMARK    5  A    between atoms: O_7  and  C_8
REMARK    6  A    between atoms: C_12  and  C_13
REMARK    7  A    between atoms: C_17  and  C_18
REMARK                            x       y       z     vdW  Elec       q    Type
REMARK                         _______ _______ _______ _____ _____    ______ ____
ROOT
ATOM      1  C   UNL     1      48.362   7.512  12.180  0.00  0.00    +0.000 A 
ATOM      2  C   UNL     1      47.144   6.989  11.771  0.00  0.00    +0.000 A 
ATOM      3  C   UNL     1      46.430   6.193  12.661  0.00  0.00    +0.000 A 
ATOM      4  N   UNL     1      46.884   5.903  13.906  0.00  0.00    +0.000 NA
ATOM      5  C   UNL     1      48.085   6.405  14.293  0.00  0.00    +0.000 A 
ATOM      6  C   UNL     1      48.850   7.197  13.443  0.00  0.00    +0.000 A 
ENDROOT
BRANCH   5   7
ATOM      7  C   UNL     1      48.505   6.077  15.671  0.00  0.00    +0.000 A 
ATOM      8  C   UNL     1      49.315   6.960  16.410  0.00  0.00    +0.000 A 
ATOM      9  C   UNL     1      49.725   6.658  17.714  0.00  0.00    +0.000 A 
ATOM     10  C   UNL     1      49.337   5.458  18.305  0.00  0.00    +0.000 A 
ATOM     11  C   UNL     1      48.544   4.568  17.589  0.00  0.00    +0.000 A 
ATOM     12 CL   UNL     1      48.071   3.077  18.305  0.00  0.00    +0.000 Cl
ATOM     13  C   UNL     1      48.132   4.869  16.290  0.00  0.00    +0.000 A 
ENDBRANCH   5   7
BRANCH   1  15
ATOM     14  C   UNL     1      50.553   7.974  11.430  0.00  0.00    +0.000 C 
ATOM     15  O   UNL     1      49.170   8.315  11.421  0.00  0.00    +0.000 OA
ENDBRANCH   1  15
BRANCH   3  16
ATOM     16  C   UNL     1      45.089   5.628  12.251  0.00  0.00    +0.000 C 
BRANCH  16  17
ATOM     17  O   UNL     1      44.886   5.836  10.852  0.00  0.00    +0.000 OA
BRANCH  17  18
ATOM     18  C   UNL     1      44.881   4.725  10.058  0.00  0.00    +0.000 A 
ATOM     19  C   UNL     1      44.170   3.630  10.538  0.00  0.00    +0.000 A 
ATOM     20  N   UNL     1      44.078   2.436   9.900  0.00  0.00    +0.000 NA
ATOM     21  C   UNL     1      44.730   2.328   8.721  0.00  0.00    +0.000 A 
ATOM     22  C   UNL     1      45.459   3.360   8.153  0.00  0.00    +0.000 A 
ATOM     23  C   UNL     1      45.531   4.581   8.834  0.00  0.00    +0.000 A 
BRANCH  22  24
ATOM     24  C   UNL     1      46.131   3.171   6.906  0.00  0.00    +0.000 C 
ATOM     25  N   UNL     1      46.689   3.013   5.904  0.00  0.00    +0.000 NA
ENDBRANCH  22  24
ENDBRANCH  17  18
ENDBRANCH  16  17
ENDBRANCH   3  16
TORSDOF 6
ENDMDL
MODEL 9
REMARK VINA RESULT:    -6.055      3.167      4.993
REMARK INTER + INTRA:          -9.079
REMARK INTER:                  -8.364
REMARK INTRA:                  -0.715
REMARK UNBOUND:                -0.900
REMARK  Name = 
REMARK  7 active torsions:
REMARK  status: ('A' for Active; 'I' for Inactive)
REMARK    1  A    between atoms: C_1  and  O_2
REMARK    2  A    between atoms: O_2  and  C_3
REMARK    3  A    between atoms: C_5  and  C_6
REMARK    4  A    between atoms: C_6  and  O_7
REMARK    5  A    between atoms: O_7  and  C_8
REMARK    6  A    between atoms: C_12  and  C_13
REMARK    7  A    between atoms: C_17  and  C_18
REMARK                            x       y       z     vdW  Elec       q    Type
REMARK                         _______ _______ _______ _____ _____    ______ ____
ROOT
ATOM      1  C   UNL     1      45.796   9.164  12.484  0.00  0.00    +0.000 A 
ATOM      2  C   UNL     1      45.454   7.884  12.895  0.00  0.00    +0.000 A 
ATOM      3  C   UNL     1      46.456   6.922  12.981  0.00  0.00    +0.000 A 
ATOM      4  N   UNL     1      47.749   7.187  12.669  0.00  0.00    +0.000 NA
ATOM      5  C   UNL     1      48.075   8.437  12.252  0.00  0.00    +0.000 A 
ATOM      6  C   UNL     1      47.114   9.437  12.134  0.00  0.00    +0.000 A 
ENDROOT
BRANCH   5   7
ATOM      7  C   UNL     1      49.504   8.667  11.959  0.00  0.00    +0.000 A 
ATOM      8  C   UNL     1      50.155   9.835  12.399  0.00  0.00    +0.000 A 
ATOM      9  C   UNL     1      51.507  10.067  12.122  0.00  0.00    +0.000 A 
ATOM     10  C   UNL     1      52.237   9.134  11.392  0.00  0.00    +0.000 A 
ATOM     11  C   UNL     1      51.612   7.976  10.941  0.00  0.00    +0.000 A 
ATOM     12 CL   UNL     1      52.503   6.823  10.026  0.00  0.00    +0.000 Cl
ATOM     13  C   UNL     1      50.264   7.742  11.218  0.00  0.00    +0.000 A 
ENDBRANCH   5   7
BRANCH   1  15
ATOM     14  C   UNL     1      45.268  11.177  11.370  0.00  0.00    +0.000 C 
ATOM     15  O   UNL     1      44.925  10.211  12.359  0.00  0.00    +0.000 OA
ENDBRANCH   1  15
BRANCH   3  16
ATOM     16  C   UNL     1      46.116   5.526  13.449  0.00  0.00    +0.000 C 
BRANCH  16  17
ATOM     17  O   UNL     1      44.776   5.204  13.071  0.00  0.00    +0.000 OA
BRANCH  17  18
ATOM     18  C   UNL     1      44.617   4.469  11.931  0.00  0.00    +0.000 A 
ATOM     19  C   UNL     1      43.764   3.373  12.020  0.00  0.00    +0.000 A 
ATOM     20  N   UNL     1      43.508   2.516  11.000  0.00  0.00    +0.000 NA
ATOM     21  C   UNL     1      44.134   2.765   9.829  0.00  0.00    +0.000 A 
ATOM     22  C   UNL     1      44.996   3.832   9.634  0.00  0.00    +0.000 A 
ATOM     23  C   UNL     1      45.236   4.700  10.705  0.00  0.00    +0.000 A 
BRANCH  22  24
ATOM     24  C   UNL     1      45.632   4.029   8.369  0.00  0.00    +0.000 C 
ATOM     25  N   UNL     1      46.135   4.181   7.337  0.00  0.00    +0.000 NA
ENDBRANCH  22  24
ENDBRANCH  17  18
ENDBRANCH  16  17
ENDBRANCH   3  16
TORSDOF 6
ENDMDL
