MODEL 1
REMARK VINA RESULT:    -8.234      0.000      0.000
REMARK INTER + INTRA:         -12.788
REMARK INTER:                 -11.603
REMARK INTRA:                  -1.185
REMARK UNBOUND:                -1.185
REMARK  Name = 
REMARK  8 active torsions:
REMARK  status: ('A' for Active; 'I' for Inactive)
REMARK    1  A    between atoms: C_1  and  N_2
REMARK    2  A    between atoms: N_2  and  C_3
REMARK    3  A    between atoms: C_3  and  C_4
REMARK    4  A    between atoms: C_3  and  C_26
REMARK    5  A    between atoms: C_4  and  C_5
REMARK    6  A    between atoms: C_9  and  C_10
REMARK    7  A    between atoms: C_10  and  N_11
REMARK    8  A    between atoms: C_12  and  C_14
REMARK                            x       y       z     vdW  Elec       q    Type
REMARK                         _______ _______ _______ _____ _____    ______ ____
ROOT
ATOM      1  C   UNL     1      44.703   5.582  10.547  0.00  0.00    +0.000 C 
ATOM      2  C   UNL     1      43.779   6.367  11.337  0.00  0.00    +0.000 C 
ATOM      3  C   UNL     1      43.986   7.737  11.713  0.00  0.00    +0.000 C 
ATOM      4  C   UNL     1      45.174   8.252  12.030  0.00  0.00    +0.000 C 
ATOM      5  C   UNL     1      46.451   7.474  12.131  0.00  0.00    +0.000 C 
ATOM      6  N   UNL     1      46.803   6.349  11.598  0.00  0.00    +0.000 NA
ATOM      7  C   UNL     1      46.032   5.620  10.739  0.00  0.00    +0.000 C 
ENDROOT
BRANCH   1   8
ATOM      8  C   UNL     1      44.086   4.661   9.506  0.00  0.00    +0.000 C 
BRANCH   8   9
ATOM      9  C   UNL     1      44.375   3.140   9.683  0.00  0.00    +0.000 C 
BRANCH   9  10
ATOM     10  C   UNL     1      45.425   2.679   8.661  0.00  0.00    +0.000 A 
ATOM     11  C   UNL     1      45.930   3.563   7.702  0.00  0.00    +0.000 A 
ATOM     12  C   UNL     1      46.836   3.099   6.755  0.00  0.00    +0.000 A 
ATOM     13  C   UNL     1      47.217   1.765   6.779  0.00  0.00    +0.000 A 
ATOM     14  C   UNL     1      46.676   0.950   7.760  0.00  0.00    +0.000 A 
ATOM     15  N   UNL     1      45.797   1.373   8.698  0.00  0.00    +0.000 NA
ENDBRANCH   9  10
BRANCH   9  17
ATOM     16  C   UNL     1      43.582   2.576  11.954  0.00  0.00    +0.000 C 
ATOM     17  N   UNL     1      44.719   2.690  11.057  0.00  0.00    +0.000 NA
ATOM     18  H   UNL     1      45.156   1.772  10.968  0.00  0.00    +0.000 HD
ENDBRANCH   9  17
ENDBRANCH   8   9
ENDBRANCH   1   8
BRANCH   5  19
ATOM     19  C   UNL     1      47.539   8.163  12.966  0.00  0.00    +0.000 C 
BRANCH  19  20
ATOM     20  N   UNL     1      47.690   7.467  14.228  0.00  0.00    +0.000 N 
ATOM     21  C   UNL     1      48.921   7.179  14.762  0.00  0.00    +0.000 C 
ATOM     22  O   UNL     1      49.961   7.526  14.209  0.00  0.00    +0.000 OA
ATOM     23  H   UNL     1      46.869   6.964  14.562  0.00  0.00    +0.000 HD
BRANCH  21  24
ATOM     24  C   UNL     1      48.945   6.491  16.058  0.00  0.00    +0.000 A 
ATOM     25  C   UNL     1      49.653   7.055  17.110  0.00  0.00    +0.000 A 
ATOM     26  S   UNL     1      49.561   6.160  18.557  0.00  0.00    +0.000 S 
ATOM     27  C   UNL     1      48.614   4.957  17.814  0.00  0.00    +0.000 A 
ATOM     28  N   UNL     1      48.210   3.859  18.509  0.00  0.00    +0.000 NA
ATOM     29  C   UNL     1      47.537   3.007  17.810  0.00  0.00    +0.000 A 
ATOM     30  N   UNL     1      47.222   3.158  16.485  0.00  0.00    +0.000 N 
ATOM     31  C   UNL     1      47.556   4.278  15.761  0.00  0.00    +0.000 A 
ATOM     32  O   UNL     1      47.176   4.430  14.606  0.00  0.00    +0.000 OA
ATOM     33  C   UNL     1      48.349   5.250  16.488  0.00  0.00    +0.000 A 
ATOM     34  H   UNL     1      46.675   2.462  16.000  0.00  0.00    +0.000 HD
ENDBRANCH  21  24
ENDBRANCH  19  20
ENDBRANCH   5  19
TORSDOF 7
ENDMDL
MODEL 2
REMARK VINA RESULT:    -8.001      2.656      3.284
REMARK INTER + INTRA:         -12.460
REMARK INTER:                 -11.270
REMARK INTRA:                  -1.190
REMARK UNBOUND:                -1.185
REMARK  Name = 
REMARK  8 active torsions:
REMARK  status: ('A' for Active; 'I' for Inactive)
REMARK    1  A    between atoms: C_1  and  N_2
REMARK    2  A    between atoms: N_2  and  C_3
REMARK    3  A    between atoms: C_3  and  C_4
REMARK    4  A    between atoms: C_3  and  C_26
REMARK    5  A    between atoms: C_4  and  C_5
REMARK    6  A    between atoms: C_9  and  C_10
REMARK    7  A    between atoms: C_10  and  N_11
REMARK    8  A    between atoms: C_12  and  C_14
REMARK                            x       y       z     vdW  Elec       q    Type
REMARK                         _______ _______ _______ _____ _____    ______ ____
ROOT
ATOM      1  C   UNL     1      46.351   5.089  13.051  0.00  0.00    +0.000 C 
ATOM      2  C   UNL     1      46.399   6.347  12.337  0.00  0.00    +0.000 C 
ATOM      3  C   UNL     1      47.579   7.146  12.170  0.00  0.00    +0.000 C 
ATOM      4  C   UNL     1      48.522   7.287  13.103  0.00  0.00    +0.000 C 
ATOM      5  C   UNL     1      48.458   6.715  14.486  0.00  0.00    +0.000 C 
ATOM      6  N   UNL     1      47.789   5.714  14.960  0.00  0.00    +0.000 NA
ATOM      7  C   UNL     1      46.984   4.896  14.220  0.00  0.00    +0.000 C 
ENDROOT
BRANCH   1   8
ATOM      8  C   UNL     1      45.497   3.994  12.431  0.00  0.00    +0.000 C 
BRANCH   8   9
ATOM      9  C   UNL     1      44.613   4.420  11.220  0.00  0.00    +0.000 C 
BRANCH   9  10
ATOM     10  C   UNL     1      45.145   3.784   9.928  0.00  0.00    +0.000 A 
ATOM     11  C   UNL     1      45.594   4.580   8.869  0.00  0.00    +0.000 A 
ATOM     12  C   UNL     1      46.015   3.975   7.690  0.00  0.00    +0.000 A 
ATOM     13  C   UNL     1      45.976   2.592   7.587  0.00  0.00    +0.000 A 
ATOM     14  C   UNL     1      45.521   1.871   8.678  0.00  0.00    +0.000 A 
ATOM     15  N   UNL     1      45.109   2.429   9.840  0.00  0.00    +0.000 NA
ENDBRANCH   9  10
BRANCH   9  17
ATOM     16  C   UNL     1      42.412   5.392  11.783  0.00  0.00    +0.000 C 
ATOM     17  N   UNL     1      43.149   4.211  11.368  0.00  0.00    +0.000 NA
ATOM     18  H   UNL     1      42.799   3.915  10.455  0.00  0.00    +0.000 HD
ENDBRANCH   9  17
ENDBRANCH   8   9
ENDBRANCH   1   8
BRANCH   5  19
ATOM     19  C   UNL     1      49.388   7.406  15.493  0.00  0.00    +0.000 C 
BRANCH  19  20
ATOM     20  N   UNL     1      50.334   6.440  16.016  0.00  0.00    +0.000 N 
ATOM     21  C   UNL     1      50.286   5.999  17.314  0.00  0.00    +0.000 C 
ATOM     22  O   UNL     1      49.415   6.379  18.093  0.00  0.00    +0.000 OA
ATOM     23  H   UNL     1      51.187   6.313  15.474  0.00  0.00    +0.000 HD
BRANCH  21  24
ATOM     24  C   UNL     1      51.284   5.003  17.721  0.00  0.00    +0.000 A 
ATOM     25  C   UNL     1      52.471   5.432  18.298  0.00  0.00    +0.000 A 
ATOM     26  S   UNL     1      53.513   4.161  18.747  0.00  0.00    +0.000 S 
ATOM     27  C   UNL     1      52.438   2.992  18.138  0.00  0.00    +0.000 A 
ATOM     28  N   UNL     1      52.748   1.669  18.179  0.00  0.00    +0.000 NA
ATOM     29  C   UNL     1      51.863   0.898  17.641  0.00  0.00    +0.000 A 
ATOM     30  N   UNL     1      50.691   1.330  17.076  0.00  0.00    +0.000 N 
ATOM     31  C   UNL     1      50.308   2.650  17.068  0.00  0.00    +0.000 A 
ATOM     32  O   UNL     1      49.211   2.995  16.644  0.00  0.00    +0.000 OA
ATOM     33  C   UNL     1      51.286   3.564  17.624  0.00  0.00    +0.000 A 
ATOM     34  H   UNL     1      50.030   0.673  16.689  0.00  0.00    +0.000 HD
ENDBRANCH  21  24
ENDBRANCH  19  20
ENDBRANCH   5  19
TORSDOF 7
ENDMDL
MODEL 3
REMARK VINA RESULT:    -7.834      2.128      2.960
REMARK INTER + INTRA:         -12.225
REMARK INTER:                 -11.186
REMARK INTRA:                  -1.039
REMARK UNBOUND:                -1.185
REMARK  Name = 
REMARK  8 active torsions:
REMARK  status: ('A' for Active; 'I' for Inactive)
REMARK    1  A    between atoms: C_1  and  N_2
REMARK    2  A    between atoms: N_2  and  C_3
REMARK    3  A    between atoms: C_3  and  C_4
REMARK    4  A    between atoms: C_3  and  C_26
REMARK    5  A    between atoms: C_4  and  C_5
REMARK    6  A    between atoms: C_9  and  C_10
REMARK    7  A    between atoms: C_10  and  N_11
REMARK    8  A    between atoms: C_12  and  C_14
REMARK                            x       y       z     vdW  Elec       q    Type
REMARK                         _______ _______ _______ _____ _____    ______ ____
ROOT
ATOM      1  C   UNL     1      46.167   5.663  12.626  0.00  0.00    +0.000 C 
ATOM      2  C   UNL     1      45.994   7.081  12.398  0.00  0.00    +0.000 C 
ATOM      3  C   UNL     1      47.059   7.995  12.098  0.00  0.00    +0.000 C 
ATOM      4  C   UNL     1      48.281   7.917  12.627  0.00  0.00    +0.000 C 
ATOM      5  C   UNL     1      48.705   6.931  13.672  0.00  0.00    +0.000 C 
ATOM      6  N   UNL     1      48.221   5.775  13.994  0.00  0.00    +0.000 NA
ATOM      7  C   UNL     1      47.176   5.166  13.362  0.00  0.00    +0.000 C 
ENDROOT
BRANCH   1   8
ATOM      8  C   UNL     1      45.110   4.750  12.025  0.00  0.00    +0.000 C 
BRANCH   8   9
ATOM      9  C   UNL     1      44.591   5.144  10.610  0.00  0.00    +0.000 C 
BRANCH   9  10
ATOM     10  C   UNL     1      45.099   4.144   9.562  0.00  0.00    +0.000 A 
ATOM     11  C   UNL     1      44.942   2.767   9.749  0.00  0.00    +0.000 A 
ATOM     12  C   UNL     1      45.465   1.886   8.809  0.00  0.00    +0.000 A 
ATOM     13  C   UNL     1      46.137   2.392   7.706  0.00  0.00    +0.000 A 
ATOM     14  C   UNL     1      46.251   3.768   7.588  0.00  0.00    +0.000 A 
ATOM     15  N   UNL     1      45.749   4.651   8.482  0.00  0.00    +0.000 NA
ENDBRANCH   9  10
BRANCH   9  17
ATOM     16  C   UNL     1      42.420   5.453  11.750  0.00  0.00    +0.000 C 
ATOM     17  N   UNL     1      43.126   5.367  10.484  0.00  0.00    +0.000 NA
ATOM     18  H   UNL     1      43.003   6.249   9.983  0.00  0.00    +0.000 HD
ENDBRANCH   9  17
ENDBRANCH   8   9
ENDBRANCH   1   8
BRANCH   5  19
ATOM     19  C   UNL     1      49.960   7.346  14.452  0.00  0.00    +0.000 C 
BRANCH  19  20
ATOM     20  N   UNL     1      49.638   7.452  15.861  0.00  0.00    +0.000 N 
ATOM     21  C   UNL     1      50.234   6.659  16.808  0.00  0.00    +0.000 C 
ATOM     22  O   UNL     1      51.098   5.837  16.512  0.00  0.00    +0.000 OA
ATOM     23  H   UNL     1      48.769   7.934  16.085  0.00  0.00    +0.000 HD
BRANCH  21  24
ATOM     24  C   UNL     1      49.843   6.874  18.206  0.00  0.00    +0.000 A 
ATOM     25  C   UNL     1      49.976   8.142  18.758  0.00  0.00    +0.000 A 
ATOM     26  S   UNL     1      49.450   8.243  20.376  0.00  0.00    +0.000 S 
ATOM     27  C   UNL     1      49.075   6.584  20.414  0.00  0.00    +0.000 A 
ATOM     28  N   UNL     1      48.599   6.002  21.547  0.00  0.00    +0.000 NA
ATOM     29  C   UNL     1      48.401   4.730  21.449  0.00  0.00    +0.000 A 
ATOM     30  N   UNL     1      48.623   3.990  20.316  0.00  0.00    +0.000 N 
ATOM     31  C   UNL     1      49.044   4.547  19.131  0.00  0.00    +0.000 A 
ATOM     32  O   UNL     1      49.140   3.878  18.109  0.00  0.00    +0.000 OA
ATOM     33  C   UNL     1      49.321   5.968  19.199  0.00  0.00    +0.000 A 
ATOM     34  H   UNL     1      48.428   3.000  20.298  0.00  0.00    +0.000 HD
ENDBRANCH  21  24
ENDBRANCH  19  20
ENDBRANCH   5  19
TORSDOF 7
ENDMDL
MODEL 4
REMARK VINA RESULT:    -7.707      2.536      3.554
REMARK INTER + INTRA:         -12.045
REMARK INTER:                 -10.866
REMARK INTRA:                  -1.180
REMARK UNBOUND:                -1.185
REMARK  Name = 
REMARK  8 active torsions:
REMARK  status: ('A' for Active; 'I' for Inactive)
REMARK    1  A    between atoms: C_1  and  N_2
REMARK    2  A    between atoms: N_2  and  C_3
REMARK    3  A    between atoms: C_3  and  C_4
REMARK    4  A    between atoms: C_3  and  C_26
REMARK    5  A    between atoms: C_4  and  C_5
REMARK    6  A    between atoms: C_9  and  C_10
REMARK    7  A    between atoms: C_10  and  N_11
REMARK    8  A    between atoms: C_12  and  C_14
REMARK                            x       y       z     vdW  Elec       q    Type
REMARK                         _______ _______ _______ _____ _____    ______ ____
ROOT
ATOM      1  C   UNL     1      46.261   5.472  12.514  0.00  0.00    +0.000 C 
ATOM      2  C   UNL     1      46.488   6.756  11.886  0.00  0.00    +0.000 C 
ATOM      3  C   UNL     1      47.773   7.376  11.736  0.00  0.00    +0.000 C 
ATOM      4  C   UNL     1      48.747   7.304  12.644  0.00  0.00    +0.000 C 
ATOM      5  C   UNL     1      48.625   6.650  13.987  0.00  0.00    +0.000 C 
ATOM      6  N   UNL     1      47.820   5.731  14.413  0.00  0.00    +0.000 NA
ATOM      7  C   UNL     1      46.883   5.101  13.646  0.00  0.00    +0.000 C 
ENDROOT
BRANCH   1   8
ATOM      8  C   UNL     1      45.235   4.568  11.849  0.00  0.00    +0.000 C 
BRANCH   8   9
ATOM      9  C   UNL     1      44.731   5.022  10.446  0.00  0.00    +0.000 C 
BRANCH   9  10
ATOM     10  C   UNL     1      45.272   4.082   9.359  0.00  0.00    +0.000 A 
ATOM     11  C   UNL     1      45.153   2.694   9.488  0.00  0.00    +0.000 A 
ATOM     12  C   UNL     1      45.704   1.867   8.515  0.00  0.00    +0.000 A 
ATOM     13  C   UNL     1      46.364   2.439   7.437  0.00  0.00    +0.000 A 
ATOM     14  C   UNL     1      46.440   3.821   7.376  0.00  0.00    +0.000 A 
ATOM     15  N   UNL     1      45.910   4.651   8.304  0.00  0.00    +0.000 NA
ENDBRANCH   9  10
BRANCH   9  17
ATOM     16  C   UNL     1      42.595   5.617  11.536  0.00  0.00    +0.000 C 
ATOM     17  N   UNL     1      43.266   5.229  10.308  0.00  0.00    +0.000 NA
ATOM     18  H   UNL     1      43.135   5.971   9.618  0.00  0.00    +0.000 HD
ENDBRANCH   9  17
ENDBRANCH   8   9
ENDBRANCH   1   8
BRANCH   5  19
ATOM     19  C   UNL     1      49.671   7.117  15.008  0.00  0.00    +0.000 C 
BRANCH  19  20
ATOM     20  N   UNL     1      49.192   6.842  16.348  0.00  0.00    +0.000 N 
ATOM     21  C   UNL     1      49.931   6.127  17.256  0.00  0.00    +0.000 C 
ATOM     22  O   UNL     1      51.054   5.707  16.988  0.00  0.00    +0.000 OA
ATOM     23  H   UNL     1      48.191   6.959  16.497  0.00  0.00    +0.000 HD
BRANCH  21  24
ATOM     24  C   UNL     1      49.349   5.933  18.589  0.00  0.00    +0.000 A 
ATOM     25  C   UNL     1      49.374   4.668  19.161  0.00  0.00    +0.000 A 
ATOM     26  S   UNL     1      48.694   4.608  20.722  0.00  0.00    +0.000 S 
ATOM     27  C   UNL     1      48.292   6.260  20.669  0.00  0.00    +0.000 A 
ATOM     28  N   UNL     1      47.641   6.854  21.705  0.00  0.00    +0.000 NA
ATOM     29  C   UNL     1      47.358   8.099  21.511  0.00  0.00    +0.000 A 
ATOM     30  N   UNL     1      47.680   8.807  20.382  0.00  0.00    +0.000 N 
ATOM     31  C   UNL     1      48.392   8.265  19.338  0.00  0.00    +0.000 A 
ATOM     32  O   UNL     1      48.749   8.947  18.386  0.00  0.00    +0.000 OA
ATOM     33  C   UNL     1      48.698   6.855  19.487  0.00  0.00    +0.000 A 
ATOM     34  H   UNL     1      47.448   9.785  20.301  0.00  0.00    +0.000 HD
ENDBRANCH  21  24
ENDBRANCH  19  20
ENDBRANCH   5  19
TORSDOF 7
ENDMDL
MODEL 5
REMARK VINA RESULT:    -7.020      2.878      8.182
REMARK INTER + INTRA:         -11.077
REMARK INTER:                  -9.901
REMARK INTRA:                  -1.176
REMARK UNBOUND:                -1.185
REMARK  Name = 
REMARK  8 active torsions:
REMARK  status: ('A' for Active; 'I' for Inactive)
REMARK    1  A    between atoms: C_1  and  N_2
REMARK    2  A    between atoms: N_2  and  C_3
REMARK    3  A    between atoms: C_3  and  C_4
REMARK    4  A    between atoms: C_3  and  C_26
REMARK    5  A    between atoms: C_4  and  C_5
REMARK    6  A    between atoms: C_9  and  C_10
REMARK    7  A    between atoms: C_10  and  N_11
REMARK    8  A    between atoms: C_12  and  C_14
REMARK                            x       y       z     vdW  Elec       q    Type
REMARK                         _______ _______ _______ _____ _____    ______ ____
ROOT
ATOM      1  C   UNL     1      49.194   6.984  16.469  0.00  0.00    +0.000 C 
ATOM      2  C   UNL     1      49.421   8.403  16.298  0.00  0.00    +0.000 C 
ATOM      3  C   UNL     1      48.564   9.283  15.558  0.00  0.00    +0.000 C 
ATOM      4  C   UNL     1      47.929   8.938  14.436  0.00  0.00    +0.000 C 
ATOM      5  C   UNL     1      48.079   7.624  13.732  0.00  0.00    +0.000 C 
ATOM      6  N   UNL     1      48.461   6.467  14.167  0.00  0.00    +0.000 NA
ATOM      7  C   UNL     1      48.783   6.192  15.465  0.00  0.00    +0.000 C 
ENDROOT
BRANCH   1   8
ATOM      8  C   UNL     1      49.495   6.414  17.847  0.00  0.00    +0.000 C 
BRANCH   8   9
ATOM      9  C   UNL     1      48.920   4.995  18.139  0.00  0.00    +0.000 C 
BRANCH   9  10
ATOM     10  C   UNL     1      50.002   3.929  17.913  0.00  0.00    +0.000 A 
ATOM     11  C   UNL     1      49.684   2.695  17.337  0.00  0.00    +0.000 A 
ATOM     12  C   UNL     1      50.675   1.729  17.199  0.00  0.00    +0.000 A 
ATOM     13  C   UNL     1      51.960   2.010  17.641  0.00  0.00    +0.000 A 
ATOM     14  C   UNL     1      52.200   3.255  18.198  0.00  0.00    +0.000 A 
ATOM     15  N   UNL     1      51.259   4.217  18.341  0.00  0.00    +0.000 NA
ENDBRANCH   9  10
BRANCH   9  17
ATOM     16  C   UNL     1      47.650   6.025  19.991  0.00  0.00    +0.000 C 
ATOM     17  N   UNL     1      48.245   4.815  19.451  0.00  0.00    +0.000 NA
ATOM     18  H   UNL     1      47.506   4.124  19.312  0.00  0.00    +0.000 HD
ENDBRANCH   9  17
ENDBRANCH   8   9
ENDBRANCH   1   8
BRANCH   5  19
ATOM     19  C   UNL     1      47.654   7.652  12.258  0.00  0.00    +0.000 C 
BRANCH  19  20
ATOM     20  N   UNL     1      46.923   6.440  11.945  0.00  0.00    +0.000 N 
ATOM     21  C   UNL     1      45.552   6.387  11.968  0.00  0.00    +0.000 C 
ATOM     22  O   UNL     1      44.872   7.377  12.227  0.00  0.00    +0.000 OA
ATOM     23  H   UNL     1      47.459   5.575  11.976  0.00  0.00    +0.000 HD
BRANCH  21  24
ATOM     24  C   UNL     1      44.924   5.110  11.610  0.00  0.00    +0.000 A 
ATOM     25  C   UNL     1      44.193   4.423  12.570  0.00  0.00    +0.000 A 
ATOM     26  S   UNL     1      43.498   2.977  11.997  0.00  0.00    +0.000 S 
ATOM     27  C   UNL     1      44.194   3.190  10.459  0.00  0.00    +0.000 A 
ATOM     28  N   UNL     1      44.014   2.265   9.478  0.00  0.00    +0.000 NA
ATOM     29  C   UNL     1      44.635   2.530   8.377  0.00  0.00    +0.000 A 
ATOM     30  N   UNL     1      45.409   3.642   8.165  0.00  0.00    +0.000 N 
ATOM     31  C   UNL     1      45.567   4.632   9.106  0.00  0.00    +0.000 A 
ATOM     32  O   UNL     1      46.184   5.660   8.854  0.00  0.00    +0.000 OA
ATOM     33  C   UNL     1      44.923   4.363  10.377  0.00  0.00    +0.000 A 
ATOM     34  H   UNL     1      45.853   3.801   7.273  0.00  0.00    +0.000 HD
ENDBRANCH  21  24
ENDBRANCH  19  20
ENDBRANCH   5  19
TORSDOF 7
ENDMDL
MODEL 6
REMARK VINA RESULT:    -6.761      2.650      8.046
REMARK INTER + INTRA:         -10.713
REMARK INTER:                  -9.387
REMARK INTRA:                  -1.327
REMARK UNBOUND:                -1.185
REMARK  Name = 
REMARK  8 active torsions:
REMARK  status: ('A' for Active; 'I' for Inactive)
REMARK    1  A    between atoms: C_1  and  N_2
REMARK    2  A    between atoms: N_2  and  C_3
REMARK    3  A    between atoms: C_3  and  C_4
REMARK    4  A    between atoms: C_3  and  C_26
REMARK    5  A    between atoms: C_4  and  C_5
REMARK    6  A    between atoms: C_9  and  C_10
REMARK    7  A    between atoms: C_10  and  N_11
REMARK    8  A    between atoms: C_12  and  C_14
REMARK                            x       y       z     vdW  Elec       q    Type
REMARK                         _______ _______ _______ _____ _____    ______ ____
ROOT
ATOM      1  C   UNL     1      49.910   7.605  16.199  0.00  0.00    +0.000 C 
ATOM      2  C   UNL     1      49.488   8.989  16.164  0.00  0.00    +0.000 C 
ATOM      3  C   UNL     1      48.283   9.460  15.543  0.00  0.00    +0.000 C 
ATOM      4  C   UNL     1      47.780   8.958  14.414  0.00  0.00    +0.000 C 
ATOM      5  C   UNL     1      48.432   7.900  13.577  0.00  0.00    +0.000 C 
ATOM      6  N   UNL     1      49.306   6.996  13.882  0.00  0.00    +0.000 NA
ATOM      7  C   UNL     1      49.809   6.792  15.134  0.00  0.00    +0.000 C 
ENDROOT
BRANCH   1   8
ATOM      8  C   UNL     1      50.526   7.121  17.502  0.00  0.00    +0.000 C 
BRANCH   8   9
ATOM      9  C   UNL     1      49.544   6.472  18.523  0.00  0.00    +0.000 C 
BRANCH   9  10
ATOM     10  C   UNL     1      49.011   5.142  17.972  0.00  0.00    +0.000 A 
ATOM     11  C   UNL     1      47.656   4.985  17.662  0.00  0.00    +0.000 A 
ATOM     12  C   UNL     1      47.194   3.750  17.221  0.00  0.00    +0.000 A 
ATOM     13  C   UNL     1      48.088   2.697  17.101  0.00  0.00    +0.000 A 
ATOM     14  C   UNL     1      49.415   2.928  17.423  0.00  0.00    +0.000 A 
ATOM     15  N   UNL     1      49.896   4.119  17.851  0.00  0.00    +0.000 NA
ENDBRANCH   9  10
BRANCH   9  17
ATOM     16  C   UNL     1      49.053   5.843  20.861  0.00  0.00    +0.000 C 
ATOM     17  N   UNL     1      50.044   6.324  19.915  0.00  0.00    +0.000 NA
ATOM     18  H   UNL     1      50.814   5.654  19.883  0.00  0.00    +0.000 HD
ENDBRANCH   9  17
ENDBRANCH   8   9
ENDBRANCH   1   8
BRANCH   5  19
ATOM     19  C   UNL     1      47.930   7.851  12.127  0.00  0.00    +0.000 C 
BRANCH  19  20
ATOM     20  N   UNL     1      47.140   6.652  11.931  0.00  0.00    +0.000 N 
ATOM     21  C   UNL     1      45.772   6.655  12.028  0.00  0.00    +0.000 C 
ATOM     22  O   UNL     1      45.142   7.685  12.257  0.00  0.00    +0.000 OA
ATOM     23  H   UNL     1      47.645   5.770  11.992  0.00  0.00    +0.000 HD
BRANCH  21  24
ATOM     24  C   UNL     1      45.080   5.383  11.786  0.00  0.00    +0.000 A 
ATOM     25  C   UNL     1      44.365   4.794  12.821  0.00  0.00    +0.000 A 
ATOM     26  S   UNL     1      43.590   3.342  12.379  0.00  0.00    +0.000 S 
ATOM     27  C   UNL     1      44.226   3.420  10.803  0.00  0.00    +0.000 A 
ATOM     28  N   UNL     1      43.969   2.439   9.897  0.00  0.00    +0.000 NA
ATOM     29  C   UNL     1      44.551   2.602   8.756  0.00  0.00    +0.000 A 
ATOM     30  N   UNL     1      45.356   3.664   8.436  0.00  0.00    +0.000 N 
ATOM     31  C   UNL     1      45.594   4.709   9.297  0.00  0.00    +0.000 A 
ATOM     32  O   UNL     1      46.238   5.691   8.949  0.00  0.00    +0.000 OA
ATOM     33  C   UNL     1      44.996   4.554  10.609  0.00  0.00    +0.000 A 
ATOM     34  H   UNL     1      45.767   3.743   7.517  0.00  0.00    +0.000 HD
ENDBRANCH  21  24
ENDBRANCH  19  20
ENDBRANCH   5  19
TORSDOF 7
ENDMDL
MODEL 7
REMARK VINA RESULT:    -6.691      3.685      9.691
REMARK INTER + INTRA:         -10.613
REMARK INTER:                  -9.257
REMARK INTRA:                  -1.356
REMARK UNBOUND:                -1.185
REMARK  Name = 
REMARK  8 active torsions:
REMARK  status: ('A' for Active; 'I' for Inactive)
REMARK    1  A    between atoms: C_1  and  N_2
REMARK    2  A    between atoms: N_2  and  C_3
REMARK    3  A    between atoms: C_3  and  C_4
REMARK    4  A    between atoms: C_3  and  C_26
REMARK    5  A    between atoms: C_4  and  C_5
REMARK    6  A    between atoms: C_9  and  C_10
REMARK    7  A    between atoms: C_10  and  N_11
REMARK    8  A    between atoms: C_12  and  C_14
REMARK                            x       y       z     vdW  Elec       q    Type
REMARK                         _______ _______ _______ _____ _____    ______ ____
ROOT
ATOM      1  C   UNL     1      47.797   5.786  20.418  0.00  0.00    +0.000 C 
ATOM      2  C   UNL     1      48.832   4.788  20.581  0.00  0.00    +0.000 C 
ATOM      3  C   UNL     1      49.680   4.311  19.526  0.00  0.00    +0.000 C 
ATOM      4  C   UNL     1      49.275   4.129  18.268  0.00  0.00    +0.000 C 
ATOM      5  C   UNL     1      47.869   4.305  17.782  0.00  0.00    +0.000 C 
ATOM      6  N   UNL     1      46.886   4.997  18.261  0.00  0.00    +0.000 NA
ATOM      7  C   UNL     1      46.963   5.797  19.364  0.00  0.00    +0.000 C 
ENDROOT
BRANCH   1   8
ATOM      8  C   UNL     1      47.663   6.808  21.536  0.00  0.00    +0.000 C 
BRANCH   8   9
ATOM      9  C   UNL     1      48.218   8.232  21.229  0.00  0.00    +0.000 C 
BRANCH   9  10
ATOM     10  C   UNL     1      49.581   8.129  20.529  0.00  0.00    +0.000 A 
ATOM     11  C   UNL     1      49.694   8.327  19.149  0.00  0.00    +0.000 A 
ATOM     12  C   UNL     1      50.932   8.170  18.535  0.00  0.00    +0.000 A 
ATOM     13  C   UNL     1      52.029   7.815  19.306  0.00  0.00    +0.000 A 
ATOM     14  C   UNL     1      51.840   7.639  20.667  0.00  0.00    +0.000 A 
ATOM     15  N   UNL     1      50.650   7.789  21.294  0.00  0.00    +0.000 NA
ENDBRANCH   9  10
BRANCH   9  17
ATOM     16  C   UNL     1      47.266  10.504  21.042  0.00  0.00    +0.000 C 
ATOM     17  N   UNL     1      47.303   9.154  20.507  0.00  0.00    +0.000 NA
ATOM     18  H   UNL     1      47.628   9.197  19.540  0.00  0.00    +0.000 HD
ENDBRANCH   9  17
ENDBRANCH   8   9
ENDBRANCH   1   8
BRANCH   5  19
ATOM     19  C   UNL     1      47.567   3.581  16.463  0.00  0.00    +0.000 C 
BRANCH  19  20
ATOM     20  N   UNL     1      46.936   4.505  15.541  0.00  0.00    +0.000 N 
ATOM     21  C   UNL     1      46.776   4.214  14.210  0.00  0.00    +0.000 C 
ATOM     22  O   UNL     1      47.134   3.138  13.736  0.00  0.00    +0.000 OA
ATOM     23  H   UNL     1      46.867   5.471  15.854  0.00  0.00    +0.000 HD
BRANCH  21  24
ATOM     24  C   UNL     1      46.101   5.219  13.380  0.00  0.00    +0.000 A 
ATOM     25  C   UNL     1      46.748   6.417  13.110  0.00  0.00    +0.000 A 
ATOM     26  S   UNL     1      45.854   7.467  12.108  0.00  0.00    +0.000 S 
ATOM     27  C   UNL     1      44.548   6.380  12.043  0.00  0.00    +0.000 A 
ATOM     28  N   UNL     1      43.414   6.690  11.358  0.00  0.00    +0.000 NA
ATOM     29  C   UNL     1      42.487   5.795  11.430  0.00  0.00    +0.000 A 
ATOM     30  N   UNL     1      42.595   4.612  12.115  0.00  0.00    +0.000 N 
ATOM     31  C   UNL     1      43.743   4.229  12.769  0.00  0.00    +0.000 A 
ATOM     32  O   UNL     1      43.844   3.125  13.289  0.00  0.00    +0.000 OA
ATOM     33  C   UNL     1      44.802   5.219  12.753  0.00  0.00    +0.000 A 
ATOM     34  H   UNL     1      41.839   3.944  12.116  0.00  0.00    +0.000 HD
ENDBRANCH  21  24
ENDBRANCH  19  20
ENDBRANCH   5  19
TORSDOF 7
ENDMDL
MODEL 8
REMARK VINA RESULT:    -6.669      3.739      9.954
REMARK INTER + INTRA:         -10.583
REMARK INTER:                  -9.617
REMARK INTRA:                  -0.966
REMARK UNBOUND:                -1.185
REMARK  Name = 
REMARK  8 active torsions:
REMARK  status: ('A' for Active; 'I' for Inactive)
REMARK    1  A    between atoms: C_1  and  N_2
REMARK    2  A    between atoms: N_2  and  C_3
REMARK    3  A    between atoms: C_3  and  C_4
REMARK    4  A    between atoms: C_3  and  C_26
REMARK    5  A    between atoms: C_4  and  C_5
REMARK    6  A    between atoms: C_9  and  C_10
REMARK    7  A    between atoms: C_10  and  N_11
REMARK    8  A    between atoms: C_12  and  C_14
REMARK                            x       y       z     vdW  Elec       q    Type
REMARK                         _______ _______ _______ _____ _____    ______ ____
ROOT
ATOM      1  C   UNL     1      51.614   4.627  17.431  0.00  0.00    +0.000 C 
ATOM      2  C   UNL     1      51.627   3.254  17.887  0.00  0.00    +0.000 C 
ATOM      3  C   UNL     1      50.850   2.194  17.311  0.00  0.00    +0.000 C 
ATOM      4  C   UNL     1      49.611   2.348  16.840  0.00  0.00    +0.000 C 
ATOM      5  C   UNL     1      48.811   3.613  16.920  0.00  0.00    +0.000 C 
ATOM      6  N   UNL     1      49.183   4.845  17.047  0.00  0.00    +0.000 NA
ATOM      7  C   UNL     1      50.481   5.265  17.092  0.00  0.00    +0.000 C 
ENDROOT
BRANCH   1   8
ATOM      8  C   UNL     1      52.957   5.340  17.398  0.00  0.00    +0.000 C 
BRANCH   8   9
ATOM      9  C   UNL     1      53.230   6.336  18.565  0.00  0.00    +0.000 C 
BRANCH   9  10
ATOM     10  C   UNL     1      52.820   5.707  19.905  0.00  0.00    +0.000 A 
ATOM     11  C   UNL     1      53.651   4.782  20.547  0.00  0.00    +0.000 A 
ATOM     12  C   UNL     1      53.225   4.187  21.729  0.00  0.00    +0.000 A 
ATOM     13  C   UNL     1      51.981   4.520  22.245  0.00  0.00    +0.000 A 
ATOM     14  C   UNL     1      51.215   5.446  21.554  0.00  0.00    +0.000 A 
ATOM     15  N   UNL     1      51.604   6.045  20.405  0.00  0.00    +0.000 NA
ENDBRANCH   9  10
BRANCH   9  17
ATOM     16  C   UNL     1      54.739   8.201  17.973  0.00  0.00    +0.000 C 
ATOM     17  N   UNL     1      54.598   6.913  18.631  0.00  0.00    +0.000 NA
ATOM     18  H   UNL     1      54.824   7.028  19.620  0.00  0.00    +0.000 HD
ENDBRANCH   9  17
ENDBRANCH   8   9
ENDBRANCH   1   8
BRANCH   5  19
ATOM     19  C   UNL     1      47.298   3.406  16.769  0.00  0.00    +0.000 C 
BRANCH  19  20
ATOM     20  N   UNL     1      46.776   4.353  15.803  0.00  0.00    +0.000 N 
ATOM     21  C   UNL     1      46.804   4.110  14.454  0.00  0.00    +0.000 C 
ATOM     22  O   UNL     1      47.247   3.059  13.996  0.00  0.00    +0.000 OA
ATOM     23  H   UNL     1      46.644   5.305  16.139  0.00  0.00    +0.000 HD
BRANCH  21  24
ATOM     24  C   UNL     1      46.226   5.134  13.576  0.00  0.00    +0.000 A 
ATOM     25  C   UNL     1      46.935   6.304  13.343  0.00  0.00    +0.000 A 
ATOM     26  S   UNL     1      46.151   7.381  12.279  0.00  0.00    +0.000 S 
ATOM     27  C   UNL     1      44.810   6.344  12.133  0.00  0.00    +0.000 A 
ATOM     28  N   UNL     1      43.737   6.693  11.373  0.00  0.00    +0.000 NA
ATOM     29  C   UNL     1      42.773   5.834  11.389  0.00  0.00    +0.000 A 
ATOM     30  N   UNL     1      42.789   4.654  12.086  0.00  0.00    +0.000 N 
ATOM     31  C   UNL     1      43.876   4.232  12.816  0.00  0.00    +0.000 A 
ATOM     32  O   UNL     1      43.900   3.129  13.348  0.00  0.00    +0.000 OA
ATOM     33  C   UNL     1      44.972   5.180  12.865  0.00  0.00    +0.000 A 
ATOM     34  H   UNL     1      42.009   4.015  12.040  0.00  0.00    +0.000 HD
ENDBRANCH  21  24
ENDBRANCH  19  20
ENDBRANCH   5  19
TORSDOF 7
ENDMDL
MODEL 9
REMARK VINA RESULT:    -6.624      3.448      6.408
REMARK INTER + INTRA:         -10.519
REMARK INTER:                  -9.358
REMARK INTRA:                  -1.161
REMARK UNBOUND:                -1.185
REMARK  Name = 
REMARK  8 active torsions:
REMARK  status: ('A' for Active; 'I' for Inactive)
REMARK    1  A    between atoms: C_1  and  N_2
REMARK    2  A    between atoms: N_2  and  C_3
REMARK    3  A    between atoms: C_3  and  C_4
REMARK    4  A    between atoms: C_3  and  C_26
REMARK    5  A    between atoms: C_4  and  C_5
REMARK    6  A    between atoms: C_9  and  C_10
REMARK    7  A    between atoms: C_10  and  N_11
REMARK    8  A    between atoms: C_12  and  C_14
REMARK                            x       y       z     vdW  Elec       q    Type
REMARK                         _______ _______ _______ _____ _____    ______ ____
ROOT
ATOM      1  C   UNL     1      44.918   9.415  11.444  0.00  0.00    +0.000 C 
ATOM      2  C   UNL     1      46.138   9.653  12.184  0.00  0.00    +0.000 C 
ATOM      3  C   UNL     1      47.239   8.736  12.261  0.00  0.00    +0.000 C 
ATOM      4  C   UNL     1      47.103   7.410  12.315  0.00  0.00    +0.000 C 
ATOM      5  C   UNL     1      45.796   6.681  12.394  0.00  0.00    +0.000 C 
ATOM      6  N   UNL     1      44.603   7.039  12.044  0.00  0.00    +0.000 NA
ATOM      7  C   UNL     1      44.290   8.227  11.449  0.00  0.00    +0.000 C 
ENDROOT
BRANCH   1   8
ATOM      8  C   UNL     1      44.344  10.603  10.689  0.00  0.00    +0.000 C 
BRANCH   8   9
ATOM      9  C   UNL     1      42.969  10.371   9.993  0.00  0.00    +0.000 C 
BRANCH   9  10
ATOM     10  C   UNL     1      41.824  10.747  10.944  0.00  0.00    +0.000 A 
ATOM     11  C   UNL     1      40.545  10.204  10.777  0.00  0.00    +0.000 A 
ATOM     12  C   UNL     1      39.516  10.609  11.619  0.00  0.00    +0.000 A 
ATOM     13  C   UNL     1      39.779  11.548  12.606  0.00  0.00    +0.000 A 
ATOM     14  C   UNL     1      41.070  12.039  12.712  0.00  0.00    +0.000 A 
ATOM     15  N   UNL     1      42.093  11.661  11.912  0.00  0.00    +0.000 NA
ENDBRANCH   9  10
BRANCH   9  17
ATOM     16  C   UNL     1      43.901  10.781   7.741  0.00  0.00    +0.000 C 
ATOM     17  N   UNL     1      42.794  10.997   8.656  0.00  0.00    +0.000 NA
ATOM     18  H   UNL     1      41.951  10.591   8.246  0.00  0.00    +0.000 HD
ENDBRANCH   9  17
ENDBRANCH   8   9
ENDBRANCH   1   8
BRANCH   5  19
ATOM     19  C   UNL     1      45.910   5.248  12.931  0.00  0.00    +0.000 C 
BRANCH  19  20
ATOM     20  N   UNL     1      46.493   5.277  14.258  0.00  0.00    +0.000 N 
ATOM     21  C   UNL     1      47.136   4.191  14.797  0.00  0.00    +0.000 C 
ATOM     22  O   UNL     1      47.278   3.146  14.167  0.00  0.00    +0.000 OA
ATOM     23  H   UNL     1      46.172   6.024  14.870  0.00  0.00    +0.000 HD
BRANCH  21  24
ATOM     24  C   UNL     1      47.705   4.349  16.140  0.00  0.00    +0.000 A 
ATOM     25  C   UNL     1      47.306   3.483  17.150  0.00  0.00    +0.000 A 
ATOM     26  S   UNL     1      48.077   3.768  18.642  0.00  0.00    +0.000 S 
ATOM     27  C   UNL     1      48.933   5.093  18.007  0.00  0.00    +0.000 A 
ATOM     28  N   UNL     1      49.771   5.824  18.791  0.00  0.00    +0.000 NA
ATOM     29  C   UNL     1      50.320   6.827  18.193  0.00  0.00    +0.000 A 
ATOM     30  N   UNL     1      50.118   7.158  16.878  0.00  0.00    +0.000 N 
ATOM     31  C   UNL     1      49.329   6.413  16.032  0.00  0.00    +0.000 A 
ATOM     32  O   UNL     1      49.245   6.677  14.839  0.00  0.00    +0.000 OA
ATOM     33  C   UNL     1      48.656   5.297  16.666  0.00  0.00    +0.000 A 
ATOM     34  H   UNL     1      50.594   7.946  16.463  0.00  0.00    +0.000 HD
ENDBRANCH  21  24
ENDBRANCH  19  20
ENDBRANCH   5  19
TORSDOF 7
ENDMDL
