MODEL 1
REMARK VINA RESULT:    -8.858      0.000      0.000
REMARK INTER + INTRA:         -13.370
REMARK INTER:                 -12.483
REMARK INTRA:                  -0.887
REMARK UNBOUND:                -0.887
REMARK  Name = 
REMARK  7 active torsions:
REMARK  status: ('A' for Active; 'I' for Inactive)
REMARK    1  A    between atoms: C_2  and  C_4
REMARK    2  A    between atoms: C_7  and  O_8
REMARK    3  A    between atoms: O_8  and  C_9
REMARK    4  A    between atoms: C_9  and  C_10
REMARK    5  A    between atoms: C_10  and  C_13
REMARK    6  A    between atoms: C_18  and  N_19
REMARK    7  A    between atoms: N_19  and  C_20
REMARK                            x       y       z     vdW  Elec       q    Type
REMARK                         _______ _______ _______ _____ _____    ______ ____
ROOT
ATOM      1  C   UNL     1      43.470   5.489  11.994  0.00  0.00    +0.000 C 
ATOM      2  F   UNL     1      43.161   6.678  11.393  0.00  0.00    +0.000 F 
ATOM      3  F   UNL     1      42.523   5.315  12.962  0.00  0.00    +0.000 F 
ENDROOT
BRANCH   1   4
ATOM      4  C   UNL     1      44.875   5.511  12.589  0.00  0.00    +0.000 A 
ATOM      5  C   UNL     1      45.839   6.397  12.085  0.00  0.00    +0.000 A 
ATOM      6  C   UNL     1      47.121   6.400  12.621  0.00  0.00    +0.000 A 
ATOM      7  F   UNL     1      48.032   7.257  12.141  0.00  0.00    +0.000 F 
ATOM      8  C   UNL     1      47.475   5.535  13.652  0.00  0.00    +0.000 A 
ATOM      9  C   UNL     1      46.532   4.656  14.193  0.00  0.00    +0.000 A 
ATOM     10  C   UNL     1      45.235   4.651  13.655  0.00  0.00    +0.000 A 
BRANCH   9  11
ATOM     11  N   UNL     1      46.937   3.847  15.281  0.00  0.00    +0.000 N 
ATOM     12  H   UNL     1      46.138   3.328  15.646  0.00  0.00    +0.000 HD
BRANCH  11  13
ATOM     13  C   UNL     1      47.905   4.167  16.297  0.00  0.00    +0.000 C 
ATOM     14  C   UNL     1      48.613   2.953  16.922  0.00  0.00    +0.000 C 
ATOM     15  O   UNL     1      48.269   3.399  18.263  0.00  0.00    +0.000 OA
ATOM     16  C   UNL     1      47.290   4.313  17.704  0.00  0.00    +0.000 C 
ENDBRANCH  11  13
ENDBRANCH   9  11
ENDBRANCH   1   4
BRANCH   1  17
ATOM     17  C   UNL     1      43.318   4.367  10.950  0.00  0.00    +0.000 C 
BRANCH  17  18
ATOM     18  O   UNL     1      43.595   4.821   9.602  0.00  0.00    +0.000 OA
BRANCH  18  22
ATOM     19  C   UNL     1      46.411   2.519   7.728  0.00  0.00    +0.000 A 
ATOM     20  C   UNL     1      45.598   1.911   8.669  0.00  0.00    +0.000 A 
ATOM     21  C   UNL     1      44.639   2.692   9.318  0.00  0.00    +0.000 A 
ATOM     22  C   UNL     1      44.551   4.035   8.985  0.00  0.00    +0.000 A 
ATOM     23  N   UNL     1      45.374   4.592   8.064  0.00  0.00    +0.000 NA
ATOM     24  N   UNL     1      46.312   3.835   7.429  0.00  0.00    +0.000 NA
BRANCH  19  26
ATOM     25  N   UNL     1      48.513   2.462   6.502  0.00  0.00    +0.000 N 
ATOM     26  C   UNL     1      47.441   1.754   6.967  0.00  0.00    +0.000 C 
ATOM     27  O   UNL     1      47.336   0.546   6.776  0.00  0.00    +0.000 OA
ATOM     28  H   UNL     1      49.250   1.967   6.021  0.00  0.00    +0.000 HD
ATOM     29  H   UNL     1      48.647   3.436   6.752  0.00  0.00    +0.000 HD
ENDBRANCH  19  26
ENDBRANCH  18  22
ENDBRANCH  17  18
ENDBRANCH   1  17
TORSDOF 7
ENDMDL
MODEL 2
REMARK VINA RESULT:    -8.234      2.997      4.427
REMARK INTER + INTRA:         -12.490
REMARK INTER:                 -11.808
REMARK INTRA:                  -0.682
REMARK UNBOUND:                -0.887
REMARK  Name = 
REMARK  7 active torsions:
REMARK  status: ('A' for Active; 'I' for Inactive)
REMARK    1  A    between atoms: C_2  and  C_4
REMARK    2  A    between atoms: C_7  and  O_8
REMARK    3  A    between atoms: O_8  and  C_9
REMARK    4  A    between atoms: C_9  and  C_10
REMARK    5  A    between atoms: C_10  and  C_13
REMARK    6  A    between atoms: C_18  and  N_19
REMARK    7  A    between atoms: N_19  and  C_20
REMARK                            x       y       z     vdW  Elec       q    Type
REMARK                         _______ _______ _______ _____ _____    ______ ____
ROOT
ATOM      1  C   UNL     1      44.400   3.970  12.373  0.00  0.00    +0.000 C 
ATOM      2  F   UNL     1      43.477   3.890  13.380  0.00  0.00    +0.000 F 
ATOM      3  F   UNL     1      45.194   2.870  12.521  0.00  0.00    +0.000 F 
ENDROOT
BRANCH   1   4
ATOM      4  C   UNL     1      45.212   5.258  12.459  0.00  0.00    +0.000 A 
ATOM      5  C   UNL     1      46.612   5.205  12.524  0.00  0.00    +0.000 A 
ATOM      6  C   UNL     1      47.344   6.382  12.619  0.00  0.00    +0.000 A 
ATOM      7  F   UNL     1      48.682   6.322  12.669  0.00  0.00    +0.000 F 
ATOM      8  C   UNL     1      46.716   7.623  12.654  0.00  0.00    +0.000 A 
ATOM      9  C   UNL     1      45.323   7.713  12.567  0.00  0.00    +0.000 A 
ATOM     10  C   UNL     1      44.580   6.525  12.471  0.00  0.00    +0.000 A 
BRANCH   9  11
ATOM     11  N   UNL     1      44.750   9.006  12.546  0.00  0.00    +0.000 N 
ATOM     12  H   UNL     1      43.880   9.010  13.081  0.00  0.00    +0.000 HD
BRANCH  11  13
ATOM     13  C   UNL     1      44.734   9.940  11.451  0.00  0.00    +0.000 C 
ATOM     14  C   UNL     1      45.531  11.233  11.692  0.00  0.00    +0.000 C 
ATOM     15  O   UNL     1      44.381  12.049  11.332  0.00  0.00    +0.000 OA
ATOM     16  C   UNL     1      43.519  10.890  11.473  0.00  0.00    +0.000 C 
ENDBRANCH  11  13
ENDBRANCH   9  11
ENDBRANCH   1   4
BRANCH   1  17
ATOM     17  C   UNL     1      43.655   3.863  11.029  0.00  0.00    +0.000 C 
BRANCH  17  18
ATOM     18  O   UNL     1      44.182   4.767  10.028  0.00  0.00    +0.000 OA
BRANCH  18  22
ATOM     19  C   UNL     1      46.717   2.894   7.419  0.00  0.00    +0.000 A 
ATOM     20  C   UNL     1      45.931   2.103   8.239  0.00  0.00    +0.000 A 
ATOM     21  C   UNL     1      45.068   2.736   9.138  0.00  0.00    +0.000 A 
ATOM     22  C   UNL     1      45.043   4.121   9.159  0.00  0.00    +0.000 A 
ATOM     23  N   UNL     1      45.838   4.858   8.345  0.00  0.00    +0.000 NA
ATOM     24  N   UNL     1      46.683   4.245   7.468  0.00  0.00    +0.000 NA
BRANCH  19  26
ATOM     25  N   UNL     1      47.827   3.008   5.256  0.00  0.00    +0.000 N 
ATOM     26  C   UNL     1      47.644   2.302   6.412  0.00  0.00    +0.000 C 
ATOM     27  O   UNL     1      48.221   1.237   6.613  0.00  0.00    +0.000 OA
ATOM     28  H   UNL     1      48.482   2.657   4.571  0.00  0.00    +0.000 HD
ATOM     29  H   UNL     1      47.431   3.934   5.139  0.00  0.00    +0.000 HD
ENDBRANCH  19  26
ENDBRANCH  18  22
ENDBRANCH  17  18
ENDBRANCH   1  17
TORSDOF 7
ENDMDL
MODEL 3
REMARK VINA RESULT:    -8.181      2.661      3.714
REMARK INTER + INTRA:         -12.415
REMARK INTER:                 -11.528
REMARK INTRA:                  -0.888
REMARK UNBOUND:                -0.887
REMARK  Name = 
REMARK  7 active torsions:
REMARK  status: ('A' for Active; 'I' for Inactive)
REMARK    1  A    between atoms: C_2  and  C_4
REMARK    2  A    between atoms: C_7  and  O_8
REMARK    3  A    between atoms: O_8  and  C_9
REMARK    4  A    between atoms: C_9  and  C_10
REMARK    5  A    between atoms: C_10  and  C_13
REMARK    6  A    between atoms: C_18  and  N_19
REMARK    7  A    between atoms: N_19  and  C_20
REMARK                            x       y       z     vdW  Elec       q    Type
REMARK                         _______ _______ _______ _____ _____    ______ ____
ROOT
ATOM      1  C   UNL     1      43.544   5.520  11.964  0.00  0.00    +0.000 C 
ATOM      2  F   UNL     1      43.167   6.644  11.281  0.00  0.00    +0.000 F 
ATOM      3  F   UNL     1      42.631   5.383  12.970  0.00  0.00    +0.000 F 
ENDROOT
BRANCH   1   4
ATOM      4  C   UNL     1      44.962   5.649  12.513  0.00  0.00    +0.000 A 
ATOM      5  C   UNL     1      45.469   4.677  13.388  0.00  0.00    +0.000 A 
ATOM      6  C   UNL     1      46.755   4.810  13.897  0.00  0.00    +0.000 A 
ATOM      7  F   UNL     1      47.235   3.871  14.723  0.00  0.00    +0.000 F 
ATOM      8  C   UNL     1      47.557   5.895  13.559  0.00  0.00    +0.000 A 
ATOM      9  C   UNL     1      47.091   6.870  12.670  0.00  0.00    +0.000 A 
ATOM     10  C   UNL     1      45.792   6.739  12.154  0.00  0.00    +0.000 A 
BRANCH   9  11
ATOM     11  N   UNL     1      47.977   7.915  12.319  0.00  0.00    +0.000 N 
ATOM     12  H   UNL     1      48.925   7.550  12.222  0.00  0.00    +0.000 HD
BRANCH  11  13
ATOM     13  C   UNL     1      47.950   9.279  12.779  0.00  0.00    +0.000 C 
ATOM     14  C   UNL     1      46.960  10.192  12.038  0.00  0.00    +0.000 C 
ATOM     15  O   UNL     1      48.007  11.165  11.767  0.00  0.00    +0.000 OA
ATOM     16  C   UNL     1      49.011  10.174  12.106  0.00  0.00    +0.000 C 
ENDBRANCH  11  13
ENDBRANCH   9  11
ENDBRANCH   1   4
BRANCH   1  17
ATOM     17  C   UNL     1      43.416   4.314  11.014  0.00  0.00    +0.000 C 
BRANCH  17  18
ATOM     18  O   UNL     1      43.547   4.688   9.621  0.00  0.00    +0.000 OA
BRANCH  18  22
ATOM     19  C   UNL     1      46.567   2.665   7.742  0.00  0.00    +0.000 A 
ATOM     20  C   UNL     1      45.690   1.937   8.527  0.00  0.00    +0.000 A 
ATOM     21  C   UNL     1      44.661   2.622   9.178  0.00  0.00    +0.000 A 
ATOM     22  C   UNL     1      44.571   3.993   9.001  0.00  0.00    +0.000 A 
ATOM     23  N   UNL     1      45.458   4.669   8.231  0.00  0.00    +0.000 NA
ATOM     24  N   UNL     1      46.465   4.005   7.596  0.00  0.00    +0.000 NA
BRANCH  19  26
ATOM     25  N   UNL     1      48.522   2.834   6.303  0.00  0.00    +0.000 N 
ATOM     26  C   UNL     1      47.677   2.010   6.990  0.00  0.00    +0.000 C 
ATOM     27  O   UNL     1      47.829   0.792   6.996  0.00  0.00    +0.000 OA
ATOM     28  H   UNL     1      49.310   2.427   5.818  0.00  0.00    +0.000 HD
ATOM     29  H   UNL     1      48.456   3.842   6.386  0.00  0.00    +0.000 HD
ENDBRANCH  19  26
ENDBRANCH  18  22
ENDBRANCH  17  18
ENDBRANCH   1  17
TORSDOF 7
ENDMDL
MODEL 4
REMARK VINA RESULT:    -7.623      2.602      7.919
REMARK INTER + INTRA:         -11.630
REMARK INTER:                 -11.170
REMARK INTRA:                  -0.459
REMARK UNBOUND:                -0.887
REMARK  Name = 
REMARK  7 active torsions:
REMARK  status: ('A' for Active; 'I' for Inactive)
REMARK    1  A    between atoms: C_2  and  C_4
REMARK    2  A    between atoms: C_7  and  O_8
REMARK    3  A    between atoms: O_8  and  C_9
REMARK    4  A    between atoms: C_9  and  C_10
REMARK    5  A    between atoms: C_10  and  C_13
REMARK    6  A    between atoms: C_18  and  N_19
REMARK    7  A    between atoms: N_19  and  C_20
REMARK                            x       y       z     vdW  Elec       q    Type
REMARK                         _______ _______ _______ _____ _____    ______ ____
ROOT
ATOM      1  C   UNL     1      47.064   4.440  13.662  0.00  0.00    +0.000 C 
ATOM      2  F   UNL     1      47.750   5.495  13.125  0.00  0.00    +0.000 F 
ATOM      3  F   UNL     1      47.864   3.351  13.470  0.00  0.00    +0.000 F 
ENDROOT
BRANCH   1   4
ATOM      4  C   UNL     1      45.705   4.257  12.991  0.00  0.00    +0.000 A 
ATOM      5  C   UNL     1      44.619   5.059  13.371  0.00  0.00    +0.000 A 
ATOM      6  C   UNL     1      43.381   4.875  12.767  0.00  0.00    +0.000 A 
ATOM      7  F   UNL     1      42.352   5.653  13.128  0.00  0.00    +0.000 F 
ATOM      8  C   UNL     1      43.191   3.904  11.790  0.00  0.00    +0.000 A 
ATOM      9  C   UNL     1      44.259   3.103  11.371  0.00  0.00    +0.000 A 
ATOM     10  C   UNL     1      45.512   3.287  11.978  0.00  0.00    +0.000 A 
BRANCH   9  11
ATOM     11  N   UNL     1      44.015   2.177  10.329  0.00  0.00    +0.000 N 
ATOM     12  H   UNL     1      44.118   1.225  10.680  0.00  0.00    +0.000 HD
BRANCH  11  13
ATOM     13  C   UNL     1      44.379   2.303   8.942  0.00  0.00    +0.000 C 
ATOM     14  C   UNL     1      45.853   1.995   8.630  0.00  0.00    +0.000 C 
ATOM     15  O   UNL     1      46.008   3.267   7.940  0.00  0.00    +0.000 OA
ATOM     16  C   UNL     1      44.775   3.739   8.541  0.00  0.00    +0.000 C 
ENDBRANCH  11  13
ENDBRANCH   9  11
ENDBRANCH   1   4
BRANCH   1  17
ATOM     17  C   UNL     1      46.916   4.683  15.175  0.00  0.00    +0.000 C 
BRANCH  17  18
ATOM     18  O   UNL     1      46.877   3.450  15.935  0.00  0.00    +0.000 OA
BRANCH  18  22
ATOM     19  C   UNL     1      50.579   2.328  17.267  0.00  0.00    +0.000 A 
ATOM     20  C   UNL     1      50.022   3.479  17.795  0.00  0.00    +0.000 A 
ATOM     21  C   UNL     1      48.761   3.873  17.340  0.00  0.00    +0.000 A 
ATOM     22  C   UNL     1      48.134   3.089  16.385  0.00  0.00    +0.000 A 
ATOM     23  N   UNL     1      48.721   1.972  15.887  0.00  0.00    +0.000 NA
ATOM     24  N   UNL     1      49.951   1.586  16.327  0.00  0.00    +0.000 NA
BRANCH  19  26
ATOM     25  N   UNL     1      51.981   0.494  18.042  0.00  0.00    +0.000 N 
ATOM     26  C   UNL     1      51.908   1.820  17.718  0.00  0.00    +0.000 C 
ATOM     27  O   UNL     1      52.890   2.553  17.786  0.00  0.00    +0.000 OA
ATOM     28  H   UNL     1      52.875   0.108  18.308  0.00  0.00    +0.000 HD
ATOM     29  H   UNL     1      51.196  -0.128  17.884  0.00  0.00    +0.000 HD
ENDBRANCH  19  26
ENDBRANCH  18  22
ENDBRANCH  17  18
ENDBRANCH   1  17
TORSDOF 7
ENDMDL
MODEL 5
REMARK VINA RESULT:    -7.602      1.945      7.525
REMARK INTER + INTRA:         -11.600
REMARK INTER:                 -10.890
REMARK INTRA:                  -0.709
REMARK UNBOUND:                -0.887
REMARK  Name = 
REMARK  7 active torsions:
REMARK  status: ('A' for Active; 'I' for Inactive)
REMARK    1  A    between atoms: C_2  and  C_4
REMARK    2  A    between atoms: C_7  and  O_8
REMARK    3  A    between atoms: O_8  and  C_9
REMARK    4  A    between atoms: C_9  and  C_10
REMARK    5  A    between atoms: C_10  and  C_13
REMARK    6  A    between atoms: C_18  and  N_19
REMARK    7  A    between atoms: N_19  and  C_20
REMARK                            x       y       z     vdW  Elec       q    Type
REMARK                         _______ _______ _______ _____ _____    ______ ____
ROOT
ATOM      1  C   UNL     1      45.453   6.436  11.633  0.00  0.00    +0.000 C 
ATOM      2  F   UNL     1      44.746   6.569  12.797  0.00  0.00    +0.000 F 
ATOM      3  F   UNL     1      45.163   7.553  10.903  0.00  0.00    +0.000 F 
ENDROOT
BRANCH   1   4
ATOM      4  C   UNL     1      45.064   5.165  10.884  0.00  0.00    +0.000 A 
ATOM      5  C   UNL     1      44.244   4.208  11.501  0.00  0.00    +0.000 A 
ATOM      6  C   UNL     1      43.908   3.045  10.818  0.00  0.00    +0.000 A 
ATOM      7  F   UNL     1      43.116   2.142  11.410  0.00  0.00    +0.000 F 
ATOM      8  C   UNL     1      44.371   2.805   9.529  0.00  0.00    +0.000 A 
ATOM      9  C   UNL     1      45.171   3.749   8.876  0.00  0.00    +0.000 A 
ATOM     10  C   UNL     1      45.512   4.926   9.563  0.00  0.00    +0.000 A 
BRANCH   9  11
ATOM     11  N   UNL     1      45.558   3.473   7.544  0.00  0.00    +0.000 N 
ATOM     12  H   UNL     1      44.847   2.901   7.086  0.00  0.00    +0.000 HD
BRANCH  11  13
ATOM     13  C   UNL     1      46.885   3.208   7.054  0.00  0.00    +0.000 C 
ATOM     14  C   UNL     1      46.961   2.821   5.568  0.00  0.00    +0.000 C 
ATOM     15  O   UNL     1      47.723   1.622   5.884  0.00  0.00    +0.000 OA
ATOM     16  C   UNL     1      47.342   1.752   7.278  0.00  0.00    +0.000 C 
ENDBRANCH  11  13
ENDBRANCH   9  11
ENDBRANCH   1   4
BRANCH   1  17
ATOM     17  C   UNL     1      46.954   6.449  11.978  0.00  0.00    +0.000 C 
BRANCH  17  18
ATOM     18  O   UNL     1      47.214   6.964  13.307  0.00  0.00    +0.000 OA
BRANCH  18  22
ATOM     19  C   UNL     1      47.998   3.932  15.941  0.00  0.00    +0.000 A 
ATOM     20  C   UNL     1      48.362   5.217  16.305  0.00  0.00    +0.000 A 
ATOM     21  C   UNL     1      48.104   6.257  15.408  0.00  0.00    +0.000 A 
ATOM     22  C   UNL     1      47.496   5.947  14.202  0.00  0.00    +0.000 A 
ATOM     23  N   UNL     1      47.164   4.672  13.881  0.00  0.00    +0.000 NA
ATOM     24  N   UNL     1      47.415   3.655  14.753  0.00  0.00    +0.000 NA
BRANCH  19  26
ATOM     25  N   UNL     1      47.520   2.778  18.030  0.00  0.00    +0.000 N 
ATOM     26  C   UNL     1      48.210   2.769  16.850  0.00  0.00    +0.000 C 
ATOM     27  O   UNL     1      48.959   1.844  16.551  0.00  0.00    +0.000 OA
ATOM     28  H   UNL     1      47.607   1.985  18.650  0.00  0.00    +0.000 HD
ATOM     29  H   UNL     1      46.825   3.490  18.226  0.00  0.00    +0.000 HD
ENDBRANCH  19  26
ENDBRANCH  18  22
ENDBRANCH  17  18
ENDBRANCH   1  17
TORSDOF 7
ENDMDL
MODEL 6
REMARK VINA RESULT:    -7.432      2.359      2.748
REMARK INTER + INTRA:         -11.360
REMARK INTER:                 -10.671
REMARK INTRA:                  -0.689
REMARK UNBOUND:                -0.887
REMARK  Name = 
REMARK  7 active torsions:
REMARK  status: ('A' for Active; 'I' for Inactive)
REMARK    1  A    between atoms: C_2  and  C_4
REMARK    2  A    between atoms: C_7  and  O_8
REMARK    3  A    between atoms: O_8  and  C_9
REMARK    4  A    between atoms: C_9  and  C_10
REMARK    5  A    between atoms: C_10  and  C_13
REMARK    6  A    between atoms: C_18  and  N_19
REMARK    7  A    between atoms: N_19  and  C_20
REMARK                            x       y       z     vdW  Elec       q    Type
REMARK                         _______ _______ _______ _____ _____    ______ ____
ROOT
ATOM      1  C   UNL     1      44.702   5.013  12.175  0.00  0.00    +0.000 C 
ATOM      2  F   UNL     1      43.749   4.787  13.130  0.00  0.00    +0.000 F 
ATOM      3  F   UNL     1      45.488   3.897  12.175  0.00  0.00    +0.000 F 
ENDROOT
BRANCH   1   4
ATOM      4  C   UNL     1      45.516   6.267  12.483  0.00  0.00    +0.000 A 
ATOM      5  C   UNL     1      44.918   7.532  12.399  0.00  0.00    +0.000 A 
ATOM      6  C   UNL     1      45.671   8.670  12.665  0.00  0.00    +0.000 A 
ATOM      7  F   UNL     1      45.089   9.874  12.594  0.00  0.00    +0.000 F 
ATOM      8  C   UNL     1      47.015   8.582  13.012  0.00  0.00    +0.000 A 
ATOM      9  C   UNL     1      47.636   7.334  13.127  0.00  0.00    +0.000 A 
ATOM     10  C   UNL     1      46.879   6.182  12.860  0.00  0.00    +0.000 A 
BRANCH   9  11
ATOM     11  N   UNL     1      48.988   7.310  13.543  0.00  0.00    +0.000 N 
ATOM     12  H   UNL     1      49.581   6.976  12.783  0.00  0.00    +0.000 HD
BRANCH  11  13
ATOM     13  C   UNL     1      49.498   6.959  14.843  0.00  0.00    +0.000 C 
ATOM     14  C   UNL     1      48.896   7.756  16.012  0.00  0.00    +0.000 C 
ATOM     15  O   UNL     1      50.221   8.118  16.492  0.00  0.00    +0.000 OA
ATOM     16  C   UNL     1      50.789   7.715  15.219  0.00  0.00    +0.000 C 
ENDBRANCH  11  13
ENDBRANCH   9  11
ENDBRANCH   1   4
BRANCH   1  17
ATOM     17  C   UNL     1      43.998   5.120  10.809  0.00  0.00    +0.000 C 
BRANCH  17  18
ATOM     18  O   UNL     1      43.691   3.824  10.240  0.00  0.00    +0.000 OA
BRANCH  18  22
ATOM     19  C   UNL     1      46.469   2.712   7.449  0.00  0.00    +0.000 A 
ATOM     20  C   UNL     1      46.029   1.752   8.345  0.00  0.00    +0.000 A 
ATOM     21  C   UNL     1      45.086   2.126   9.305  0.00  0.00    +0.000 A 
ATOM     22  C   UNL     1      44.638   3.438   9.309  0.00  0.00    +0.000 A 
ATOM     23  N   UNL     1      45.103   4.349   8.419  0.00  0.00    +0.000 NA
ATOM     24  N   UNL     1      46.024   3.989   7.482  0.00  0.00    +0.000 NA
BRANCH  19  26
ATOM     25  N   UNL     1      47.423   3.182   5.260  0.00  0.00    +0.000 N 
ATOM     26  C   UNL     1      47.452   2.392   6.375  0.00  0.00    +0.000 C 
ATOM     27  O   UNL     1      48.254   1.469   6.488  0.00  0.00    +0.000 OA
ATOM     28  H   UNL     1      48.104   3.021   4.532  0.00  0.00    +0.000 HD
ATOM     29  H   UNL     1      46.832   4.005   5.216  0.00  0.00    +0.000 HD
ENDBRANCH  19  26
ENDBRANCH  18  22
ENDBRANCH  17  18
ENDBRANCH   1  17
TORSDOF 7
ENDMDL
MODEL 7
REMARK VINA RESULT:    -7.341      2.161      7.658
REMARK INTER + INTRA:         -11.233
REMARK INTER:                 -10.398
REMARK INTRA:                  -0.835
REMARK UNBOUND:                -0.887
REMARK  Name = 
REMARK  7 active torsions:
REMARK  status: ('A' for Active; 'I' for Inactive)
REMARK    1  A    between atoms: C_2  and  C_4
REMARK    2  A    between atoms: C_7  and  O_8
REMARK    3  A    between atoms: O_8  and  C_9
REMARK    4  A    between atoms: C_9  and  C_10
REMARK    5  A    between atoms: C_10  and  C_13
REMARK    6  A    between atoms: C_18  and  N_19
REMARK    7  A    between atoms: N_19  and  C_20
REMARK                            x       y       z     vdW  Elec       q    Type
REMARK                         _______ _______ _______ _____ _____    ______ ____
ROOT
ATOM      1  C   UNL     1      45.933   6.473  12.223  0.00  0.00    +0.000 C 
ATOM      2  F   UNL     1      45.227   6.976  13.280  0.00  0.00    +0.000 F 
ATOM      3  F   UNL     1      46.020   7.497  11.324  0.00  0.00    +0.000 F 
ENDROOT
BRANCH   1   4
ATOM      4  C   UNL     1      45.240   5.257  11.615  0.00  0.00    +0.000 A 
ATOM      5  C   UNL     1      44.673   4.281  12.448  0.00  0.00    +0.000 A 
ATOM      6  C   UNL     1      44.059   3.168  11.888  0.00  0.00    +0.000 A 
ATOM      7  F   UNL     1      43.510   2.246  12.690  0.00  0.00    +0.000 F 
ATOM      8  C   UNL     1      43.995   2.996  10.509  0.00  0.00    +0.000 A 
ATOM      9  C   UNL     1      44.529   3.961   9.649  0.00  0.00    +0.000 A 
ATOM     10  C   UNL     1      45.150   5.088  10.212  0.00  0.00    +0.000 A 
BRANCH   9  11
ATOM     11  N   UNL     1      44.377   3.758   8.258  0.00  0.00    +0.000 N 
ATOM     12  H   UNL     1      43.397   3.577   8.038  0.00  0.00    +0.000 HD
BRANCH  11  13
ATOM     13  C   UNL     1      45.282   3.079   7.367  0.00  0.00    +0.000 C 
ATOM     14  C   UNL     1      46.156   2.002   8.031  0.00  0.00    +0.000 C 
ATOM     15  O   UNL     1      47.366   2.600   7.487  0.00  0.00    +0.000 OA
ATOM     16  C   UNL     1      46.627   3.812   7.186  0.00  0.00    +0.000 C 
ENDBRANCH  11  13
ENDBRANCH   9  11
ENDBRANCH   1   4
BRANCH   1  17
ATOM     17  C   UNL     1      47.352   6.127  12.713  0.00  0.00    +0.000 C 
BRANCH  17  18
ATOM     18  O   UNL     1      47.674   6.761  13.975  0.00  0.00    +0.000 OA
BRANCH  18  22
ATOM     19  C   UNL     1      48.603   4.010  16.858  0.00  0.00    +0.000 A 
ATOM     20  C   UNL     1      47.493   3.771  16.067  0.00  0.00    +0.000 A 
ATOM     21  C   UNL     1      47.165   4.709  15.085  0.00  0.00    +0.000 A 
ATOM     22  C   UNL     1      47.970   5.829  14.953  0.00  0.00    +0.000 A 
ATOM     23  N   UNL     1      49.044   6.030  15.756  0.00  0.00    +0.000 NA
ATOM     24  N   UNL     1      49.366   5.118  16.716  0.00  0.00    +0.000 NA
BRANCH  19  26
ATOM     25  N   UNL     1      48.413   3.134  19.120  0.00  0.00    +0.000 N 
ATOM     26  C   UNL     1      49.041   3.047  17.909  0.00  0.00    +0.000 C 
ATOM     27  O   UNL     1      49.915   2.213  17.697  0.00  0.00    +0.000 OA
ATOM     28  H   UNL     1      48.654   2.468  19.841  0.00  0.00    +0.000 HD
ATOM     29  H   UNL     1      47.622   3.753  19.258  0.00  0.00    +0.000 HD
ENDBRANCH  19  26
ENDBRANCH  18  22
ENDBRANCH  17  18
ENDBRANCH   1  17
TORSDOF 7
ENDMDL
MODEL 8
REMARK VINA RESULT:    -7.341      2.001      7.963
REMARK INTER + INTRA:         -11.232
REMARK INTER:                 -10.486
REMARK INTRA:                  -0.746
REMARK UNBOUND:                -0.887
REMARK  Name = 
REMARK  7 active torsions:
REMARK  status: ('A' for Active; 'I' for Inactive)
REMARK    1  A    between atoms: C_2  and  C_4
REMARK    2  A    between atoms: C_7  and  O_8
REMARK    3  A    between atoms: O_8  and  C_9
REMARK    4  A    between atoms: C_9  and  C_10
REMARK    5  A    between atoms: C_10  and  C_13
REMARK    6  A    between atoms: C_18  and  N_19
REMARK    7  A    between atoms: N_19  and  C_20
REMARK                            x       y       z     vdW  Elec       q    Type
REMARK                         _______ _______ _______ _____ _____    ______ ____
ROOT
ATOM      1  C   UNL     1      46.796   6.826  12.533  0.00  0.00    +0.000 C 
ATOM      2  F   UNL     1      46.474   7.726  13.511  0.00  0.00    +0.000 F 
ATOM      3  F   UNL     1      47.321   7.568  11.515  0.00  0.00    +0.000 F 
ENDROOT
BRANCH   1   4
ATOM      4  C   UNL     1      45.572   6.038  12.073  0.00  0.00    +0.000 A 
ATOM      5  C   UNL     1      44.559   5.714  12.988  0.00  0.00    +0.000 A 
ATOM      6  C   UNL     1      43.456   4.983  12.565  0.00  0.00    +0.000 A 
ATOM      7  F   UNL     1      42.488   4.687  13.443  0.00  0.00    +0.000 F 
ATOM      8  C   UNL     1      43.332   4.559  11.246  0.00  0.00    +0.000 A 
ATOM      9  C   UNL     1      44.312   4.885  10.303  0.00  0.00    +0.000 A 
ATOM     10  C   UNL     1      45.429   5.625  10.726  0.00  0.00    +0.000 A 
BRANCH   9  11
ATOM     11  N   UNL     1      44.097   4.478   8.966  0.00  0.00    +0.000 N 
ATOM     12  H   UNL     1      43.204   4.840   8.630  0.00  0.00    +0.000 HD
BRANCH  11  13
ATOM     13  C   UNL     1      44.447   3.216   8.367  0.00  0.00    +0.000 C 
ATOM     14  C   UNL     1      45.049   2.185   9.337  0.00  0.00    +0.000 C 
ATOM     15  O   UNL     1      46.197   1.986   8.466  0.00  0.00    +0.000 OA
ATOM     16  C   UNL     1      45.860   3.202   7.749  0.00  0.00    +0.000 C 
ENDBRANCH  11  13
ENDBRANCH   9  11
ENDBRANCH   1   4
BRANCH   1  17
ATOM     17  C   UNL     1      47.892   5.893  13.080  0.00  0.00    +0.000 C 
BRANCH  17  18
ATOM     18  O   UNL     1      47.349   4.723  13.740  0.00  0.00    +0.000 OA
BRANCH  18  22
ATOM     19  C   UNL     1      47.832   4.884  17.800  0.00  0.00    +0.000 A 
ATOM     20  C   UNL     1      48.547   5.781  17.026  0.00  0.00    +0.000 A 
ATOM     21  C   UNL     1      48.392   5.728  15.639  0.00  0.00    +0.000 A 
ATOM     22  C   UNL     1      47.530   4.781  15.110  0.00  0.00    +0.000 A 
ATOM     23  N   UNL     1      46.857   3.913  15.905  0.00  0.00    +0.000 NA
ATOM     24  N   UNL     1      47.005   3.960  17.258  0.00  0.00    +0.000 NA
BRANCH  19  26
ATOM     25  N   UNL     1      48.510   3.808  19.875  0.00  0.00    +0.000 N 
ATOM     26  C   UNL     1      47.915   4.890  19.289  0.00  0.00    +0.000 C 
ATOM     27  O   UNL     1      47.480   5.824  19.956  0.00  0.00    +0.000 OA
ATOM     28  H   UNL     1      48.622   3.800  20.879  0.00  0.00    +0.000 HD
ATOM     29  H   UNL     1      48.960   3.091  19.318  0.00  0.00    +0.000 HD
ENDBRANCH  19  26
ENDBRANCH  18  22
ENDBRANCH  17  18
ENDBRANCH   1  17
TORSDOF 7
ENDMDL
MODEL 9
REMARK VINA RESULT:    -7.044      4.249      7.952
REMARK INTER + INTRA:         -10.813
REMARK INTER:                 -10.119
REMARK INTRA:                  -0.694
REMARK UNBOUND:                -0.887
REMARK  Name = 
REMARK  7 active torsions:
REMARK  status: ('A' for Active; 'I' for Inactive)
REMARK    1  A    between atoms: C_2  and  C_4
REMARK    2  A    between atoms: C_7  and  O_8
REMARK    3  A    between atoms: O_8  and  C_9
REMARK    4  A    between atoms: C_9  and  C_10
REMARK    5  A    between atoms: C_10  and  C_13
REMARK    6  A    between atoms: C_18  and  N_19
REMARK    7  A    between atoms: N_19  and  C_20
REMARK                            x       y       z     vdW  Elec       q    Type
REMARK                         _______ _______ _______ _____ _____    ______ ____
ROOT
ATOM      1  C   UNL     1      46.994   4.395  13.627  0.00  0.00    +0.000 C 
ATOM      2  F   UNL     1      48.241   4.715  13.165  0.00  0.00    +0.000 F 
ATOM      3  F   UNL     1      46.868   3.050  13.428  0.00  0.00    +0.000 F 
ENDROOT
BRANCH   1   4
ATOM      4  C   UNL     1      45.908   5.171  12.889  0.00  0.00    +0.000 A 
ATOM      5  C   UNL     1      44.992   4.494  12.069  0.00  0.00    +0.000 A 
ATOM      6  C   UNL     1      44.017   5.210  11.387  0.00  0.00    +0.000 A 
ATOM      7  F   UNL     1      43.139   4.555  10.615  0.00  0.00    +0.000 F 
ATOM      8  C   UNL     1      43.927   6.594  11.496  0.00  0.00    +0.000 A 
ATOM      9  C   UNL     1      44.809   7.298  12.323  0.00  0.00    +0.000 A 
ATOM     10  C   UNL     1      45.796   6.577  13.015  0.00  0.00    +0.000 A 
BRANCH   9  11
ATOM     11  N   UNL     1      44.626   8.695  12.439  0.00  0.00    +0.000 N 
ATOM     12  H   UNL     1      43.814   8.893  13.026  0.00  0.00    +0.000 HD
BRANCH  11  13
ATOM     13  C   UNL     1      44.835   9.694  11.423  0.00  0.00    +0.000 C 
ATOM     14  C   UNL     1      45.848  10.790  11.793  0.00  0.00    +0.000 C 
ATOM     15  O   UNL     1      44.888  11.834  11.465  0.00  0.00    +0.000 OA
ATOM     16  C   UNL     1      43.820  10.853  11.485  0.00  0.00    +0.000 C 
ENDBRANCH  11  13
ENDBRANCH   9  11
ENDBRANCH   1   4
BRANCH   1  17
ATOM     17  C   UNL     1      46.955   4.675  15.141  0.00  0.00    +0.000 C 
BRANCH  17  18
ATOM     18  O   UNL     1      46.900   3.460  15.930  0.00  0.00    +0.000 OA
BRANCH  18  22
ATOM     19  C   UNL     1      50.593   2.300  17.256  0.00  0.00    +0.000 A 
ATOM     20  C   UNL     1      50.019   3.419  17.834  0.00  0.00    +0.000 A 
ATOM     21  C   UNL     1      48.761   3.826  17.381  0.00  0.00    +0.000 A 
ATOM     22  C   UNL     1      48.153   3.086  16.379  0.00  0.00    +0.000 A 
ATOM     23  N   UNL     1      48.756   2.001  15.833  0.00  0.00    +0.000 NA
ATOM     24  N   UNL     1      49.984   1.602  16.270  0.00  0.00    +0.000 NA
BRANCH  19  26
ATOM     25  N   UNL     1      51.973   0.463  18.058  0.00  0.00    +0.000 N 
ATOM     26  C   UNL     1      51.919   1.781  17.699  0.00  0.00    +0.000 C 
ATOM     27  O   UNL     1      52.915   2.497  17.730  0.00  0.00    +0.000 OA
ATOM     28  H   UNL     1      52.865   0.068  18.322  0.00  0.00    +0.000 HD
ATOM     29  H   UNL     1      51.175  -0.149  17.931  0.00  0.00    +0.000 HD
ENDBRANCH  19  26
ENDBRANCH  18  22
ENDBRANCH  17  18
ENDBRANCH   1  17
TORSDOF 7
ENDMDL
