MODEL 1
REMARK VINA RESULT:    -8.831      0.000      0.000
REMARK INTER + INTRA:         -12.827
REMARK INTER:                 -11.928
REMARK INTRA:                  -0.898
REMARK UNBOUND:                -0.898
REMARK  Name = 
REMARK  6 active torsions:
REMARK  status: ('A' for Active; 'I' for Inactive)
REMARK    1  A    between atoms: C_2  and  C_4
REMARK    2  A    between atoms: C_7  and  O_8
REMARK    3  A    between atoms: O_8  and  C_9
REMARK    4  A    between atoms: C_9  and  C_10
REMARK    5  A    between atoms: C_10  and  C_11
REMARK    6  A    between atoms: C_15  and  C_16
REMARK                            x       y       z     vdW  Elec       q    Type
REMARK                         _______ _______ _______ _____ _____    ______ ____
ROOT
ATOM      1  C   UNL     1      43.371   4.034  11.247  0.00  0.00    +0.000 C 
ENDROOT
BRANCH   1   2
ATOM      2  O   UNL     1      43.560   4.587   9.932  0.00  0.00    +0.000 OA
BRANCH   2   6
ATOM      3  C   UNL     1      46.347   2.438   7.773  0.00  0.00    +0.000 A 
ATOM      4  C   UNL     1      45.567   1.784   8.728  0.00  0.00    +0.000 A 
ATOM      5  C   UNL     1      44.628   2.517   9.462  0.00  0.00    +0.000 A 
ATOM      6  C   UNL     1      44.505   3.876   9.212  0.00  0.00    +0.000 A 
ATOM      7  N   UNL     1      45.260   4.530   8.303  0.00  0.00    +0.000 NA
ATOM      8  C   UNL     1      46.169   3.804   7.611  0.00  0.00    +0.000 A 
BRANCH   3  10
ATOM      9  N   UNL     1      48.396   2.519   6.486  0.00  0.00    +0.000 N 
ATOM     10  C   UNL     1      47.352   1.759   6.934  0.00  0.00    +0.000 C 
ATOM     11  O   UNL     1      47.282   0.563   6.690  0.00  0.00    +0.000 OA
ATOM     12  H   UNL     1      49.143   2.013   6.014  0.00  0.00    +0.000 HD
ATOM     13  H   UNL     1      48.625   3.416   6.880  0.00  0.00    +0.000 HD
ENDBRANCH   3  10
ENDBRANCH   2   6
ENDBRANCH   1   2
BRANCH   1  14
ATOM     14  C   UNL     1      43.551   5.120  12.311  0.00  0.00    +0.000 C 
BRANCH  14  15
ATOM     15  C   UNL     1      45.013   5.375  12.604  0.00  0.00    +0.000 A 
ATOM     16  C   UNL     1      45.732   6.348  11.901  0.00  0.00    +0.000 A 
ATOM     17  C   UNL     1      47.058   6.623  12.232  0.00  0.00    +0.000 A 
ATOM     18  C   UNL     1      47.665   5.963  13.302  0.00  0.00    +0.000 A 
ATOM     19  C   UNL     1      46.964   5.007  14.055  0.00  0.00    +0.000 A 
ATOM     20  C   UNL     1      45.647   4.701  13.658  0.00  0.00    +0.000 A 
BRANCH  19  21
ATOM     21  C   UNL     1      47.559   4.417  15.270  0.00  0.00    +0.000 A 
ATOM     22  C   UNL     1      48.020   5.189  16.331  0.00  0.00    +0.000 A 
ATOM     23  C   UNL     1      48.661   4.564  17.401  0.00  0.00    +0.000 A 
ATOM     24  C   UNL     1      48.818   3.187  17.390  0.00  0.00    +0.000 A 
ATOM     25  C   UNL     1      48.321   2.484  16.308  0.00  0.00    +0.000 A 
ATOM     26  N   UNL     1      47.693   3.064  15.261  0.00  0.00    +0.000 NA
ENDBRANCH  19  21
ENDBRANCH  14  15
ENDBRANCH   1  14
TORSDOF 6
ENDMDL
MODEL 2
REMARK VINA RESULT:    -8.030      2.129      3.847
REMARK INTER + INTRA:         -11.745
REMARK INTER:                 -10.854
REMARK INTRA:                  -0.892
REMARK UNBOUND:                -0.898
REMARK  Name = 
REMARK  6 active torsions:
REMARK  status: ('A' for Active; 'I' for Inactive)
REMARK    1  A    between atoms: C_2  and  C_4
REMARK    2  A    between atoms: C_7  and  O_8
REMARK    3  A    between atoms: O_8  and  C_9
REMARK    4  A    between atoms: C_9  and  C_10
REMARK    5  A    between atoms: C_10  and  C_11
REMARK    6  A    between atoms: C_15  and  C_16
REMARK                            x       y       z     vdW  Elec       q    Type
REMARK                         _______ _______ _______ _____ _____    ______ ____
ROOT
ATOM      1  C   UNL     1      43.598   4.144  11.163  0.00  0.00    +0.000 C 
ENDROOT
BRANCH   1   2
ATOM      2  O   UNL     1      43.590   4.551   9.783  0.00  0.00    +0.000 OA
BRANCH   2   6
ATOM      3  C   UNL     1      46.568   2.678   7.621  0.00  0.00    +0.000 A 
ATOM      4  C   UNL     1      45.727   1.915   8.433  0.00  0.00    +0.000 A 
ATOM      5  C   UNL     1      44.723   2.554   9.169  0.00  0.00    +0.000 A 
ATOM      6  C   UNL     1      44.598   3.933   9.064  0.00  0.00    +0.000 A 
ATOM      7  N   UNL     1      45.411   4.690   8.295  0.00  0.00    +0.000 NA
ATOM      8  C   UNL     1      46.382   4.052   7.599  0.00  0.00    +0.000 A 
BRANCH   3  10
ATOM      9  N   UNL     1      48.109   2.877   5.765  0.00  0.00    +0.000 N 
ATOM     10  C   UNL     1      47.645   2.105   6.793  0.00  0.00    +0.000 C 
ATOM     11  O   UNL     1      48.133   1.012   7.040  0.00  0.00    +0.000 OA
ATOM     12  H   UNL     1      48.932   2.523   5.280  0.00  0.00    +0.000 HD
ATOM     13  H   UNL     1      47.925   3.864   5.699  0.00  0.00    +0.000 HD
ENDBRANCH   3  10
ENDBRANCH   2   6
ENDBRANCH   1   2
BRANCH   1  14
ATOM     14  C   UNL     1      43.616   5.371  12.079  0.00  0.00    +0.000 C 
BRANCH  14  15
ATOM     15  C   UNL     1      44.993   5.615  12.655  0.00  0.00    +0.000 A 
ATOM     16  C   UNL     1      45.614   4.663  13.471  0.00  0.00    +0.000 A 
ATOM     17  C   UNL     1      46.913   4.868  13.934  0.00  0.00    +0.000 A 
ATOM     18  C   UNL     1      47.623   6.006  13.547  0.00  0.00    +0.000 A 
ATOM     19  C   UNL     1      47.048   6.966  12.700  0.00  0.00    +0.000 A 
ATOM     20  C   UNL     1      45.711   6.766  12.298  0.00  0.00    +0.000 A 
BRANCH  19  21
ATOM     21  C   UNL     1      47.847   8.092  12.179  0.00  0.00    +0.000 A 
ATOM     22  C   UNL     1      49.186   7.962  11.825  0.00  0.00    +0.000 A 
ATOM     23  C   UNL     1      49.902   9.094  11.435  0.00  0.00    +0.000 A 
ATOM     24  C   UNL     1      49.263  10.324  11.401  0.00  0.00    +0.000 A 
ATOM     25  C   UNL     1      47.927  10.374  11.752  0.00  0.00    +0.000 A 
ATOM     26  N   UNL     1      47.210   9.292  12.129  0.00  0.00    +0.000 NA
ENDBRANCH  19  21
ENDBRANCH  14  15
ENDBRANCH   1  14
TORSDOF 6
ENDMDL
MODEL 3
REMARK VINA RESULT:    -7.758      2.520      7.359
REMARK INTER + INTRA:         -11.378
REMARK INTER:                 -10.274
REMARK INTRA:                  -1.104
REMARK UNBOUND:                -0.898
REMARK  Name = 
REMARK  6 active torsions:
REMARK  status: ('A' for Active; 'I' for Inactive)
REMARK    1  A    between atoms: C_2  and  C_4
REMARK    2  A    between atoms: C_7  and  O_8
REMARK    3  A    between atoms: O_8  and  C_9
REMARK    4  A    between atoms: C_9  and  C_10
REMARK    5  A    between atoms: C_10  and  C_11
REMARK    6  A    between atoms: C_15  and  C_16
REMARK                            x       y       z     vdW  Elec       q    Type
REMARK                         _______ _______ _______ _____ _____    ______ ____
ROOT
ATOM      1  C   UNL     1      46.304   7.815  13.017  0.00  0.00    +0.000 C 
ENDROOT
BRANCH   1   2
ATOM      2  O   UNL     1      47.532   7.065  12.998  0.00  0.00    +0.000 OA
BRANCH   2   6
ATOM      3  C   UNL     1      47.593   4.128  15.900  0.00  0.00    +0.000 A 
ATOM      4  C   UNL     1      46.834   3.935  14.745  0.00  0.00    +0.000 A 
ATOM      5  C   UNL     1      46.811   4.935  13.766  0.00  0.00    +0.000 A 
ATOM      6  C   UNL     1      47.549   6.090  13.982  0.00  0.00    +0.000 A 
ATOM      7  N   UNL     1      48.278   6.302  15.098  0.00  0.00    +0.000 NA
ATOM      8  C   UNL     1      48.278   5.326  16.037  0.00  0.00    +0.000 A 
BRANCH   3  10
ATOM      9  N   UNL     1      48.959   2.712  17.311  0.00  0.00    +0.000 N 
ATOM     10  C   UNL     1      47.700   3.134  16.984  0.00  0.00    +0.000 C 
ATOM     11  O   UNL     1      46.717   2.740  17.593  0.00  0.00    +0.000 OA
ATOM     12  H   UNL     1      49.028   2.122  18.138  0.00  0.00    +0.000 HD
ATOM     13  H   UNL     1      49.789   3.202  17.023  0.00  0.00    +0.000 HD
ENDBRANCH   3  10
ENDBRANCH   2   6
ENDBRANCH   1   2
BRANCH   1  14
ATOM     14  C   UNL     1      45.698   7.876  11.612  0.00  0.00    +0.000 C 
BRANCH  14  15
ATOM     15  C   UNL     1      44.995   6.585  11.254  0.00  0.00    +0.000 A 
ATOM     16  C   UNL     1      43.692   6.325  11.693  0.00  0.00    +0.000 A 
ATOM     17  C   UNL     1      43.030   5.165  11.292  0.00  0.00    +0.000 A 
ATOM     18  C   UNL     1      43.645   4.275  10.410  0.00  0.00    +0.000 A 
ATOM     19  C   UNL     1      44.937   4.520   9.919  0.00  0.00    +0.000 A 
ATOM     20  C   UNL     1      45.609   5.666  10.389  0.00  0.00    +0.000 A 
BRANCH  19  21
ATOM     21  C   UNL     1      45.528   3.654   8.879  0.00  0.00    +0.000 A 
ATOM     22  C   UNL     1      45.567   2.269   8.989  0.00  0.00    +0.000 A 
ATOM     23  C   UNL     1      46.231   1.525   8.013  0.00  0.00    +0.000 A 
ATOM     24  C   UNL     1      46.830   2.181   6.949  0.00  0.00    +0.000 A 
ATOM     25  C   UNL     1      46.737   3.560   6.899  0.00  0.00    +0.000 A 
ATOM     26  N   UNL     1      46.097   4.303   7.828  0.00  0.00    +0.000 NA
ENDBRANCH  19  21
ENDBRANCH  14  15
ENDBRANCH   1  14
TORSDOF 6
ENDMDL
MODEL 4
REMARK VINA RESULT:    -7.279      1.452      1.991
REMARK INTER + INTRA:         -10.730
REMARK INTER:                  -9.864
REMARK INTRA:                  -0.866
REMARK UNBOUND:                -0.898
REMARK  Name = 
REMARK  6 active torsions:
REMARK  status: ('A' for Active; 'I' for Inactive)
REMARK    1  A    between atoms: C_2  and  C_4
REMARK    2  A    between atoms: C_7  and  O_8
REMARK    3  A    between atoms: O_8  and  C_9
REMARK    4  A    between atoms: C_9  and  C_10
REMARK    5  A    between atoms: C_10  and  C_11
REMARK    6  A    between atoms: C_15  and  C_16
REMARK                            x       y       z     vdW  Elec       q    Type
REMARK                         _______ _______ _______ _____ _____    ______ ____
ROOT
ATOM      1  C   UNL     1      44.973   4.469  11.576  0.00  0.00    +0.000 C 
ENDROOT
BRANCH   1   2
ATOM      2  O   UNL     1      44.248   4.289  10.346  0.00  0.00    +0.000 OA
BRANCH   2   6
ATOM      3  C   UNL     1      46.701   2.803   7.376  0.00  0.00    +0.000 A 
ATOM      4  C   UNL     1      46.522   4.182   7.490  0.00  0.00    +0.000 A 
ATOM      5  C   UNL     1      45.685   4.682   8.494  0.00  0.00    +0.000 A 
ATOM      6  C   UNL     1      45.060   3.782   9.346  0.00  0.00    +0.000 A 
ATOM      7  N   UNL     1      45.209   2.443   9.242  0.00  0.00    +0.000 NA
ATOM      8  C   UNL     1      46.015   1.981   8.258  0.00  0.00    +0.000 A 
BRANCH   3  10
ATOM      9  N   UNL     1      47.892   2.926   5.272  0.00  0.00    +0.000 N 
ATOM     10  C   UNL     1      47.572   2.172   6.366  0.00  0.00    +0.000 C 
ATOM     11  O   UNL     1      48.025   1.048   6.522  0.00  0.00    +0.000 OA
ATOM     12  H   UNL     1      48.590   2.526   4.646  0.00  0.00    +0.000 HD
ATOM     13  H   UNL     1      47.763   3.923   5.241  0.00  0.00    +0.000 HD
ENDBRANCH   3  10
ENDBRANCH   2   6
ENDBRANCH   1   2
BRANCH   1  14
ATOM     14  C   UNL     1      45.077   5.958  11.918  0.00  0.00    +0.000 C 
BRANCH  14  15
ATOM     15  C   UNL     1      46.499   6.356  12.244  0.00  0.00    +0.000 A 
ATOM     16  C   UNL     1      47.247   7.147  11.365  0.00  0.00    +0.000 A 
ATOM     17  C   UNL     1      48.531   7.568  11.711  0.00  0.00    +0.000 A 
ATOM     18  C   UNL     1      49.062   7.243  12.961  0.00  0.00    +0.000 A 
ATOM     19  C   UNL     1      48.327   6.482  13.884  0.00  0.00    +0.000 A 
ATOM     20  C   UNL     1      47.059   6.015  13.484  0.00  0.00    +0.000 A 
BRANCH  19  21
ATOM     21  C   UNL     1      48.831   6.262  15.254  0.00  0.00    +0.000 A 
ATOM     22  C   UNL     1      49.905   6.971  15.782  0.00  0.00    +0.000 A 
ATOM     23  C   UNL     1      50.388   6.637  17.047  0.00  0.00    +0.000 A 
ATOM     24  C   UNL     1      49.782   5.611  17.756  0.00  0.00    +0.000 A 
ATOM     25  C   UNL     1      48.710   4.961  17.174  0.00  0.00    +0.000 A 
ATOM     26  N   UNL     1      48.222   5.267  15.952  0.00  0.00    +0.000 NA
ENDBRANCH  19  21
ENDBRANCH  14  15
ENDBRANCH   1  14
TORSDOF 6
ENDMDL
MODEL 5
REMARK VINA RESULT:    -7.262      2.634      4.917
REMARK INTER + INTRA:         -10.707
REMARK INTER:                 -10.285
REMARK INTRA:                  -0.422
REMARK UNBOUND:                -0.898
REMARK  Name = 
REMARK  6 active torsions:
REMARK  status: ('A' for Active; 'I' for Inactive)
REMARK    1  A    between atoms: C_2  and  C_4
REMARK    2  A    between atoms: C_7  and  O_8
REMARK    3  A    between atoms: O_8  and  C_9
REMARK    4  A    between atoms: C_9  and  C_10
REMARK    5  A    between atoms: C_10  and  C_11
REMARK    6  A    between atoms: C_15  and  C_16
REMARK                            x       y       z     vdW  Elec       q    Type
REMARK                         _______ _______ _______ _____ _____    ______ ____
ROOT
ATOM      1  C   UNL     1      43.960   4.096  11.553  0.00  0.00    +0.000 C 
ENDROOT
BRANCH   1   2
ATOM      2  O   UNL     1      43.649   4.365  10.174  0.00  0.00    +0.000 OA
BRANCH   2   6
ATOM      3  C   UNL     1      46.428   2.692   7.619  0.00  0.00    +0.000 A 
ATOM      4  C   UNL     1      45.676   1.862   8.452  0.00  0.00    +0.000 A 
ATOM      5  C   UNL     1      44.739   2.433   9.321  0.00  0.00    +0.000 A 
ATOM      6  C   UNL     1      44.591   3.813   9.322  0.00  0.00    +0.000 A 
ATOM      7  N   UNL     1      45.319   4.634   8.535  0.00  0.00    +0.000 NA
ATOM      8  C   UNL     1      46.226   4.062   7.709  0.00  0.00    +0.000 A 
BRANCH   3  10
ATOM      9  N   UNL     1      47.527   2.865   5.469  0.00  0.00    +0.000 N 
ATOM     10  C   UNL     1      47.428   2.195   6.656  0.00  0.00    +0.000 C 
ATOM     11  O   UNL     1      48.165   1.257   6.923  0.00  0.00    +0.000 OA
ATOM     12  H   UNL     1      48.301   2.589   4.867  0.00  0.00    +0.000 HD
ATOM     13  H   UNL     1      47.136   3.781   5.326  0.00  0.00    +0.000 HD
ENDBRANCH   3  10
ENDBRANCH   2   6
ENDBRANCH   1   2
BRANCH   1  14
ATOM     14  C   UNL     1      45.471   4.187  11.784  0.00  0.00    +0.000 C 
BRANCH  14  15
ATOM     15  C   UNL     1      45.868   5.541  12.330  0.00  0.00    +0.000 A 
ATOM     16  C   UNL     1      46.979   5.684  13.169  0.00  0.00    +0.000 A 
ATOM     17  C   UNL     1      47.377   6.948  13.604  0.00  0.00    +0.000 A 
ATOM     18  C   UNL     1      46.699   8.087  13.166  0.00  0.00    +0.000 A 
ATOM     19  C   UNL     1      45.603   7.986  12.294  0.00  0.00    +0.000 A 
ATOM     20  C   UNL     1      45.181   6.694  11.921  0.00  0.00    +0.000 A 
BRANCH  19  21
ATOM     21  C   UNL     1      44.979   9.195  11.721  0.00  0.00    +0.000 A 
ATOM     22  C   UNL     1      43.844   9.145  10.919  0.00  0.00    +0.000 A 
ATOM     23  C   UNL     1      43.371  10.319  10.332  0.00  0.00    +0.000 A 
ATOM     24  C   UNL     1      44.037  11.512  10.566  0.00  0.00    +0.000 A 
ATOM     25  C   UNL     1      45.150  11.486  11.386  0.00  0.00    +0.000 A 
ATOM     26  N   UNL     1      45.626  10.365  11.969  0.00  0.00    +0.000 NA
ENDBRANCH  19  21
ENDBRANCH  14  15
ENDBRANCH   1  14
TORSDOF 6
ENDMDL
MODEL 6
REMARK VINA RESULT:    -7.250      3.135      8.491
REMARK INTER + INTRA:         -10.692
REMARK INTER:                 -10.108
REMARK INTRA:                  -0.584
REMARK UNBOUND:                -0.898
REMARK  Name = 
REMARK  6 active torsions:
REMARK  status: ('A' for Active; 'I' for Inactive)
REMARK    1  A    between atoms: C_2  and  C_4
REMARK    2  A    between atoms: C_7  and  O_8
REMARK    3  A    between atoms: O_8  and  C_9
REMARK    4  A    between atoms: C_9  and  C_10
REMARK    5  A    between atoms: C_10  and  C_11
REMARK    6  A    between atoms: C_15  and  C_16
REMARK                            x       y       z     vdW  Elec       q    Type
REMARK                         _______ _______ _______ _____ _____    ______ ____
ROOT
ATOM      1  C   UNL     1      47.078   4.265  13.845  0.00  0.00    +0.000 C 
ENDROOT
BRANCH   1   2
ATOM      2  O   UNL     1      47.407   3.185  14.738  0.00  0.00    +0.000 OA
BRANCH   2   6
ATOM      3  C   UNL     1      48.701   4.543  18.415  0.00  0.00    +0.000 A 
ATOM      4  C   UNL     1      48.175   3.255  18.307  0.00  0.00    +0.000 A 
ATOM      5  C   UNL     1      47.732   2.800  17.060  0.00  0.00    +0.000 A 
ATOM      6  C   UNL     1      47.832   3.652  15.969  0.00  0.00    +0.000 A 
ATOM      7  N   UNL     1      48.325   4.907  16.057  0.00  0.00    +0.000 NA
ATOM      8  C   UNL     1      48.739   5.330  17.274  0.00  0.00    +0.000 A 
BRANCH   3  10
ATOM      9  N   UNL     1      49.347   4.256  20.731  0.00  0.00    +0.000 N 
ATOM     10  C   UNL     1      49.211   5.114  19.676  0.00  0.00    +0.000 C 
ATOM     11  O   UNL     1      49.542   6.288  19.762  0.00  0.00    +0.000 OA
ATOM     12  H   UNL     1      49.813   4.634  21.554  0.00  0.00    +0.000 HD
ATOM     13  H   UNL     1      49.342   3.256  20.623  0.00  0.00    +0.000 HD
ENDBRANCH   3  10
ENDBRANCH   2   6
ENDBRANCH   1   2
BRANCH   1  14
ATOM     14  C   UNL     1      45.631   4.713  14.065  0.00  0.00    +0.000 C 
BRANCH  14  15
ATOM     15  C   UNL     1      44.834   4.668  12.780  0.00  0.00    +0.000 A 
ATOM     16  C   UNL     1      43.632   5.372  12.651  0.00  0.00    +0.000 A 
ATOM     17  C   UNL     1      42.946   5.382  11.436  0.00  0.00    +0.000 A 
ATOM     18  C   UNL     1      43.479   4.727  10.324  0.00  0.00    +0.000 A 
ATOM     19  C   UNL     1      44.702   4.041  10.406  0.00  0.00    +0.000 A 
ATOM     20  C   UNL     1      45.342   3.992  11.661  0.00  0.00    +0.000 A 
BRANCH  19  21
ATOM     21  C   UNL     1      45.332   3.473   9.198  0.00  0.00    +0.000 A 
ATOM     22  C   UNL     1      45.527   2.107   9.025  0.00  0.00    +0.000 A 
ATOM     23  C   UNL     1      46.220   1.653   7.902  0.00  0.00    +0.000 A 
ATOM     24  C   UNL     1      46.692   2.572   6.978  0.00  0.00    +0.000 A 
ATOM     25  C   UNL     1      46.447   3.913   7.209  0.00  0.00    +0.000 A 
ATOM     26  N   UNL     1      45.776   4.378   8.286  0.00  0.00    +0.000 NA
ENDBRANCH  19  21
ENDBRANCH  14  15
ENDBRANCH   1  14
TORSDOF 6
ENDMDL
MODEL 7
REMARK VINA RESULT:    -6.867      2.809      8.078
REMARK INTER + INTRA:         -10.174
REMARK INTER:                  -9.521
REMARK INTRA:                  -0.653
REMARK UNBOUND:                -0.898
REMARK  Name = 
REMARK  6 active torsions:
REMARK  status: ('A' for Active; 'I' for Inactive)
REMARK    1  A    between atoms: C_2  and  C_4
REMARK    2  A    between atoms: C_7  and  O_8
REMARK    3  A    between atoms: O_8  and  C_9
REMARK    4  A    between atoms: C_9  and  C_10
REMARK    5  A    between atoms: C_10  and  C_11
REMARK    6  A    between atoms: C_15  and  C_16
REMARK                            x       y       z     vdW  Elec       q    Type
REMARK                         _______ _______ _______ _____ _____    ______ ____
ROOT
ATOM      1  C   UNL     1      45.652   5.813  13.503  0.00  0.00    +0.000 C 
ENDROOT
BRANCH   1   2
ATOM      2  O   UNL     1      46.920   5.146  13.364  0.00  0.00    +0.000 OA
BRANCH   2   6
ATOM      3  C   UNL     1      48.531   4.240  17.056  0.00  0.00    +0.000 A 
ATOM      4  C   UNL     1      48.631   5.543  16.566  0.00  0.00    +0.000 A 
ATOM      5  C   UNL     1      48.090   5.845  15.311  0.00  0.00    +0.000 A 
ATOM      6  C   UNL     1      47.468   4.831  14.596  0.00  0.00    +0.000 A 
ATOM      7  N   UNL     1      47.373   3.561  15.047  0.00  0.00    +0.000 NA
ATOM      8  C   UNL     1      47.912   3.289  16.258  0.00  0.00    +0.000 A 
BRANCH   3  10
ATOM      9  N   UNL     1      48.191   3.136  19.184  0.00  0.00    +0.000 N 
ATOM     10  C   UNL     1      49.051   3.819  18.370  0.00  0.00    +0.000 C 
ATOM     11  O   UNL     1      50.210   4.028  18.698  0.00  0.00    +0.000 OA
ATOM     12  H   UNL     1      48.598   2.746  20.032  0.00  0.00    +0.000 HD
ATOM     13  H   UNL     1      47.338   2.721  18.848  0.00  0.00    +0.000 HD
ENDBRANCH   3  10
ENDBRANCH   2   6
ENDBRANCH   1   2
BRANCH   1  14
ATOM     14  C   UNL     1      44.996   5.996  12.132  0.00  0.00    +0.000 C 
BRANCH  14  15
ATOM     15  C   UNL     1      44.711   4.666  11.470  0.00  0.00    +0.000 A 
ATOM     16  C   UNL     1      43.611   3.891  11.850  0.00  0.00    +0.000 A 
ATOM     17  C   UNL     1      43.318   2.702  11.180  0.00  0.00    +0.000 A 
ATOM     18  C   UNL     1      44.095   2.301  10.092  0.00  0.00    +0.000 A 
ATOM     19  C   UNL     1      45.185   3.072   9.657  0.00  0.00    +0.000 A 
ATOM     20  C   UNL     1      45.498   4.234  10.391  0.00  0.00    +0.000 A 
BRANCH  19  21
ATOM     21  C   UNL     1      45.915   2.722   8.423  0.00  0.00    +0.000 A 
ATOM     22  C   UNL     1      46.050   3.602   7.355  0.00  0.00    +0.000 A 
ATOM     23  C   UNL     1      46.667   3.165   6.183  0.00  0.00    +0.000 A 
ATOM     24  C   UNL     1      47.140   1.864   6.109  0.00  0.00    +0.000 A 
ATOM     25  C   UNL     1      46.983   1.050   7.216  0.00  0.00    +0.000 A 
ATOM     26  N   UNL     1      46.393   1.450   8.364  0.00  0.00    +0.000 NA
ENDBRANCH  19  21
ENDBRANCH  14  15
ENDBRANCH   1  14
TORSDOF 6
ENDMDL
MODEL 8
REMARK VINA RESULT:    -6.638      3.301      7.421
REMARK INTER + INTRA:          -9.865
REMARK INTER:                  -8.853
REMARK INTRA:                  -1.012
REMARK UNBOUND:                -0.898
REMARK  Name = 
REMARK  6 active torsions:
REMARK  status: ('A' for Active; 'I' for Inactive)
REMARK    1  A    between atoms: C_2  and  C_4
REMARK    2  A    between atoms: C_7  and  O_8
REMARK    3  A    between atoms: O_8  and  C_9
REMARK    4  A    between atoms: C_9  and  C_10
REMARK    5  A    between atoms: C_10  and  C_11
REMARK    6  A    between atoms: C_15  and  C_16
REMARK                            x       y       z     vdW  Elec       q    Type
REMARK                         _______ _______ _______ _____ _____    ______ ____
ROOT
ATOM      1  C   UNL     1      47.340   4.658  13.671  0.00  0.00    +0.000 C 
ENDROOT
BRANCH   1   2
ATOM      2  O   UNL     1      48.084   5.626  14.433  0.00  0.00    +0.000 OA
BRANCH   2   6
ATOM      3  C   UNL     1      48.141   9.286  12.523  0.00  0.00    +0.000 A 
ATOM      4  C   UNL     1      48.170   8.116  11.763  0.00  0.00    +0.000 A 
ATOM      5  C   UNL     1      48.157   6.877  12.414  0.00  0.00    +0.000 A 
ATOM      6  C   UNL     1      48.115   6.857  13.802  0.00  0.00    +0.000 A 
ATOM      7  N   UNL     1      48.101   7.978  14.555  0.00  0.00    +0.000 NA
ATOM      8  C   UNL     1      48.124   9.166  13.905  0.00  0.00    +0.000 A 
BRANCH   3  10
ATOM      9  N   UNL     1      47.354  11.575  12.558  0.00  0.00    +0.000 N 
ATOM     10  C   UNL     1      48.135  10.640  11.939  0.00  0.00    +0.000 C 
ATOM     11  O   UNL     1      48.830  10.926  10.975  0.00  0.00    +0.000 OA
ATOM     12  H   UNL     1      47.454  12.531  12.221  0.00  0.00    +0.000 HD
ATOM     13  H   UNL     1      46.989  11.450  13.488  0.00  0.00    +0.000 HD
ENDBRANCH   3  10
ENDBRANCH   2   6
ENDBRANCH   1   2
BRANCH   1  14
ATOM     14  C   UNL     1      45.848   4.757  14.001  0.00  0.00    +0.000 C 
BRANCH  14  15
ATOM     15  C   UNL     1      44.997   4.680  12.752  0.00  0.00    +0.000 A 
ATOM     16  C   UNL     1      43.776   5.358  12.668  0.00  0.00    +0.000 A 
ATOM     17  C   UNL     1      43.038   5.339  11.484  0.00  0.00    +0.000 A 
ATOM     18  C   UNL     1      43.536   4.682  10.358  0.00  0.00    +0.000 A 
ATOM     19  C   UNL     1      44.774   4.021  10.393  0.00  0.00    +0.000 A 
ATOM     20  C   UNL     1      45.470   4.001  11.620  0.00  0.00    +0.000 A 
BRANCH  19  21
ATOM     21  C   UNL     1      45.363   3.451   9.165  0.00  0.00    +0.000 A 
ATOM     22  C   UNL     1      45.553   2.085   8.989  0.00  0.00    +0.000 A 
ATOM     23  C   UNL     1      46.207   1.629   7.844  0.00  0.00    +0.000 A 
ATOM     24  C   UNL     1      46.646   2.546   6.902  0.00  0.00    +0.000 A 
ATOM     25  C   UNL     1      46.408   3.888   7.138  0.00  0.00    +0.000 A 
ATOM     26  N   UNL     1      45.775   4.354   8.237  0.00  0.00    +0.000 NA
ENDBRANCH  19  21
ENDBRANCH  14  15
ENDBRANCH   1  14
TORSDOF 6
ENDMDL
MODEL 9
REMARK VINA RESULT:    -6.599      3.118      7.716
REMARK INTER + INTRA:          -9.812
REMARK INTER:                  -8.940
REMARK INTRA:                  -0.873
REMARK UNBOUND:                -0.898
REMARK  Name = 
REMARK  6 active torsions:
REMARK  status: ('A' for Active; 'I' for Inactive)
REMARK    1  A    between atoms: C_2  and  C_4
REMARK    2  A    between atoms: C_7  and  O_8
REMARK    3  A    between atoms: O_8  and  C_9
REMARK    4  A    between atoms: C_9  and  C_10
REMARK    5  A    between atoms: C_10  and  C_11
REMARK    6  A    between atoms: C_15  and  C_16
REMARK                            x       y       z     vdW  Elec       q    Type
REMARK                         _______ _______ _______ _____ _____    ______ ____
ROOT
ATOM      1  C   UNL     1      48.470   8.468  13.624  0.00  0.00    +0.000 C 
ENDROOT
BRANCH   1   2
ATOM      2  O   UNL     1      49.441   7.451  13.929  0.00  0.00    +0.000 OA
BRANCH   2   6
ATOM      3  C   UNL     1      47.990   4.791  16.733  0.00  0.00    +0.000 A 
ATOM      4  C   UNL     1      48.953   5.728  17.111  0.00  0.00    +0.000 A 
ATOM      5  C   UNL     1      49.447   6.624  16.156  0.00  0.00    +0.000 A 
ATOM      6  C   UNL     1      48.958   6.548  14.860  0.00  0.00    +0.000 A 
ATOM      7  N   UNL     1      48.036   5.640  14.472  0.00  0.00    +0.000 NA
ATOM      8  C   UNL     1      47.580   4.776  15.409  0.00  0.00    +0.000 A 
BRANCH   3  10
ATOM      9  N   UNL     1      47.875   3.803  18.940  0.00  0.00    +0.000 N 
ATOM     10  C   UNL     1      47.392   3.814  17.662  0.00  0.00    +0.000 C 
ATOM     11  O   UNL     1      46.475   3.081  17.320  0.00  0.00    +0.000 OA
ATOM     12  H   UNL     1      47.372   3.212  19.600  0.00  0.00    +0.000 HD
ATOM     13  H   UNL     1      48.425   4.555  19.321  0.00  0.00    +0.000 HD
ENDBRANCH   3  10
ENDBRANCH   2   6
ENDBRANCH   1   2
BRANCH   1  14
ATOM     14  C   UNL     1      48.090   8.411  12.141  0.00  0.00    +0.000 C 
BRANCH  14  15
ATOM     15  C   UNL     1      46.750   7.740  11.936  0.00  0.00    +0.000 A 
ATOM     16  C   UNL     1      45.567   8.335  12.387  0.00  0.00    +0.000 A 
ATOM     17  C   UNL     1      44.332   7.741  12.125  0.00  0.00    +0.000 A 
ATOM     18  C   UNL     1      44.264   6.569  11.369  0.00  0.00    +0.000 A 
ATOM     19  C   UNL     1      45.427   5.963  10.868  0.00  0.00    +0.000 A 
ATOM     20  C   UNL     1      46.666   6.548  11.201  0.00  0.00    +0.000 A 
BRANCH  19  21
ATOM     21  C   UNL     1      45.343   4.809   9.951  0.00  0.00    +0.000 A 
ATOM     22  C   UNL     1      44.793   3.589  10.328  0.00  0.00    +0.000 A 
ATOM     23  C   UNL     1      44.839   2.515   9.439  0.00  0.00    +0.000 A 
ATOM     24  C   UNL     1      45.426   2.687   8.195  0.00  0.00    +0.000 A 
ATOM     25  C   UNL     1      45.940   3.933   7.885  0.00  0.00    +0.000 A 
ATOM     26  N   UNL     1      45.904   4.990   8.725  0.00  0.00    +0.000 NA
ENDBRANCH  19  21
ENDBRANCH  14  15
ENDBRANCH   1  14
TORSDOF 6
ENDMDL
