MODEL 1
REMARK VINA RESULT:    -8.229      0.000      0.000
REMARK INTER + INTRA:         -11.168
REMARK INTER:                 -10.634
REMARK INTRA:                  -0.534
REMARK UNBOUND:                -0.534
REMARK  Name = 
REMARK  5 active torsions:
REMARK  status: ('A' for Active; 'I' for Inactive)
REMARK    1  A    between atoms: C_4  and  O_5
REMARK    2  A    between atoms: O_5  and  C_6
REMARK    3  A    between atoms: C_6  and  C_7
REMARK    4  A    between atoms: C_11  and  C_12
REMARK    5  A    between atoms: C_18  and  C_19
REMARK                            x       y       z     vdW  Elec       q    Type
REMARK                         _______ _______ _______ _____ _____    ______ ____
ROOT
ATOM      1  F   UNL     1      47.334   3.205  14.420  0.00  0.00    +0.000 F 
ATOM      2  C   UNL     1      46.767   4.080  13.576  0.00  0.00    +0.000 A 
ATOM      3  C   UNL     1      45.605   3.715  12.906  0.00  0.00    +0.000 A 
ATOM      4  C   UNL     1      44.988   4.625  12.052  0.00  0.00    +0.000 A 
ATOM      5  C   UNL     1      45.584   5.876  11.849  0.00  0.00    +0.000 A 
ATOM      6  C   UNL     1      46.759   6.260  12.538  0.00  0.00    +0.000 A 
ATOM      7  C   UNL     1      47.342   5.339  13.412  0.00  0.00    +0.000 A 
ENDROOT
BRANCH   6   8
ATOM      8  C   UNL     1      47.289   7.672  12.342  0.00  0.00    +0.000 C 
ATOM      9  C   UNL     1      48.755   7.763  11.876  0.00  0.00    +0.000 C 
ATOM     10  C   UNL     1      49.768   8.162  12.948  0.00  0.00    +0.000 C 
ATOM     11  N   UNL     1      49.288   9.251  13.788  0.00  0.00    +0.000 NA
ATOM     12  C   UNL     1      48.087   8.828  14.503  0.00  0.00    +0.000 C 
ATOM     13  C   UNL     1      46.936   8.581  13.536  0.00  0.00    +0.000 C 
ATOM     14  H   UNL     1      49.076  10.067  13.212  0.00  0.00    +0.000 HD
ENDBRANCH   6   8
BRANCH   4  15
ATOM     15  O   UNL     1      43.821   4.203  11.476  0.00  0.00    +0.000 OA
BRANCH  15  16
ATOM     16  C   UNL     1      43.885   2.950  10.787  0.00  0.00    +0.000 C 
BRANCH  16  17
ATOM     17  C   UNL     1      44.731   3.065   9.545  0.00  0.00    +0.000 A 
ATOM     18  C   UNL     1      44.820   4.283   8.878  0.00  0.00    +0.000 A 
ATOM     19  N   UNL     1      45.565   4.494   7.770  0.00  0.00    +0.000 NA
ATOM     20  C   UNL     1      46.268   3.441   7.296  0.00  0.00    +0.000 A 
ATOM     21  C   UNL     1      46.271   2.186   7.887  0.00  0.00    +0.000 A 
ATOM     22  C   UNL     1      45.492   2.006   9.039  0.00  0.00    +0.000 A 
BRANCH  21  23
ATOM     23  C   UNL     1      47.081   1.070   7.303  0.00  0.00    +0.000 C 
ATOM     24  F   UNL     1      48.420   1.320   7.282  0.00  0.00    +0.000 F 
ATOM     25  F   UNL     1      46.933  -0.096   7.992  0.00  0.00    +0.000 F 
ATOM     26  F   UNL     1      46.736   0.789   6.017  0.00  0.00    +0.000 F 
ENDBRANCH  21  23
ENDBRANCH  16  17
ENDBRANCH  15  16
ENDBRANCH   4  15
TORSDOF 5
ENDMDL
MODEL 2
REMARK VINA RESULT:    -7.412      1.773      2.446
REMARK INTER + INTRA:         -10.113
REMARK INTER:                  -9.769
REMARK INTRA:                  -0.343
REMARK UNBOUND:                -0.534
REMARK  Name = 
REMARK  5 active torsions:
REMARK  status: ('A' for Active; 'I' for Inactive)
REMARK    1  A    between atoms: C_4  and  O_5
REMARK    2  A    between atoms: O_5  and  C_6
REMARK    3  A    between atoms: C_6  and  C_7
REMARK    4  A    between atoms: C_11  and  C_12
REMARK    5  A    between atoms: C_18  and  C_19
REMARK                            x       y       z     vdW  Elec       q    Type
REMARK                         _______ _______ _______ _____ _____    ______ ____
ROOT
ATOM      1  F   UNL     1      43.496   8.379  11.038  0.00  0.00    +0.000 F 
ATOM      2  C   UNL     1      44.337   7.473  11.561  0.00  0.00    +0.000 A 
ATOM      3  C   UNL     1      44.027   6.123  11.454  0.00  0.00    +0.000 A 
ATOM      4  C   UNL     1      44.906   5.172  11.964  0.00  0.00    +0.000 A 
ATOM      5  C   UNL     1      46.066   5.604  12.622  0.00  0.00    +0.000 A 
ATOM      6  C   UNL     1      46.395   6.976  12.722  0.00  0.00    +0.000 A 
ATOM      7  C   UNL     1      45.509   7.909  12.175  0.00  0.00    +0.000 A 
ENDROOT
BRANCH   6   8
ATOM      8  C   UNL     1      47.721   7.362  13.360  0.00  0.00    +0.000 C 
ATOM      9  C   UNL     1      47.868   8.855  13.716  0.00  0.00    +0.000 C 
ATOM     10  C   UNL     1      48.751   9.676  12.778  0.00  0.00    +0.000 C 
ATOM     11  N   UNL     1      49.975   8.975  12.413  0.00  0.00    +0.000 NA
ATOM     12  C   UNL     1      49.643   7.752  11.689  0.00  0.00    +0.000 C 
ATOM     13  C   UNL     1      48.915   6.764  12.591  0.00  0.00    +0.000 C 
ATOM     14  H   UNL     1      50.508   8.744  13.253  0.00  0.00    +0.000 HD
ENDBRANCH   6   8
BRANCH   4  15
ATOM     15  O   UNL     1      44.550   3.866  11.768  0.00  0.00    +0.000 OA
BRANCH  15  16
ATOM     16  C   UNL     1      43.892   3.579  10.530  0.00  0.00    +0.000 C 
BRANCH  16  17
ATOM     17  C   UNL     1      44.888   3.489   9.403  0.00  0.00    +0.000 A 
ATOM     18  C   UNL     1      45.377   4.653   8.815  0.00  0.00    +0.000 A 
ATOM     19  N   UNL     1      46.285   4.679   7.815  0.00  0.00    +0.000 NA
ATOM     20  C   UNL     1      46.740   3.486   7.371  0.00  0.00    +0.000 A 
ATOM     21  C   UNL     1      46.339   2.264   7.890  0.00  0.00    +0.000 A 
ATOM     22  C   UNL     1      45.402   2.276   8.933  0.00  0.00    +0.000 A 
BRANCH  21  23
ATOM     23  C   UNL     1      46.895   0.985   7.347  0.00  0.00    +0.000 C 
ATOM     24  F   UNL     1      46.319  -0.130   7.876  0.00  0.00    +0.000 F 
ATOM     25  F   UNL     1      46.735   0.879   5.998  0.00  0.00    +0.000 F 
ATOM     26  F   UNL     1      48.231   0.856   7.574  0.00  0.00    +0.000 F 
ENDBRANCH  21  23
ENDBRANCH  16  17
ENDBRANCH  15  16
ENDBRANCH   4  15
TORSDOF 5
ENDMDL
MODEL 3
REMARK VINA RESULT:    -7.321      3.036      7.142
REMARK INTER + INTRA:          -9.995
REMARK INTER:                  -9.115
REMARK INTRA:                  -0.880
REMARK UNBOUND:                -0.534
REMARK  Name = 
REMARK  5 active torsions:
REMARK  status: ('A' for Active; 'I' for Inactive)
REMARK    1  A    between atoms: C_4  and  O_5
REMARK    2  A    between atoms: O_5  and  C_6
REMARK    3  A    between atoms: C_6  and  C_7
REMARK    4  A    between atoms: C_11  and  C_12
REMARK    5  A    between atoms: C_18  and  C_19
REMARK                            x       y       z     vdW  Elec       q    Type
REMARK                         _______ _______ _______ _____ _____    ______ ____
ROOT
ATOM      1  F   UNL     1      43.718   2.628  12.377  0.00  0.00    +0.000 F 
ATOM      2  C   UNL     1      44.293   3.276  11.352  0.00  0.00    +0.000 A 
ATOM      3  C   UNL     1      44.696   4.594  11.528  0.00  0.00    +0.000 A 
ATOM      4  C   UNL     1      45.324   5.268  10.485  0.00  0.00    +0.000 A 
ATOM      5  C   UNL     1      45.490   4.613   9.258  0.00  0.00    +0.000 A 
ATOM      6  C   UNL     1      45.095   3.266   9.075  0.00  0.00    +0.000 A 
ATOM      7  C   UNL     1      44.494   2.603  10.149  0.00  0.00    +0.000 A 
ENDROOT
BRANCH   6   8
ATOM      8  C   UNL     1      45.401   2.591   7.746  0.00  0.00    +0.000 C 
ATOM      9  C   UNL     1      45.823   1.112   7.844  0.00  0.00    +0.000 C 
ATOM     10  C   UNL     1      47.314   0.834   7.659  0.00  0.00    +0.000 C 
ATOM     11  N   UNL     1      47.889   1.599   6.561  0.00  0.00    +0.000 NA
ATOM     12  C   UNL     1      47.775   3.027   6.843  0.00  0.00    +0.000 C 
ATOM     13  C   UNL     1      46.316   3.464   6.865  0.00  0.00    +0.000 C 
ATOM     14  H   UNL     1      47.400   1.381   5.691  0.00  0.00    +0.000 HD
ENDBRANCH   6   8
BRANCH   4  15
ATOM     15  O   UNL     1      45.736   6.542  10.761  0.00  0.00    +0.000 OA
BRANCH  15  16
ATOM     16  C   UNL     1      45.784   6.894  12.148  0.00  0.00    +0.000 C 
BRANCH  16  17
ATOM     17  C   UNL     1      47.209   7.060  12.608  0.00  0.00    +0.000 A 
ATOM     18  C   UNL     1      47.586   6.607  13.870  0.00  0.00    +0.000 A 
ATOM     19  N   UNL     1      48.840   6.690  14.368  0.00  0.00    +0.000 NA
ATOM     20  C   UNL     1      49.778   7.249  13.571  0.00  0.00    +0.000 A 
ATOM     21  C   UNL     1      49.524   7.719  12.291  0.00  0.00    +0.000 A 
ATOM     22  C   UNL     1      48.213   7.609  11.805  0.00  0.00    +0.000 A 
BRANCH  21  23
ATOM     23  C   UNL     1      50.620   8.322  11.468  0.00  0.00    +0.000 C 
ATOM     24  F   UNL     1      50.271   9.492  10.865  0.00  0.00    +0.000 F 
ATOM     25  F   UNL     1      51.730   8.603  12.206  0.00  0.00    +0.000 F 
ATOM     26  F   UNL     1      51.036   7.498  10.467  0.00  0.00    +0.000 F 
ENDBRANCH  21  23
ENDBRANCH  16  17
ENDBRANCH  15  16
ENDBRANCH   4  15
TORSDOF 5
ENDMDL
MODEL 4
REMARK VINA RESULT:    -7.309      2.877      3.857
REMARK INTER + INTRA:          -9.979
REMARK INTER:                  -9.152
REMARK INTRA:                  -0.828
REMARK UNBOUND:                -0.534
REMARK  Name = 
REMARK  5 active torsions:
REMARK  status: ('A' for Active; 'I' for Inactive)
REMARK    1  A    between atoms: C_4  and  O_5
REMARK    2  A    between atoms: O_5  and  C_6
REMARK    3  A    between atoms: C_6  and  C_7
REMARK    4  A    between atoms: C_11  and  C_12
REMARK    5  A    between atoms: C_18  and  C_19
REMARK                            x       y       z     vdW  Elec       q    Type
REMARK                         _______ _______ _______ _____ _____    ______ ____
ROOT
ATOM      1  F   UNL     1      48.368   7.911  12.067  0.00  0.00    +0.000 F 
ATOM      2  C   UNL     1      47.753   6.999  12.835  0.00  0.00    +0.000 A 
ATOM      3  C   UNL     1      46.483   6.562  12.478  0.00  0.00    +0.000 A 
ATOM      4  C   UNL     1      45.846   5.592  13.247  0.00  0.00    +0.000 A 
ATOM      5  C   UNL     1      46.485   5.114  14.399  0.00  0.00    +0.000 A 
ATOM      6  C   UNL     1      47.784   5.543  14.761  0.00  0.00    +0.000 A 
ATOM      7  C   UNL     1      48.413   6.496  13.954  0.00  0.00    +0.000 A 
ENDROOT
BRANCH   6   8
ATOM      8  C   UNL     1      48.453   4.902  15.967  0.00  0.00    +0.000 C 
ATOM      9  C   UNL     1      48.036   3.446  16.251  0.00  0.00    +0.000 C 
ATOM     10  C   UNL     1      47.071   3.247  17.419  0.00  0.00    +0.000 C 
ATOM     11  N   UNL     1      47.428   4.055  18.577  0.00  0.00    +0.000 NA
ATOM     12  C   UNL     1      47.358   5.471  18.230  0.00  0.00    +0.000 C 
ATOM     13  C   UNL     1      48.417   5.832  17.196  0.00  0.00    +0.000 C 
ATOM     14  H   UNL     1      48.373   3.822  18.886  0.00  0.00    +0.000 HD
ENDBRANCH   6   8
BRANCH   4  15
ATOM     15  O   UNL     1      44.623   5.181  12.795  0.00  0.00    +0.000 OA
BRANCH  15  16
ATOM     16  C   UNL     1      44.307   5.536  11.445  0.00  0.00    +0.000 C 
BRANCH  16  17
ATOM     17  C   UNL     1      44.536   4.370  10.518  0.00  0.00    +0.000 A 
ATOM     18  C   UNL     1      43.839   3.180  10.717  0.00  0.00    +0.000 A 
ATOM     19  N   UNL     1      43.957   2.086   9.933  0.00  0.00    +0.000 NA
ATOM     20  C   UNL     1      44.811   2.172   8.888  0.00  0.00    +0.000 A 
ATOM     21  C   UNL     1      45.545   3.309   8.581  0.00  0.00    +0.000 A 
ATOM     22  C   UNL     1      45.390   4.428   9.412  0.00  0.00    +0.000 A 
BRANCH  21  23
ATOM     23  C   UNL     1      46.466   3.327   7.401  0.00  0.00    +0.000 C 
ATOM     24  F   UNL     1      45.827   3.181   6.207  0.00  0.00    +0.000 F 
ATOM     25  F   UNL     1      47.167   4.491   7.306  0.00  0.00    +0.000 F 
ATOM     26  F   UNL     1      47.397   2.334   7.448  0.00  0.00    +0.000 F 
ENDBRANCH  21  23
ENDBRANCH  16  17
ENDBRANCH  15  16
ENDBRANCH   4  15
TORSDOF 5
ENDMDL
MODEL 5
REMARK VINA RESULT:    -7.256      4.429      8.067
REMARK INTER + INTRA:          -9.911
REMARK INTER:                  -9.065
REMARK INTRA:                  -0.846
REMARK UNBOUND:                -0.534
REMARK  Name = 
REMARK  5 active torsions:
REMARK  status: ('A' for Active; 'I' for Inactive)
REMARK    1  A    between atoms: C_4  and  O_5
REMARK    2  A    between atoms: O_5  and  C_6
REMARK    3  A    between atoms: C_6  and  C_7
REMARK    4  A    between atoms: C_11  and  C_12
REMARK    5  A    between atoms: C_18  and  C_19
REMARK                            x       y       z     vdW  Elec       q    Type
REMARK                         _______ _______ _______ _____ _____    ______ ____
ROOT
ATOM      1  F   UNL     1      46.141   9.202  11.842  0.00  0.00    +0.000 F 
ATOM      2  C   UNL     1      46.429   8.021  12.410  0.00  0.00    +0.000 A 
ATOM      3  C   UNL     1      47.684   7.832  12.976  0.00  0.00    +0.000 A 
ATOM      4  C   UNL     1      47.984   6.624  13.599  0.00  0.00    +0.000 A 
ATOM      5  C   UNL     1      47.026   5.602  13.594  0.00  0.00    +0.000 A 
ATOM      6  C   UNL     1      45.741   5.792  13.031  0.00  0.00    +0.000 A 
ATOM      7  C   UNL     1      45.455   7.025  12.439  0.00  0.00    +0.000 A 
ENDROOT
BRANCH   6   8
ATOM      8  C   UNL     1      44.719   4.671  13.155  0.00  0.00    +0.000 C 
ATOM      9  C   UNL     1      45.043   3.398  12.349  0.00  0.00    +0.000 C 
ATOM     10  C   UNL     1      44.233   3.200  11.069  0.00  0.00    +0.000 C 
ATOM     11  N   UNL     1      42.821   3.508  11.251  0.00  0.00    +0.000 NA
ATOM     12  C   UNL     1      42.668   4.914  11.614  0.00  0.00    +0.000 C 
ATOM     13  C   UNL     1      43.280   5.195  12.980  0.00  0.00    +0.000 C 
ATOM     14  H   UNL     1      42.428   2.918  11.987  0.00  0.00    +0.000 HD
ENDBRANCH   6   8
BRANCH   4  15
ATOM     15  O   UNL     1      49.221   6.543  14.176  0.00  0.00    +0.000 OA
BRANCH  15  16
ATOM     16  C   UNL     1      49.417   7.348  15.343  0.00  0.00    +0.000 C 
BRANCH  16  17
ATOM     17  C   UNL     1      48.900   6.645  16.572  0.00  0.00    +0.000 A 
ATOM     18  C   UNL     1      48.495   7.389  17.677  0.00  0.00    +0.000 A 
ATOM     19  N   UNL     1      48.000   6.855  18.816  0.00  0.00    +0.000 NA
ATOM     20  C   UNL     1      47.894   5.508  18.865  0.00  0.00    +0.000 A 
ATOM     21  C   UNL     1      48.250   4.667  17.821  0.00  0.00    +0.000 A 
ATOM     22  C   UNL     1      48.752   5.256  16.652  0.00  0.00    +0.000 A 
BRANCH  21  23
ATOM     23  C   UNL     1      48.098   3.183  17.951  0.00  0.00    +0.000 C 
ATOM     24  F   UNL     1      48.950   2.475  17.159  0.00  0.00    +0.000 F 
ATOM     25  F   UNL     1      48.324   2.747  19.221  0.00  0.00    +0.000 F 
ATOM     26  F   UNL     1      46.847   2.755  17.627  0.00  0.00    +0.000 F 
ENDBRANCH  21  23
ENDBRANCH  16  17
ENDBRANCH  15  16
ENDBRANCH   4  15
TORSDOF 5
ENDMDL
MODEL 6
REMARK VINA RESULT:    -7.228      3.488      4.753
REMARK INTER + INTRA:          -9.875
REMARK INTER:                  -9.094
REMARK INTRA:                  -0.781
REMARK UNBOUND:                -0.534
REMARK  Name = 
REMARK  5 active torsions:
REMARK  status: ('A' for Active; 'I' for Inactive)
REMARK    1  A    between atoms: C_4  and  O_5
REMARK    2  A    between atoms: O_5  and  C_6
REMARK    3  A    between atoms: C_6  and  C_7
REMARK    4  A    between atoms: C_11  and  C_12
REMARK    5  A    between atoms: C_18  and  C_19
REMARK                            x       y       z     vdW  Elec       q    Type
REMARK                         _______ _______ _______ _____ _____    ______ ____
ROOT
ATOM      1  F   UNL     1      50.537   7.836  15.059  0.00  0.00    +0.000 F 
ATOM      2  C   UNL     1      49.465   7.054  14.862  0.00  0.00    +0.000 A 
ATOM      3  C   UNL     1      48.842   7.063  13.620  0.00  0.00    +0.000 A 
ATOM      4  C   UNL     1      47.749   6.232  13.390  0.00  0.00    +0.000 A 
ATOM      5  C   UNL     1      47.269   5.439  14.440  0.00  0.00    +0.000 A 
ATOM      6  C   UNL     1      47.906   5.413  15.704  0.00  0.00    +0.000 A 
ATOM      7  C   UNL     1      49.020   6.235  15.898  0.00  0.00    +0.000 A 
ENDROOT
BRANCH   6   8
ATOM      8  C   UNL     1      47.388   4.450  16.761  0.00  0.00    +0.000 C 
ATOM      9  C   UNL     1      47.276   5.035  18.183  0.00  0.00    +0.000 C 
ATOM     10  C   UNL     1      48.365   4.604  19.165  0.00  0.00    +0.000 C 
ATOM     11  N   UNL     1      48.663   3.181  19.073  0.00  0.00    +0.000 NA
ATOM     12  C   UNL     1      49.173   2.871  17.741  0.00  0.00    +0.000 C 
ATOM     13  C   UNL     1      48.100   3.085  16.682  0.00  0.00    +0.000 C 
ATOM     14  H   UNL     1      47.818   2.636  19.254  0.00  0.00    +0.000 HD
ENDBRANCH   6   8
BRANCH   4  15
ATOM     15  O   UNL     1      47.231   6.265  12.125  0.00  0.00    +0.000 OA
BRANCH  15  16
ATOM     16  C   UNL     1      45.821   6.493  12.036  0.00  0.00    +0.000 C 
BRANCH  16  17
ATOM     17  C   UNL     1      45.096   5.225  11.665  0.00  0.00    +0.000 A 
ATOM     18  C   UNL     1      44.065   4.754  12.474  0.00  0.00    +0.000 A 
ATOM     19  N   UNL     1      43.343   3.641  12.219  0.00  0.00    +0.000 NA
ATOM     20  C   UNL     1      43.653   2.955  11.097  0.00  0.00    +0.000 A 
ATOM     21  C   UNL     1      44.647   3.336  10.207  0.00  0.00    +0.000 A 
ATOM     22  C   UNL     1      45.371   4.501  10.500  0.00  0.00    +0.000 A 
BRANCH  21  23
ATOM     23  C   UNL     1      44.927   2.524   8.982  0.00  0.00    +0.000 C 
ATOM     24  F   UNL     1      46.255   2.346   8.735  0.00  0.00    +0.000 F 
ATOM     25  F   UNL     1      44.393   1.273   9.054  0.00  0.00    +0.000 F 
ATOM     26  F   UNL     1      44.412   3.084   7.853  0.00  0.00    +0.000 F 
ENDBRANCH  21  23
ENDBRANCH  16  17
ENDBRANCH  15  16
ENDBRANCH   4  15
TORSDOF 5
ENDMDL
MODEL 7
REMARK VINA RESULT:    -7.094      2.639      3.767
REMARK INTER + INTRA:          -9.702
REMARK INTER:                  -8.925
REMARK INTRA:                  -0.777
REMARK UNBOUND:                -0.534
REMARK  Name = 
REMARK  5 active torsions:
REMARK  status: ('A' for Active; 'I' for Inactive)
REMARK    1  A    between atoms: C_4  and  O_5
REMARK    2  A    between atoms: O_5  and  C_6
REMARK    3  A    between atoms: C_6  and  C_7
REMARK    4  A    between atoms: C_11  and  C_12
REMARK    5  A    between atoms: C_18  and  C_19
REMARK                            x       y       z     vdW  Elec       q    Type
REMARK                         _______ _______ _______ _____ _____    ______ ____
ROOT
ATOM      1  F   UNL     1      46.354  11.262  11.857  0.00  0.00    +0.000 F 
ATOM      2  C   UNL     1      46.474   9.929  11.958  0.00  0.00    +0.000 A 
ATOM      3  C   UNL     1      45.347   9.135  11.783  0.00  0.00    +0.000 A 
ATOM      4  C   UNL     1      45.463   7.749  11.852  0.00  0.00    +0.000 A 
ATOM      5  C   UNL     1      46.712   7.188  12.148  0.00  0.00    +0.000 A 
ATOM      6  C   UNL     1      47.867   7.989  12.313  0.00  0.00    +0.000 A 
ATOM      7  C   UNL     1      47.728   9.376  12.209  0.00  0.00    +0.000 A 
ENDROOT
BRANCH   6   8
ATOM      8  C   UNL     1      49.206   7.301  12.531  0.00  0.00    +0.000 C 
ATOM      9  C   UNL     1      49.763   7.389  13.965  0.00  0.00    +0.000 C 
ATOM     10  C   UNL     1      50.904   8.383  14.174  0.00  0.00    +0.000 C 
ATOM     11  N   UNL     1      51.888   8.332  13.101  0.00  0.00    +0.000 NA
ATOM     12  C   UNL     1      51.257   8.699  11.837  0.00  0.00    +0.000 C 
ATOM     13  C   UNL     1      50.216   7.665  11.426  0.00  0.00    +0.000 C 
ATOM     14  H   UNL     1      52.277   7.390  13.030  0.00  0.00    +0.000 HD
ENDBRANCH   6   8
BRANCH   4  15
ATOM     15  O   UNL     1      44.317   7.043  11.616  0.00  0.00    +0.000 OA
BRANCH  15  16
ATOM     16  C   UNL     1      44.196   5.800  12.315  0.00  0.00    +0.000 C 
BRANCH  16  17
ATOM     17  C   UNL     1      44.275   4.638  11.359  0.00  0.00    +0.000 A 
ATOM     18  C   UNL     1      43.529   3.487  11.604  0.00  0.00    +0.000 A 
ATOM     19  N   UNL     1      43.516   2.402  10.800  0.00  0.00    +0.000 NA
ATOM     20  C   UNL     1      44.280   2.456   9.685  0.00  0.00    +0.000 A 
ATOM     21  C   UNL     1      45.050   3.554   9.329  0.00  0.00    +0.000 A 
ATOM     22  C   UNL     1      45.033   4.666  10.184  0.00  0.00    +0.000 A 
BRANCH  21  23
ATOM     23  C   UNL     1      45.865   3.539   8.074  0.00  0.00    +0.000 C 
ATOM     24  F   UNL     1      46.712   2.475   7.986  0.00  0.00    +0.000 F 
ATOM     25  F   UNL     1      45.094   3.492   6.953  0.00  0.00    +0.000 F 
ATOM     26  F   UNL     1      46.646   4.647   7.944  0.00  0.00    +0.000 F 
ENDBRANCH  21  23
ENDBRANCH  16  17
ENDBRANCH  15  16
ENDBRANCH   4  15
TORSDOF 5
ENDMDL
MODEL 8
REMARK VINA RESULT:    -6.713      4.396      8.824
REMARK INTER + INTRA:          -9.209
REMARK INTER:                  -8.482
REMARK INTRA:                  -0.727
REMARK UNBOUND:                -0.534
REMARK  Name = 
REMARK  5 active torsions:
REMARK  status: ('A' for Active; 'I' for Inactive)
REMARK    1  A    between atoms: C_4  and  O_5
REMARK    2  A    between atoms: O_5  and  C_6
REMARK    3  A    between atoms: C_6  and  C_7
REMARK    4  A    between atoms: C_11  and  C_12
REMARK    5  A    between atoms: C_18  and  C_19
REMARK                            x       y       z     vdW  Elec       q    Type
REMARK                         _______ _______ _______ _____ _____    ______ ____
ROOT
ATOM      1  F   UNL     1      47.545   8.815  11.764  0.00  0.00    +0.000 F 
ATOM      2  C   UNL     1      47.113   7.596  12.123  0.00  0.00    +0.000 A 
ATOM      3  C   UNL     1      47.784   6.911  13.128  0.00  0.00    +0.000 A 
ATOM      4  C   UNL     1      47.326   5.661  13.534  0.00  0.00    +0.000 A 
ATOM      5  C   UNL     1      46.224   5.097  12.878  0.00  0.00    +0.000 A 
ATOM      6  C   UNL     1      45.527   5.795  11.863  0.00  0.00    +0.000 A 
ATOM      7  C   UNL     1      45.989   7.062  11.496  0.00  0.00    +0.000 A 
ENDROOT
BRANCH   6   8
ATOM      8  C   UNL     1      44.278   5.161  11.269  0.00  0.00    +0.000 C 
ATOM      9  C   UNL     1      43.387   4.403  12.273  0.00  0.00    +0.000 C 
ATOM     10  C   UNL     1      43.474   2.879  12.219  0.00  0.00    +0.000 C 
ATOM     11  N   UNL     1      43.484   2.372  10.854  0.00  0.00    +0.000 NA
ATOM     12  C   UNL     1      44.664   2.870  10.153  0.00  0.00    +0.000 C 
ATOM     13  C   UNL     1      44.597   4.382   9.978  0.00  0.00    +0.000 C 
ATOM     14  H   UNL     1      42.640   2.673  10.364  0.00  0.00    +0.000 HD
ENDBRANCH   6   8
BRANCH   4  15
ATOM     15  O   UNL     1      48.012   5.081  14.565  0.00  0.00    +0.000 OA
BRANCH  15  16
ATOM     16  C   UNL     1      47.266   4.161  15.369  0.00  0.00    +0.000 C 
BRANCH  16  17
ATOM     17  C   UNL     1      47.681   4.255  16.814  0.00  0.00    +0.000 A 
ATOM     18  C   UNL     1      48.112   3.115  17.487  0.00  0.00    +0.000 A 
ATOM     19  N   UNL     1      48.523   3.097  18.774  0.00  0.00    +0.000 NA
ATOM     20  C   UNL     1      48.513   4.277  19.435  0.00  0.00    +0.000 A 
ATOM     21  C   UNL     1      48.122   5.479  18.865  0.00  0.00    +0.000 A 
ATOM     22  C   UNL     1      47.709   5.460  17.525  0.00  0.00    +0.000 A 
BRANCH  21  23
ATOM     23  C   UNL     1      48.144   6.745  19.663  0.00  0.00    +0.000 C 
ATOM     24  F   UNL     1      49.361   7.029  20.204  0.00  0.00    +0.000 F 
ATOM     25  F   UNL     1      47.807   7.835  18.919  0.00  0.00    +0.000 F 
ATOM     26  F   UNL     1      47.270   6.722  20.706  0.00  0.00    +0.000 F 
ENDBRANCH  21  23
ENDBRANCH  16  17
ENDBRANCH  15  16
ENDBRANCH   4  15
TORSDOF 5
ENDMDL
MODEL 9
REMARK VINA RESULT:    -6.587      3.877      5.025
REMARK INTER + INTRA:          -9.046
REMARK INTER:                  -8.315
REMARK INTRA:                  -0.731
REMARK UNBOUND:                -0.534
REMARK  Name = 
REMARK  5 active torsions:
REMARK  status: ('A' for Active; 'I' for Inactive)
REMARK    1  A    between atoms: C_4  and  O_5
REMARK    2  A    between atoms: O_5  and  C_6
REMARK    3  A    between atoms: C_6  and  C_7
REMARK    4  A    between atoms: C_11  and  C_12
REMARK    5  A    between atoms: C_18  and  C_19
REMARK                            x       y       z     vdW  Elec       q    Type
REMARK                         _______ _______ _______ _____ _____    ______ ____
ROOT
ATOM      1  F   UNL     1      46.829   2.444  17.743  0.00  0.00    +0.000 F 
ATOM      2  C   UNL     1      47.338   3.566  17.211  0.00  0.00    +0.000 A 
ATOM      3  C   UNL     1      47.256   3.759  15.838  0.00  0.00    +0.000 A 
ATOM      4  C   UNL     1      47.750   4.934  15.277  0.00  0.00    +0.000 A 
ATOM      5  C   UNL     1      48.367   5.876  16.110  0.00  0.00    +0.000 A 
ATOM      6  C   UNL     1      48.441   5.692  17.511  0.00  0.00    +0.000 A 
ATOM      7  C   UNL     1      47.911   4.518  18.052  0.00  0.00    +0.000 A 
ENDROOT
BRANCH   6   8
ATOM      8  C   UNL     1      49.034   6.806  18.361  0.00  0.00    +0.000 C 
ATOM      9  C   UNL     1      49.176   6.481  19.861  0.00  0.00    +0.000 C 
ATOM     10  C   UNL     1      48.142   7.129  20.781  0.00  0.00    +0.000 C 
ATOM     11  N   UNL     1      47.895   8.524  20.442  0.00  0.00    +0.000 NA
ATOM     12  C   UNL     1      47.348   8.613  19.092  0.00  0.00    +0.000 C 
ATOM     13  C   UNL     1      48.372   8.164  18.057  0.00  0.00    +0.000 C 
ATOM     14  H   UNL     1      48.766   9.055  20.496  0.00  0.00    +0.000 HD
ENDBRANCH   6   8
BRANCH   4  15
ATOM     15  O   UNL     1      47.580   5.066  13.926  0.00  0.00    +0.000 OA
BRANCH  15  16
ATOM     16  C   UNL     1      46.589   6.012  13.513  0.00  0.00    +0.000 C 
BRANCH  16  17
ATOM     17  C   UNL     1      45.576   5.363  12.606  0.00  0.00    +0.000 A 
ATOM     18  C   UNL     1      44.307   5.057  13.091  0.00  0.00    +0.000 A 
ATOM     19  N   UNL     1      43.324   4.494  12.355  0.00  0.00    +0.000 NA
ATOM     20  C   UNL     1      43.608   4.221  11.062  0.00  0.00    +0.000 A 
ATOM     21  C   UNL     1      44.829   4.496  10.464  0.00  0.00    +0.000 A 
ATOM     22  C   UNL     1      45.823   5.088  11.257  0.00  0.00    +0.000 A 
BRANCH  21  23
ATOM     23  C   UNL     1      45.064   4.168   9.023  0.00  0.00    +0.000 C 
ATOM     24  F   UNL     1      45.464   2.883   8.813  0.00  0.00    +0.000 F 
ATOM     25  F   UNL     1      43.947   4.337   8.262  0.00  0.00    +0.000 F 
ATOM     26  F   UNL     1      46.022   4.952   8.457  0.00  0.00    +0.000 F 
ENDBRANCH  21  23
ENDBRANCH  16  17
ENDBRANCH  15  16
ENDBRANCH   4  15
TORSDOF 5
ENDMDL
