MODEL 1
REMARK VINA RESULT:    -8.643      0.000      0.000
REMARK INTER + INTRA:         -11.723
REMARK INTER:                 -11.169
REMARK INTRA:                  -0.554
REMARK UNBOUND:                -0.554
REMARK  Name = 
REMARK  6 active torsions:
REMARK  status: ('A' for Active; 'I' for Inactive)
REMARK    1  A    between atoms: C_1  and  C_2
REMARK    2  A    between atoms: C_5  and  C_6
REMARK    3  A    between atoms: C_10  and  C_11
REMARK    4  A    between atoms: C_11  and  C_12
REMARK    5  A    between atoms: C_12  and  C_13
REMARK    6  A    between atoms: C_16  and  C_17
REMARK                            x       y       z     vdW  Elec       q    Type
REMARK                         _______ _______ _______ _____ _____    ______ ____
ROOT
ATOM      1  C   UNL     1      46.851   5.367  13.781  0.00  0.00    +0.000 A 
ATOM      2  C   UNL     1      47.459   6.379  13.026  0.00  0.00    +0.000 A 
ATOM      3  C   UNL     1      46.908   6.739  11.809  0.00  0.00    +0.000 A 
ATOM      4  N   UNL     1      45.803   6.170  11.287  0.00  0.00    +0.000 NA
ATOM      5  C   UNL     1      45.220   5.176  11.995  0.00  0.00    +0.000 A 
ATOM      6  C   UNL     1      45.706   4.765  13.234  0.00  0.00    +0.000 A 
ENDROOT
BRANCH   1  11
ATOM      7  C   UNL     1      48.939   3.804  18.829  0.00  0.00    +0.000 C 
ATOM      8  C   UNL     1      48.384   4.203  17.507  0.00  0.00    +0.000 A 
ATOM      9  C   UNL     1      47.352   3.531  16.888  0.00  0.00    +0.000 A 
ATOM     10  N   UNL     1      46.835   3.884  15.694  0.00  0.00    +0.000 NA
ATOM     11  C   UNL     1      47.381   4.961  15.096  0.00  0.00    +0.000 A 
ATOM     12  N   UNL     1      48.392   5.686  15.615  0.00  0.00    +0.000 NA
ATOM     13  C   UNL     1      48.868   5.288  16.810  0.00  0.00    +0.000 A 
ENDBRANCH   1  11
BRANCH   5  14
ATOM     14  C   UNL     1      43.954   4.564  11.444  0.00  0.00    +0.000 C 
BRANCH  14  15
ATOM     15  C   UNL     1      43.796   4.783   9.936  0.00  0.00    +0.000 C 
BRANCH  15  16
ATOM     16  C   UNL     1      44.731   3.908   9.144  0.00  0.00    +0.000 A 
ATOM     17  C   UNL     1      44.721   2.521   9.299  0.00  0.00    +0.000 A 
ATOM     18  N   UNL     1      45.546   1.688   8.613  0.00  0.00    +0.000 NA
ATOM     19  C   UNL     1      46.387   2.313   7.742  0.00  0.00    +0.000 A 
ATOM     20  C   UNL     1      46.393   3.688   7.566  0.00  0.00    +0.000 A 
ATOM     21  N   UNL     1      45.567   4.511   8.260  0.00  0.00    +0.000 NA
BRANCH  19  22
ATOM     22  C   UNL     1      47.340   1.470   6.971  0.00  0.00    +0.000 C 
ATOM     23  N   UNL     1      48.447   2.107   6.479  0.00  0.00    +0.000 N 
ATOM     24  O   UNL     1      47.150   0.274   6.779  0.00  0.00    +0.000 OA
ATOM     25  H   UNL     1      48.578   3.099   6.645  0.00  0.00    +0.000 HD
ATOM     26  H   UNL     1      49.117   1.585   5.935  0.00  0.00    +0.000 HD
ENDBRANCH  19  22
ENDBRANCH  15  16
ENDBRANCH  14  15
ENDBRANCH   5  14
TORSDOF 5
ENDMDL
MODEL 2
REMARK VINA RESULT:    -8.271      2.213      4.221
REMARK INTER + INTRA:         -11.242
REMARK INTER:                 -10.512
REMARK INTRA:                  -0.730
REMARK UNBOUND:                -0.554
REMARK  Name = 
REMARK  6 active torsions:
REMARK  status: ('A' for Active; 'I' for Inactive)
REMARK    1  A    between atoms: C_1  and  C_2
REMARK    2  A    between atoms: C_5  and  C_6
REMARK    3  A    between atoms: C_10  and  C_11
REMARK    4  A    between atoms: C_11  and  C_12
REMARK    5  A    between atoms: C_12  and  C_13
REMARK    6  A    between atoms: C_16  and  C_17
REMARK                            x       y       z     vdW  Elec       q    Type
REMARK                         _______ _______ _______ _____ _____    ______ ____
ROOT
ATOM      1  C   UNL     1      46.179   6.178  12.777  0.00  0.00    +0.000 A 
ATOM      2  C   UNL     1      47.122   5.556  13.606  0.00  0.00    +0.000 A 
ATOM      3  C   UNL     1      47.039   4.191  13.819  0.00  0.00    +0.000 A 
ATOM      4  N   UNL     1      46.093   3.401  13.273  0.00  0.00    +0.000 NA
ATOM      5  C   UNL     1      45.164   3.993  12.489  0.00  0.00    +0.000 A 
ATOM      6  C   UNL     1      45.186   5.359  12.215  0.00  0.00    +0.000 A 
ENDROOT
BRANCH   1  11
ATOM      7  C   UNL     1      46.416  11.758  11.735  0.00  0.00    +0.000 C 
ATOM      8  C   UNL     1      46.340  10.297  12.005  0.00  0.00    +0.000 A 
ATOM      9  C   UNL     1      45.176   9.567  11.895  0.00  0.00    +0.000 A 
ATOM     10  N   UNL     1      45.094   8.243  12.131  0.00  0.00    +0.000 NA
ATOM     11  C   UNL     1      46.234   7.624  12.495  0.00  0.00    +0.000 A 
ATOM     12  N   UNL     1      47.423   8.244  12.634  0.00  0.00    +0.000 NA
ATOM     13  C   UNL     1      47.446   9.567  12.383  0.00  0.00    +0.000 A 
ENDBRANCH   1  11
BRANCH   5  14
ATOM     14  C   UNL     1      44.127   3.112  11.832  0.00  0.00    +0.000 C 
BRANCH  14  15
ATOM     15  C   UNL     1      43.695   3.631  10.456  0.00  0.00    +0.000 C 
BRANCH  15  16
ATOM     16  C   UNL     1      44.705   3.297   9.391  0.00  0.00    +0.000 A 
ATOM     17  C   UNL     1      45.224   4.288   8.557  0.00  0.00    +0.000 A 
ATOM     18  N   UNL     1      46.133   4.041   7.579  0.00  0.00    +0.000 NA
ATOM     19  C   UNL     1      46.516   2.736   7.478  0.00  0.00    +0.000 A 
ATOM     20  C   UNL     1      46.021   1.746   8.312  0.00  0.00    +0.000 A 
ATOM     21  N   UNL     1      45.110   2.005   9.284  0.00  0.00    +0.000 NA
BRANCH  19  22
ATOM     22  C   UNL     1      47.490   2.380   6.411  0.00  0.00    +0.000 C 
ATOM     23  N   UNL     1      47.443   3.140   5.274  0.00  0.00    +0.000 N 
ATOM     24  O   UNL     1      48.287   1.457   6.534  0.00  0.00    +0.000 OA
ATOM     25  H   UNL     1      46.769   3.893   5.194  0.00  0.00    +0.000 HD
ATOM     26  H   UNL     1      48.071   2.930   4.513  0.00  0.00    +0.000 HD
ENDBRANCH  19  22
ENDBRANCH  15  16
ENDBRANCH  14  15
ENDBRANCH   5  14
TORSDOF 5
ENDMDL
MODEL 3
REMARK VINA RESULT:    -7.944      2.077      3.411
REMARK INTER + INTRA:         -10.820
REMARK INTER:                 -10.047
REMARK INTRA:                  -0.773
REMARK UNBOUND:                -0.554
REMARK  Name = 
REMARK  6 active torsions:
REMARK  status: ('A' for Active; 'I' for Inactive)
REMARK    1  A    between atoms: C_1  and  C_2
REMARK    2  A    between atoms: C_5  and  C_6
REMARK    3  A    between atoms: C_10  and  C_11
REMARK    4  A    between atoms: C_11  and  C_12
REMARK    5  A    between atoms: C_12  and  C_13
REMARK    6  A    between atoms: C_16  and  C_17
REMARK                            x       y       z     vdW  Elec       q    Type
REMARK                         _______ _______ _______ _____ _____    ______ ____
ROOT
ATOM      1  C   UNL     1      47.444   6.245  12.784  0.00  0.00    +0.000 A 
ATOM      2  C   UNL     1      47.153   5.313  13.790  0.00  0.00    +0.000 A 
ATOM      3  C   UNL     1      45.954   4.624  13.748  0.00  0.00    +0.000 A 
ATOM      4  N   UNL     1      45.024   4.792  12.786  0.00  0.00    +0.000 NA
ATOM      5  C   UNL     1      45.282   5.705  11.822  0.00  0.00    +0.000 A 
ATOM      6  C   UNL     1      46.472   6.429  11.787  0.00  0.00    +0.000 A 
ENDROOT
BRANCH   1  11
ATOM      7  C   UNL     1      52.334   9.137  12.753  0.00  0.00    +0.000 C 
ATOM      8  C   UNL     1      51.051   8.383  12.748  0.00  0.00    +0.000 A 
ATOM      9  C   UNL     1      50.285   8.204  11.616  0.00  0.00    +0.000 A 
ATOM     10  N   UNL     1      49.125   7.518  11.596  0.00  0.00    +0.000 NA
ATOM     11  C   UNL     1      48.716   6.989  12.766  0.00  0.00    +0.000 A 
ATOM     12  N   UNL     1      49.390   7.106  13.928  0.00  0.00    +0.000 NA
ATOM     13  C   UNL     1      50.543   7.800  13.888  0.00  0.00    +0.000 A 
ENDBRANCH   1  11
BRANCH   5  14
ATOM     14  C   UNL     1      44.271   5.867  10.712  0.00  0.00    +0.000 C 
BRANCH  14  15
ATOM     15  C   UNL     1      43.699   4.530  10.230  0.00  0.00    +0.000 C 
BRANCH  15  16
ATOM     16  C   UNL     1      44.667   3.798   9.339  0.00  0.00    +0.000 A 
ATOM     17  C   UNL     1      44.836   2.417   9.443  0.00  0.00    +0.000 A 
ATOM     18  N   UNL     1      45.698   1.710   8.668  0.00  0.00    +0.000 NA
ATOM     19  C   UNL     1      46.388   2.457   7.760  0.00  0.00    +0.000 A 
ATOM     20  C   UNL     1      46.215   3.826   7.635  0.00  0.00    +0.000 A 
ATOM     21  N   UNL     1      45.353   4.523   8.418  0.00  0.00    +0.000 NA
BRANCH  19  22
ATOM     22  C   UNL     1      47.372   1.758   6.890  0.00  0.00    +0.000 C 
ATOM     23  N   UNL     1      48.442   2.503   6.472  0.00  0.00    +0.000 N 
ATOM     24  O   UNL     1      47.236   0.586   6.558  0.00  0.00    +0.000 OA
ATOM     25  H   UNL     1      48.527   3.473   6.754  0.00  0.00    +0.000 HD
ATOM     26  H   UNL     1      49.131   2.082   5.867  0.00  0.00    +0.000 HD
ENDBRANCH  19  22
ENDBRANCH  15  16
ENDBRANCH  14  15
ENDBRANCH   5  14
TORSDOF 5
ENDMDL
MODEL 4
REMARK VINA RESULT:    -7.569      3.521      6.195
REMARK INTER + INTRA:         -10.335
REMARK INTER:                  -9.702
REMARK INTRA:                  -0.633
REMARK UNBOUND:                -0.554
REMARK  Name = 
REMARK  6 active torsions:
REMARK  status: ('A' for Active; 'I' for Inactive)
REMARK    1  A    between atoms: C_1  and  C_2
REMARK    2  A    between atoms: C_5  and  C_6
REMARK    3  A    between atoms: C_10  and  C_11
REMARK    4  A    between atoms: C_11  and  C_12
REMARK    5  A    between atoms: C_12  and  C_13
REMARK    6  A    between atoms: C_16  and  C_17
REMARK                            x       y       z     vdW  Elec       q    Type
REMARK                         _______ _______ _______ _____ _____    ______ ____
ROOT
ATOM      1  C   UNL     1      44.423   8.630  11.414  0.00  0.00    +0.000 A 
ATOM      2  C   UNL     1      45.486   8.890  12.289  0.00  0.00    +0.000 A 
ATOM      3  C   UNL     1      46.133   7.830  12.900  0.00  0.00    +0.000 A 
ATOM      4  N   UNL     1      45.805   6.537  12.708  0.00  0.00    +0.000 NA
ATOM      5  C   UNL     1      44.766   6.274  11.883  0.00  0.00    +0.000 A 
ATOM      6  C   UNL     1      44.072   7.284  11.221  0.00  0.00    +0.000 A 
ENDROOT
BRANCH   1  11
ATOM      7  C   UNL     1      41.661  12.790   8.703  0.00  0.00    +0.000 C 
ATOM      8  C   UNL     1      42.397  11.706   9.410  0.00  0.00    +0.000 A 
ATOM      9  C   UNL     1      43.771  11.665   9.506  0.00  0.00    +0.000 A 
ATOM     10  N   UNL     1      44.450  10.693  10.147  0.00  0.00    +0.000 NA
ATOM     11  C   UNL     1      43.714   9.718  10.717  0.00  0.00    +0.000 A 
ATOM     12  N   UNL     1      42.367   9.665  10.679  0.00  0.00    +0.000 NA
ATOM     13  C   UNL     1      41.742  10.663  10.026  0.00  0.00    +0.000 A 
ENDBRANCH   1  11
BRANCH   5  14
ATOM     14  C   UNL     1      44.419   4.827  11.622  0.00  0.00    +0.000 C 
BRANCH  14  15
ATOM     15  C   UNL     1      43.820   4.604  10.230  0.00  0.00    +0.000 C 
BRANCH  15  16
ATOM     16  C   UNL     1      44.760   3.845   9.332  0.00  0.00    +0.000 A 
ATOM     17  C   UNL     1      44.833   2.452   9.380  0.00  0.00    +0.000 A 
ATOM     18  N   UNL     1      45.666   1.721   8.597  0.00  0.00    +0.000 NA
ATOM     19  C   UNL     1      46.430   2.456   7.739  0.00  0.00    +0.000 A 
ATOM     20  C   UNL     1      46.354   3.838   7.670  0.00  0.00    +0.000 A 
ATOM     21  N   UNL     1      45.519   4.559   8.461  0.00  0.00    +0.000 NA
BRANCH  19  22
ATOM     22  C   UNL     1      47.389   1.728   6.865  0.00  0.00    +0.000 C 
ATOM     23  N   UNL     1      48.410   2.473   6.339  0.00  0.00    +0.000 N 
ATOM     24  O   UNL     1      47.274   0.533   6.620  0.00  0.00    +0.000 OA
ATOM     25  H   UNL     1      48.478   3.462   6.552  0.00  0.00    +0.000 HD
ATOM     26  H   UNL     1      49.079   2.032   5.727  0.00  0.00    +0.000 HD
ENDBRANCH  19  22
ENDBRANCH  15  16
ENDBRANCH  14  15
ENDBRANCH   5  14
TORSDOF 5
ENDMDL
MODEL 5
REMARK VINA RESULT:    -7.199      3.271      4.313
REMARK INTER + INTRA:          -9.858
REMARK INTER:                  -9.192
REMARK INTRA:                  -0.665
REMARK UNBOUND:                -0.554
REMARK  Name = 
REMARK  6 active torsions:
REMARK  status: ('A' for Active; 'I' for Inactive)
REMARK    1  A    between atoms: C_1  and  C_2
REMARK    2  A    between atoms: C_5  and  C_6
REMARK    3  A    between atoms: C_10  and  C_11
REMARK    4  A    between atoms: C_11  and  C_12
REMARK    5  A    between atoms: C_12  and  C_13
REMARK    6  A    between atoms: C_16  and  C_17
REMARK                            x       y       z     vdW  Elec       q    Type
REMARK                         _______ _______ _______ _____ _____    ______ ____
ROOT
ATOM      1  C   UNL     1      47.543   8.018  11.921  0.00  0.00    +0.000 A 
ATOM      2  C   UNL     1      46.680   8.948  12.516  0.00  0.00    +0.000 A 
ATOM      3  C   UNL     1      45.376   8.579  12.797  0.00  0.00    +0.000 A 
ATOM      4  N   UNL     1      44.867   7.359  12.531  0.00  0.00    +0.000 NA
ATOM      5  C   UNL     1      45.682   6.459  11.936  0.00  0.00    +0.000 A 
ATOM      6  C   UNL     1      47.011   6.750  11.633  0.00  0.00    +0.000 A 
ENDROOT
BRANCH   1  11
ATOM      7  C   UNL     1      52.943   9.330  10.740  0.00  0.00    +0.000 C 
ATOM      8  C   UNL     1      51.531   8.972  11.047  0.00  0.00    +0.000 A 
ATOM      9  C   UNL     1      51.062   7.677  11.043  0.00  0.00    +0.000 A 
ATOM     10  N   UNL     1      49.788   7.338  11.325  0.00  0.00    +0.000 NA
ATOM     11  C   UNL     1      48.948   8.349  11.623  0.00  0.00    +0.000 A 
ATOM     12  N   UNL     1      49.305   9.649  11.653  0.00  0.00    +0.000 NA
ATOM     13  C   UNL     1      50.590   9.928  11.365  0.00  0.00    +0.000 A 
ENDBRANCH   1  11
BRANCH   5  14
ATOM     14  C   UNL     1      45.139   5.074  11.677  0.00  0.00    +0.000 C 
BRANCH  14  15
ATOM     15  C   UNL     1      44.431   4.959  10.323  0.00  0.00    +0.000 C 
BRANCH  15  16
ATOM     16  C   UNL     1      45.203   4.095   9.362  0.00  0.00    +0.000 A 
ATOM     17  C   UNL     1      45.145   2.703   9.439  0.00  0.00    +0.000 A 
ATOM     18  N   UNL     1      45.825   1.880   8.601  0.00  0.00    +0.000 NA
ATOM     19  C   UNL     1      46.571   2.521   7.656  0.00  0.00    +0.000 A 
ATOM     20  C   UNL     1      46.622   3.903   7.558  0.00  0.00    +0.000 A 
ATOM     21  N   UNL     1      45.941   4.716   8.405  0.00  0.00    +0.000 NA
BRANCH  19  22
ATOM     22  C   UNL     1      47.366   1.687   6.716  0.00  0.00    +0.000 C 
ATOM     23  N   UNL     1      48.416   2.312   6.097  0.00  0.00    +0.000 N 
ATOM     24  O   UNL     1      47.099   0.511   6.497  0.00  0.00    +0.000 OA
ATOM     25  H   UNL     1      48.611   3.288   6.290  0.00  0.00    +0.000 HD
ATOM     26  H   UNL     1      48.978   1.796   5.437  0.00  0.00    +0.000 HD
ENDBRANCH  19  22
ENDBRANCH  15  16
ENDBRANCH  14  15
ENDBRANCH   5  14
TORSDOF 5
ENDMDL
MODEL 6
REMARK VINA RESULT:    -6.472      4.111      8.701
REMARK INTER + INTRA:          -8.917
REMARK INTER:                  -8.354
REMARK INTRA:                  -0.564
REMARK UNBOUND:                -0.554
REMARK  Name = 
REMARK  6 active torsions:
REMARK  status: ('A' for Active; 'I' for Inactive)
REMARK    1  A    between atoms: C_1  and  C_2
REMARK    2  A    between atoms: C_5  and  C_6
REMARK    3  A    between atoms: C_10  and  C_11
REMARK    4  A    between atoms: C_11  and  C_12
REMARK    5  A    between atoms: C_12  and  C_13
REMARK    6  A    between atoms: C_16  and  C_17
REMARK                            x       y       z     vdW  Elec       q    Type
REMARK                         _______ _______ _______ _____ _____    ______ ____
ROOT
ATOM      1  C   UNL     1      47.191   5.382  13.901  0.00  0.00    +0.000 A 
ATOM      2  C   UNL     1      47.988   6.531  13.978  0.00  0.00    +0.000 A 
ATOM      3  C   UNL     1      48.737   6.760  15.119  0.00  0.00    +0.000 A 
ATOM      4  N   UNL     1      48.753   5.936  16.185  0.00  0.00    +0.000 NA
ATOM      5  C   UNL     1      47.970   4.834  16.133  0.00  0.00    +0.000 A 
ATOM      6  C   UNL     1      47.196   4.527  15.015  0.00  0.00    +0.000 A 
ENDROOT
BRANCH   1  11
ATOM      7  C   UNL     1      44.091   4.248   9.276  0.00  0.00    +0.000 C 
ATOM      8  C   UNL     1      44.899   4.533  10.493  0.00  0.00    +0.000 A 
ATOM      9  C   UNL     1      44.969   3.677  11.570  0.00  0.00    +0.000 A 
ATOM     10  N   UNL     1      45.701   3.919  12.676  0.00  0.00    +0.000 NA
ATOM     11  C   UNL     1      46.392   5.076  12.700  0.00  0.00    +0.000 A 
ATOM     12  N   UNL     1      46.390   5.981  11.701  0.00  0.00    +0.000 NA
ATOM     13  C   UNL     1      45.643   5.686  10.621  0.00  0.00    +0.000 A 
ENDBRANCH   1  11
BRANCH   5  14
ATOM     14  C   UNL     1      48.015   3.878  17.301  0.00  0.00    +0.000 C 
BRANCH  14  15
ATOM     15  C   UNL     1      48.618   2.519  16.931  0.00  0.00    +0.000 C 
BRANCH  15  16
ATOM     16  C   UNL     1      50.068   2.426  17.324  0.00  0.00    +0.000 A 
ATOM     17  C   UNL     1      50.729   3.513  17.899  0.00  0.00    +0.000 A 
ATOM     18  N   UNL     1      52.035   3.484  18.266  0.00  0.00    +0.000 NA
ATOM     19  C   UNL     1      52.661   2.293  18.041  0.00  0.00    +0.000 A 
ATOM     20  C   UNL     1      52.011   1.201  17.488  0.00  0.00    +0.000 A 
ATOM     21  N   UNL     1      50.705   1.244  17.121  0.00  0.00    +0.000 NA
BRANCH  19  22
ATOM     22  C   UNL     1      54.103   2.190  18.393  0.00  0.00    +0.000 C 
ATOM     23  N   UNL     1      54.399   1.453  19.508  0.00  0.00    +0.000 N 
ATOM     24  O   UNL     1      54.979   2.735  17.733  0.00  0.00    +0.000 OA
ATOM     25  H   UNL     1      53.655   1.018  20.042  0.00  0.00    +0.000 HD
ATOM     26  H   UNL     1      55.360   1.364  19.801  0.00  0.00    +0.000 HD
ENDBRANCH  19  22
ENDBRANCH  15  16
ENDBRANCH  14  15
ENDBRANCH   5  14
TORSDOF 5
ENDMDL
MODEL 7
REMARK VINA RESULT:    -6.310      4.307      7.288
REMARK INTER + INTRA:          -8.708
REMARK INTER:                  -8.000
REMARK INTRA:                  -0.708
REMARK UNBOUND:                -0.554
REMARK  Name = 
REMARK  6 active torsions:
REMARK  status: ('A' for Active; 'I' for Inactive)
REMARK    1  A    between atoms: C_1  and  C_2
REMARK    2  A    between atoms: C_5  and  C_6
REMARK    3  A    between atoms: C_10  and  C_11
REMARK    4  A    between atoms: C_11  and  C_12
REMARK    5  A    between atoms: C_12  and  C_13
REMARK    6  A    between atoms: C_16  and  C_17
REMARK                            x       y       z     vdW  Elec       q    Type
REMARK                         _______ _______ _______ _____ _____    ______ ____
ROOT
ATOM      1  C   UNL     1      45.616  10.607  11.795  0.00  0.00    +0.000 A 
ATOM      2  C   UNL     1      46.598  11.558  11.491  0.00  0.00    +0.000 A 
ATOM      3  C   UNL     1      47.903  11.337  11.897  0.00  0.00    +0.000 A 
ATOM      4  N   UNL     1      48.302  10.246  12.581  0.00  0.00    +0.000 NA
ATOM      5  C   UNL     1      47.359   9.331  12.902  0.00  0.00    +0.000 A 
ATOM      6  C   UNL     1      46.027   9.475  12.518  0.00  0.00    +0.000 A 
ENDROOT
BRANCH   1  11
ATOM      7  C   UNL     1      40.209  11.289  10.187  0.00  0.00    +0.000 C 
ATOM      8  C   UNL     1      41.625  11.097  10.604  0.00  0.00    +0.000 A 
ATOM      9  C   UNL     1      42.318   9.923  10.405  0.00  0.00    +0.000 A 
ATOM     10  N   UNL     1      43.602   9.737  10.772  0.00  0.00    +0.000 NA
ATOM     11  C   UNL     1      44.216  10.779  11.366  0.00  0.00    +0.000 A 
ATOM     12  N   UNL     1      43.628  11.968  11.608  0.00  0.00    +0.000 NA
ATOM     13  C   UNL     1      42.346  12.097  11.219  0.00  0.00    +0.000 A 
ENDBRANCH   1  11
BRANCH   5  14
ATOM     14  C   UNL     1      47.802   8.082  13.626  0.00  0.00    +0.000 C 
BRANCH  14  15
ATOM     15  C   UNL     1      48.163   6.940  12.671  0.00  0.00    +0.000 C 
BRANCH  15  16
ATOM     16  C   UNL     1      47.003   6.007  12.452  0.00  0.00    +0.000 A 
ATOM     17  C   UNL     1      46.661   5.048  13.408  0.00  0.00    +0.000 A 
ATOM     18  N   UNL     1      45.629   4.180  13.258  0.00  0.00    +0.000 NA
ATOM     19  C   UNL     1      44.932   4.322  12.094  0.00  0.00    +0.000 A 
ATOM     20  C   UNL     1      45.250   5.282  11.146  0.00  0.00    +0.000 A 
ATOM     21  N   UNL     1      46.288   6.142  11.306  0.00  0.00    +0.000 NA
BRANCH  19  22
ATOM     22  C   UNL     1      43.801   3.389  11.844  0.00  0.00    +0.000 C 
ATOM     23  N   UNL     1      43.816   2.219  12.555  0.00  0.00    +0.000 N 
ATOM     24  O   UNL     1      42.907   3.643  11.046  0.00  0.00    +0.000 OA
ATOM     25  H   UNL     1      44.572   2.029  13.204  0.00  0.00    +0.000 HD
ATOM     26  H   UNL     1      43.081   1.543  12.411  0.00  0.00    +0.000 HD
ENDBRANCH  19  22
ENDBRANCH  15  16
ENDBRANCH  14  15
ENDBRANCH   5  14
TORSDOF 5
ENDMDL
MODEL 8
REMARK VINA RESULT:    -6.286      3.304      8.068
REMARK INTER + INTRA:          -8.677
REMARK INTER:                  -8.039
REMARK INTRA:                  -0.638
REMARK UNBOUND:                -0.554
REMARK  Name = 
REMARK  6 active torsions:
REMARK  status: ('A' for Active; 'I' for Inactive)
REMARK    1  A    between atoms: C_1  and  C_2
REMARK    2  A    between atoms: C_5  and  C_6
REMARK    3  A    between atoms: C_10  and  C_11
REMARK    4  A    between atoms: C_11  and  C_12
REMARK    5  A    between atoms: C_12  and  C_13
REMARK    6  A    between atoms: C_16  and  C_17
REMARK                            x       y       z     vdW  Elec       q    Type
REMARK                         _______ _______ _______ _____ _____    ______ ____
ROOT
ATOM      1  C   UNL     1      45.602   6.679  11.462  0.00  0.00    +0.000 A 
ATOM      2  C   UNL     1      44.669   7.719  11.363  0.00  0.00    +0.000 A 
ATOM      3  C   UNL     1      44.927   8.922  11.996  0.00  0.00    +0.000 A 
ATOM      4  N   UNL     1      46.038   9.168  12.718  0.00  0.00    +0.000 NA
ATOM      5  C   UNL     1      46.937   8.165  12.840  0.00  0.00    +0.000 A 
ATOM      6  C   UNL     1      46.755   6.929  12.223  0.00  0.00    +0.000 A 
ENDROOT
BRANCH   1  11
ATOM      7  C   UNL     1      44.757   1.715   8.830  0.00  0.00    +0.000 C 
ATOM      8  C   UNL     1      44.974   3.010   9.531  0.00  0.00    +0.000 A 
ATOM      9  C   UNL     1      44.783   3.176  10.886  0.00  0.00    +0.000 A 
ATOM     10  N   UNL     1      44.982   4.340  11.535  0.00  0.00    +0.000 NA
ATOM     11  C   UNL     1      45.389   5.385  10.788  0.00  0.00    +0.000 A 
ATOM     12  N   UNL     1      45.603   5.329   9.458  0.00  0.00    +0.000 NA
ATOM     13  C   UNL     1      45.391   4.140   8.863  0.00  0.00    +0.000 A 
ENDBRANCH   1  11
BRANCH   5  14
ATOM     14  C   UNL     1      48.209   8.442  13.605  0.00  0.00    +0.000 C 
BRANCH  14  15
ATOM     15  C   UNL     1      49.067   7.189  13.803  0.00  0.00    +0.000 C 
BRANCH  15  16
ATOM     16  C   UNL     1      48.791   6.525  15.125  0.00  0.00    +0.000 A 
ATOM     17  C   UNL     1      49.186   7.118  16.324  0.00  0.00    +0.000 A 
ATOM     18  N   UNL     1      48.965   6.560  17.542  0.00  0.00    +0.000 NA
ATOM     19  C   UNL     1      48.310   5.365  17.508  0.00  0.00    +0.000 A 
ATOM     20  C   UNL     1      47.896   4.774  16.324  0.00  0.00    +0.000 A 
ATOM     21  N   UNL     1      48.126   5.341  15.112  0.00  0.00    +0.000 NA
BRANCH  19  22
ATOM     22  C   UNL     1      48.054   4.676  18.801  0.00  0.00    +0.000 C 
ATOM     23  N   UNL     1      47.309   5.371  19.716  0.00  0.00    +0.000 N 
ATOM     24  O   UNL     1      48.486   3.556  19.044  0.00  0.00    +0.000 OA
ATOM     25  H   UNL     1      46.969   6.300  19.494  0.00  0.00    +0.000 HD
ATOM     26  H   UNL     1      47.120   4.957  20.616  0.00  0.00    +0.000 HD
ENDBRANCH  19  22
ENDBRANCH  15  16
ENDBRANCH  14  15
ENDBRANCH   5  14
TORSDOF 5
ENDMDL
MODEL 9
REMARK VINA RESULT:    -6.141      2.883      4.427
REMARK INTER + INTRA:          -8.491
REMARK INTER:                  -7.858
REMARK INTRA:                  -0.633
REMARK UNBOUND:                -0.554
REMARK  Name = 
REMARK  6 active torsions:
REMARK  status: ('A' for Active; 'I' for Inactive)
REMARK    1  A    between atoms: C_1  and  C_2
REMARK    2  A    between atoms: C_5  and  C_6
REMARK    3  A    between atoms: C_10  and  C_11
REMARK    4  A    between atoms: C_11  and  C_12
REMARK    5  A    between atoms: C_12  and  C_13
REMARK    6  A    between atoms: C_16  and  C_17
REMARK                            x       y       z     vdW  Elec       q    Type
REMARK                         _______ _______ _______ _____ _____    ______ ____
ROOT
ATOM      1  C   UNL     1      49.887   6.955  15.634  0.00  0.00    +0.000 A 
ATOM      2  C   UNL     1      51.068   7.672  15.402  0.00  0.00    +0.000 A 
ATOM      3  C   UNL     1      51.261   8.279  14.174  0.00  0.00    +0.000 A 
ATOM      4  N   UNL     1      50.372   8.228  13.162  0.00  0.00    +0.000 NA
ATOM      5  C   UNL     1      49.238   7.520  13.365  0.00  0.00    +0.000 A 
ATOM      6  C   UNL     1      48.964   6.890  14.578  0.00  0.00    +0.000 A 
ENDROOT
BRANCH   1  11
ATOM      7  C   UNL     1      48.821   4.433  20.612  0.00  0.00    +0.000 C 
ATOM      8  C   UNL     1      49.098   5.106  19.314  0.00  0.00    +0.000 A 
ATOM      9  C   UNL     1      49.082   6.474  19.155  0.00  0.00    +0.000 A 
ATOM     10  N   UNL     1      49.336   7.098  17.987  0.00  0.00    +0.000 NA
ATOM     11  C   UNL     1      49.619   6.309  16.932  0.00  0.00    +0.000 A 
ATOM     12  N   UNL     1      49.659   4.962  16.981  0.00  0.00    +0.000 NA
ATOM     13  C   UNL     1      49.399   4.394  18.173  0.00  0.00    +0.000 A 
ENDBRANCH   1  11
BRANCH   5  14
ATOM     14  C   UNL     1      48.212   7.494  12.257  0.00  0.00    +0.000 C 
BRANCH  14  15
ATOM     15  C   UNL     1      46.773   7.457  12.782  0.00  0.00    +0.000 C 
BRANCH  15  16
ATOM     16  C   UNL     1      46.034   6.238  12.300  0.00  0.00    +0.000 A 
ATOM     17  C   UNL     1      45.621   6.126  10.971  0.00  0.00    +0.000 A 
ATOM     18  N   UNL     1      44.947   5.052  10.486  0.00  0.00    +0.000 NA
ATOM     19  C   UNL     1      44.710   4.071  11.403  0.00  0.00    +0.000 A 
ATOM     20  C   UNL     1      45.131   4.162  12.720  0.00  0.00    +0.000 A 
ATOM     21  N   UNL     1      45.801   5.243  13.194  0.00  0.00    +0.000 NA
BRANCH  19  22
ATOM     22  C   UNL     1      43.954   2.871  10.954  0.00  0.00    +0.000 C 
ATOM     23  N   UNL     1      44.465   2.205   9.873  0.00  0.00    +0.000 N 
ATOM     24  O   UNL     1      42.927   2.498  11.511  0.00  0.00    +0.000 OA
ATOM     25  H   UNL     1      45.312   2.538   9.426  0.00  0.00    +0.000 HD
ATOM     26  H   UNL     1      43.982   1.394   9.518  0.00  0.00    +0.000 HD
ENDBRANCH  19  22
ENDBRANCH  15  16
ENDBRANCH  14  15
ENDBRANCH   5  14
TORSDOF 5
ENDMDL
