MODEL 1
REMARK VINA RESULT:    -7.138      0.000      0.000
REMARK INTER + INTRA:         -11.564
REMARK INTER:                 -10.060
REMARK INTRA:                  -1.505
REMARK UNBOUND:                -1.505
REMARK  Name = 
REMARK  8 active torsions:
REMARK  status: ('A' for Active; 'I' for Inactive)
REMARK    1  A    between atoms: C_1  and  C_2
REMARK    2  A    between atoms: C_2  and  C_3
REMARK    3  A    between atoms: C_3  and  N_4
REMARK    4  A    between atoms: N_4  and  C_5
REMARK    5  A    between atoms: C_5  and  C_6
REMARK    6  A    between atoms: C_10  and  C_11
REMARK    7  A    between atoms: C_11  and  C_12
REMARK    8  A    between atoms: C_19  and  C_21
REMARK                            x       y       z     vdW  Elec       q    Type
REMARK                         _______ _______ _______ _____ _____    ______ ____
ROOT
ATOM      1  N   UNL     1      47.343   6.947  13.015  0.00  0.00    +0.000 N 
ATOM      2  C   UNL     1      47.262   8.296  13.433  0.00  0.00    +0.000 C 
ATOM      3  O   UNL     1      47.655   8.652  14.542  0.00  0.00    +0.000 OA
ENDROOT
BRANCH   2   4
ATOM      4  C   UNL     1      46.665   9.302  12.540  0.00  0.00    +0.000 A 
ATOM      5  C   UNL     1      45.326   9.664  12.517  0.00  0.00    +0.000 A 
ATOM      6  S   UNL     1      44.970  10.912  11.409  0.00  0.00    +0.000 S 
ATOM      7  C   UNL     1      46.617  11.117  11.038  0.00  0.00    +0.000 A 
ATOM      8  N   UNL     1      47.035  12.120  10.220  0.00  0.00    +0.000 NA
ATOM      9  C   UNL     1      48.314  12.193  10.087  0.00  0.00    +0.000 A 
ATOM     10  N   UNL     1      49.215  11.330  10.665  0.00  0.00    +0.000 N 
ATOM     11  C   UNL     1      48.832  10.218  11.383  0.00  0.00    +0.000 A 
ATOM     12  O   UNL     1      49.632   9.338  11.671  0.00  0.00    +0.000 OA
ATOM     13  C   UNL     1      47.408  10.175  11.669  0.00  0.00    +0.000 A 
ATOM     14  H   UNL     1      50.199  11.400  10.459  0.00  0.00    +0.000 HD
ENDBRANCH   2   4
BRANCH   1  15
ATOM     15  C   UNL     1      47.840   5.978  13.998  0.00  0.00    +0.000 C 
BRANCH  15  17
ATOM     16  C   UNL     1      47.048   3.546  14.008  0.00  0.00    +0.000 C 
ATOM     17  C   UNL     1      46.796   4.970  14.478  0.00  0.00    +0.000 C 
ENDBRANCH  15  17
ENDBRANCH   1  15
BRANCH   1  18
ATOM     18  C   UNL     1      46.866   6.524  11.699  0.00  0.00    +0.000 C 
BRANCH  18  19
ATOM     19  C   UNL     1      45.575   5.772  11.494  0.00  0.00    +0.000 A 
ATOM     20  C   UNL     1      44.344   6.377  11.782  0.00  0.00    +0.000 A 
ATOM     21  C   UNL     1      43.154   5.807  11.332  0.00  0.00    +0.000 A 
ATOM     22  C   UNL     1      43.178   4.617  10.605  0.00  0.00    +0.000 A 
ATOM     23  C   UNL     1      44.390   3.961  10.355  0.00  0.00    +0.000 A 
ATOM     24  C   UNL     1      45.584   4.545  10.806  0.00  0.00    +0.000 A 
BRANCH  23  25
ATOM     25  C   UNL     1      44.401   2.625   9.647  0.00  0.00    +0.000 C 
BRANCH  25  26
ATOM     26  C   UNL     1      45.445   2.567   8.564  0.00  0.00    +0.000 A 
ATOM     27  C   UNL     1      45.682   3.653   7.716  0.00  0.00    +0.000 A 
ATOM     28  C   UNL     1      46.585   3.524   6.665  0.00  0.00    +0.000 A 
ATOM     29  C   UNL     1      47.234   2.311   6.502  0.00  0.00    +0.000 A 
ATOM     30  N   UNL     1      47.049   1.247   7.311  0.00  0.00    +0.000 NA
ATOM     31  C   UNL     1      46.157   1.397   8.316  0.00  0.00    +0.000 A 
ENDBRANCH  25  26
ENDBRANCH  23  25
ENDBRANCH  18  19
ENDBRANCH   1  18
TORSDOF 7
ENDMDL
MODEL 2
REMARK VINA RESULT:    -6.976      3.771      8.415
REMARK INTER + INTRA:         -11.335
REMARK INTER:                  -9.662
REMARK INTRA:                  -1.673
REMARK UNBOUND:                -1.505
REMARK  Name = 
REMARK  8 active torsions:
REMARK  status: ('A' for Active; 'I' for Inactive)
REMARK    1  A    between atoms: C_1  and  C_2
REMARK    2  A    between atoms: C_2  and  C_3
REMARK    3  A    between atoms: C_3  and  N_4
REMARK    4  A    between atoms: N_4  and  C_5
REMARK    5  A    between atoms: C_5  and  C_6
REMARK    6  A    between atoms: C_10  and  C_11
REMARK    7  A    between atoms: C_11  and  C_12
REMARK    8  A    between atoms: C_19  and  C_21
REMARK                            x       y       z     vdW  Elec       q    Type
REMARK                         _______ _______ _______ _____ _____    ______ ____
ROOT
ATOM      1  N   UNL     1      46.618   7.213  12.272  0.00  0.00    +0.000 N 
ATOM      2  C   UNL     1      45.329   6.941  11.757  0.00  0.00    +0.000 C 
ATOM      3  O   UNL     1      44.596   7.837  11.347  0.00  0.00    +0.000 OA
ENDROOT
BRANCH   2   4
ATOM      4  C   UNL     1      44.830   5.556  11.738  0.00  0.00    +0.000 A 
ATOM      5  C   UNL     1      44.097   4.951  12.748  0.00  0.00    +0.000 A 
ATOM      6  S   UNL     1      43.613   3.355  12.386  0.00  0.00    +0.000 S 
ATOM      7  C   UNL     1      44.230   3.477  10.805  0.00  0.00    +0.000 A 
ATOM      8  N   UNL     1      44.047   2.480   9.899  0.00  0.00    +0.000 NA
ATOM      9  C   UNL     1      44.509   2.742   8.726  0.00  0.00    +0.000 A 
ATOM     10  N   UNL     1      45.174   3.895   8.383  0.00  0.00    +0.000 N 
ATOM     11  C   UNL     1      45.507   4.869   9.300  0.00  0.00    +0.000 A 
ATOM     12  O   UNL     1      46.306   5.754   9.028  0.00  0.00    +0.000 OA
ATOM     13  C   UNL     1      44.889   4.675  10.601  0.00  0.00    +0.000 A 
ATOM     14  H   UNL     1      45.575   4.004   7.466  0.00  0.00    +0.000 HD
ENDBRANCH   2   4
BRANCH   1  15
ATOM     15  C   UNL     1      47.006   8.626  12.371  0.00  0.00    +0.000 C 
BRANCH  15  17
ATOM     16  C   UNL     1      48.607  10.402  11.463  0.00  0.00    +0.000 C 
ATOM     17  C   UNL     1      48.399   8.940  11.825  0.00  0.00    +0.000 C 
ENDBRANCH  15  17
ENDBRANCH   1  15
BRANCH   1  18
ATOM     18  C   UNL     1      47.486   6.147  12.769  0.00  0.00    +0.000 C 
BRANCH  18  19
ATOM     19  C   UNL     1      47.604   5.796  14.230  0.00  0.00    +0.000 A 
ATOM     20  C   UNL     1      47.018   4.626  14.733  0.00  0.00    +0.000 A 
ATOM     21  C   UNL     1      47.359   4.152  15.998  0.00  0.00    +0.000 A 
ATOM     22  C   UNL     1      48.275   4.849  16.784  0.00  0.00    +0.000 A 
ATOM     23  C   UNL     1      48.830   6.053  16.331  0.00  0.00    +0.000 A 
ATOM     24  C   UNL     1      48.486   6.520  15.053  0.00  0.00    +0.000 A 
BRANCH  23  25
ATOM     25  C   UNL     1      49.751   6.852  17.226  0.00  0.00    +0.000 C 
BRANCH  25  26
ATOM     26  C   UNL     1      49.046   7.362  18.454  0.00  0.00    +0.000 A 
ATOM     27  C   UNL     1      47.948   8.223  18.364  0.00  0.00    +0.000 A 
ATOM     28  C   UNL     1      47.387   8.749  19.524  0.00  0.00    +0.000 A 
ATOM     29  C   UNL     1      47.938   8.388  20.742  0.00  0.00    +0.000 A 
ATOM     30  N   UNL     1      48.983   7.544  20.872  0.00  0.00    +0.000 NA
ATOM     31  C   UNL     1      49.516   7.057  19.728  0.00  0.00    +0.000 A 
ENDBRANCH  25  26
ENDBRANCH  23  25
ENDBRANCH  18  19
ENDBRANCH   1  18
TORSDOF 7
ENDMDL
MODEL 3
REMARK VINA RESULT:    -6.964      2.550      3.874
REMARK INTER + INTRA:         -11.319
REMARK INTER:                  -9.810
REMARK INTRA:                  -1.508
REMARK UNBOUND:                -1.505
REMARK  Name = 
REMARK  8 active torsions:
REMARK  status: ('A' for Active; 'I' for Inactive)
REMARK    1  A    between atoms: C_1  and  C_2
REMARK    2  A    between atoms: C_2  and  C_3
REMARK    3  A    between atoms: C_3  and  N_4
REMARK    4  A    between atoms: N_4  and  C_5
REMARK    5  A    between atoms: C_5  and  C_6
REMARK    6  A    between atoms: C_10  and  C_11
REMARK    7  A    between atoms: C_11  and  C_12
REMARK    8  A    between atoms: C_19  and  C_21
REMARK                            x       y       z     vdW  Elec       q    Type
REMARK                         _______ _______ _______ _____ _____    ______ ____
ROOT
ATOM      1  N   UNL     1      46.810   8.299  12.577  0.00  0.00    +0.000 N 
ATOM      2  C   UNL     1      47.768   9.336  12.664  0.00  0.00    +0.000 C 
ATOM      3  O   UNL     1      47.441  10.499  12.888  0.00  0.00    +0.000 OA
ENDROOT
BRANCH   2   4
ATOM      4  C   UNL     1      49.191   9.032  12.450  0.00  0.00    +0.000 A 
ATOM      5  C   UNL     1      49.891   9.242  11.270  0.00  0.00    +0.000 A 
ATOM      6  S   UNL     1      51.548   8.847  11.373  0.00  0.00    +0.000 S 
ATOM      7  C   UNL     1      51.418   8.532  13.039  0.00  0.00    +0.000 A 
ATOM      8  N   UNL     1      52.515   8.245  13.789  0.00  0.00    +0.000 NA
ATOM      9  C   UNL     1      52.272   8.098  15.045  0.00  0.00    +0.000 A 
ATOM     10  N   UNL     1      51.024   8.173  15.618  0.00  0.00    +0.000 N 
ATOM     11  C   UNL     1      49.869   8.320  14.881  0.00  0.00    +0.000 A 
ATOM     12  O   UNL     1      48.767   8.134  15.378  0.00  0.00    +0.000 OA
ATOM     13  C   UNL     1      50.111   8.622  13.480  0.00  0.00    +0.000 A 
ATOM     14  H   UNL     1      50.895   7.975  16.597  0.00  0.00    +0.000 HD
ENDBRANCH   2   4
BRANCH   1  15
ATOM     15  C   UNL     1      45.399   8.690  12.684  0.00  0.00    +0.000 C 
BRANCH  15  17
ATOM     16  C   UNL     1      44.455  10.408  11.040  0.00  0.00    +0.000 C 
ATOM     17  C   UNL     1      44.707   8.939  11.344  0.00  0.00    +0.000 C 
ENDBRANCH  15  17
ENDBRANCH   1  15
BRANCH   1  18
ATOM     18  C   UNL     1      47.199   6.917  12.300  0.00  0.00    +0.000 C 
BRANCH  18  19
ATOM     19  C   UNL     1      46.202   5.817  12.043  0.00  0.00    +0.000 A 
ATOM     20  C   UNL     1      45.451   5.274  13.095  0.00  0.00    +0.000 A 
ATOM     21  C   UNL     1      44.341   4.474  12.832  0.00  0.00    +0.000 A 
ATOM     22  C   UNL     1      43.977   4.192  11.516  0.00  0.00    +0.000 A 
ATOM     23  C   UNL     1      44.744   4.671  10.447  0.00  0.00    +0.000 A 
ATOM     24  C   UNL     1      45.857   5.482  10.721  0.00  0.00    +0.000 A 
BRANCH  23  25
ATOM     25  C   UNL     1      44.398   4.285   9.026  0.00  0.00    +0.000 C 
BRANCH  25  26
ATOM     26  C   UNL     1      45.400   3.327   8.440  0.00  0.00    +0.000 A 
ATOM     27  C   UNL     1      46.303   3.726   7.450  0.00  0.00    +0.000 A 
ATOM     28  C   UNL     1      47.145   2.786   6.864  0.00  0.00    +0.000 A 
ATOM     29  C   UNL     1      47.064   1.473   7.298  0.00  0.00    +0.000 A 
ATOM     30  N   UNL     1      46.222   1.052   8.265  0.00  0.00    +0.000 NA
ATOM     31  C   UNL     1      45.408   1.985   8.807  0.00  0.00    +0.000 A 
ENDBRANCH  25  26
ENDBRANCH  23  25
ENDBRANCH  18  19
ENDBRANCH   1  18
TORSDOF 7
ENDMDL
MODEL 4
REMARK VINA RESULT:    -6.602      3.897      7.276
REMARK INTER + INTRA:         -10.808
REMARK INTER:                  -8.667
REMARK INTRA:                  -2.140
REMARK UNBOUND:                -1.505
REMARK  Name = 
REMARK  8 active torsions:
REMARK  status: ('A' for Active; 'I' for Inactive)
REMARK    1  A    between atoms: C_1  and  C_2
REMARK    2  A    between atoms: C_2  and  C_3
REMARK    3  A    between atoms: C_3  and  N_4
REMARK    4  A    between atoms: N_4  and  C_5
REMARK    5  A    between atoms: C_5  and  C_6
REMARK    6  A    between atoms: C_10  and  C_11
REMARK    7  A    between atoms: C_11  and  C_12
REMARK    8  A    between atoms: C_19  and  C_21
REMARK                            x       y       z     vdW  Elec       q    Type
REMARK                         _______ _______ _______ _____ _____    ______ ____
ROOT
ATOM      1  N   UNL     1      49.685   7.739  14.542  0.00  0.00    +0.000 N 
ATOM      2  C   UNL     1      49.077   7.281  13.349  0.00  0.00    +0.000 C 
ATOM      3  O   UNL     1      49.732   6.761  12.450  0.00  0.00    +0.000 OA
ENDROOT
BRANCH   2   4
ATOM      4  C   UNL     1      47.629   7.457  13.157  0.00  0.00    +0.000 A 
ATOM      5  C   UNL     1      47.011   8.618  12.715  0.00  0.00    +0.000 A 
ATOM      6  S   UNL     1      45.320   8.472  12.533  0.00  0.00    +0.000 S 
ATOM      7  C   UNL     1      45.379   6.809  12.887  0.00  0.00    +0.000 A 
ATOM      8  N   UNL     1      44.268   6.031  12.796  0.00  0.00    +0.000 NA
ATOM      9  C   UNL     1      44.479   4.781  13.026  0.00  0.00    +0.000 A 
ATOM     10  N   UNL     1      45.694   4.241  13.378  0.00  0.00    +0.000 N 
ATOM     11  C   UNL     1      46.812   5.009  13.620  0.00  0.00    +0.000 A 
ATOM     12  O   UNL     1      47.800   4.541  14.169  0.00  0.00    +0.000 OA
ATOM     13  C   UNL     1      46.651   6.403  13.243  0.00  0.00    +0.000 A 
ATOM     14  H   UNL     1      45.774   3.266  13.617  0.00  0.00    +0.000 HD
ENDBRANCH   2   4
BRANCH   1  15
ATOM     15  C   UNL     1      51.148   7.638  14.619  0.00  0.00    +0.000 C 
BRANCH  15  17
ATOM     16  C   UNL     1      52.017   6.319  16.631  0.00  0.00    +0.000 C 
ATOM     17  C   UNL     1      51.712   7.686  16.039  0.00  0.00    +0.000 C 
ENDBRANCH  15  17
ENDBRANCH   1  15
BRANCH   1  18
ATOM     18  C   UNL     1      48.906   8.367  15.607  0.00  0.00    +0.000 C 
BRANCH  18  19
ATOM     19  C   UNL     1      48.554   7.664  16.894  0.00  0.00    +0.000 A 
ATOM     20  C   UNL     1      48.302   8.397  18.061  0.00  0.00    +0.000 A 
ATOM     21  C   UNL     1      47.705   7.788  19.164  0.00  0.00    +0.000 A 
ATOM     22  C   UNL     1      47.368   6.435  19.119  0.00  0.00    +0.000 A 
ATOM     23  C   UNL     1      47.664   5.665  17.987  0.00  0.00    +0.000 A 
ATOM     24  C   UNL     1      48.260   6.288  16.879  0.00  0.00    +0.000 A 
BRANCH  23  25
ATOM     25  C   UNL     1      47.381   4.179  17.981  0.00  0.00    +0.000 C 
BRANCH  25  26
ATOM     26  C   UNL     1      48.605   3.372  17.641  0.00  0.00    +0.000 A 
ATOM     27  C   UNL     1      49.840   3.623  18.245  0.00  0.00    +0.000 A 
ATOM     28  C   UNL     1      50.967   2.920  17.830  0.00  0.00    +0.000 A 
ATOM     29  C   UNL     1      50.820   1.977  16.827  0.00  0.00    +0.000 A 
ATOM     30  N   UNL     1      49.643   1.691  16.233  0.00  0.00    +0.000 NA
ATOM     31  C   UNL     1      48.567   2.397  16.648  0.00  0.00    +0.000 A 
ENDBRANCH  25  26
ENDBRANCH  23  25
ENDBRANCH  18  19
ENDBRANCH   1  18
TORSDOF 7
ENDMDL
MODEL 5
REMARK VINA RESULT:    -6.595      4.337      7.385
REMARK INTER + INTRA:         -10.798
REMARK INTER:                  -8.846
REMARK INTRA:                  -1.952
REMARK UNBOUND:                -1.505
REMARK  Name = 
REMARK  8 active torsions:
REMARK  status: ('A' for Active; 'I' for Inactive)
REMARK    1  A    between atoms: C_1  and  C_2
REMARK    2  A    between atoms: C_2  and  C_3
REMARK    3  A    between atoms: C_3  and  N_4
REMARK    4  A    between atoms: N_4  and  C_5
REMARK    5  A    between atoms: C_5  and  C_6
REMARK    6  A    between atoms: C_10  and  C_11
REMARK    7  A    between atoms: C_11  and  C_12
REMARK    8  A    between atoms: C_19  and  C_21
REMARK                            x       y       z     vdW  Elec       q    Type
REMARK                         _______ _______ _______ _____ _____    ______ ____
ROOT
ATOM      1  N   UNL     1      49.609   7.308  16.935  0.00  0.00    +0.000 N 
ATOM      2  C   UNL     1      48.999   6.385  17.817  0.00  0.00    +0.000 C 
ATOM      3  O   UNL     1      48.599   6.723  18.928  0.00  0.00    +0.000 OA
ENDROOT
BRANCH   2   4
ATOM      4  C   UNL     1      48.864   4.975  17.417  0.00  0.00    +0.000 A 
ATOM      5  C   UNL     1      47.826   4.450  16.661  0.00  0.00    +0.000 A 
ATOM      6  S   UNL     1      48.001   2.788  16.312  0.00  0.00    +0.000 S 
ATOM      7  C   UNL     1      49.545   2.754  17.025  0.00  0.00    +0.000 A 
ATOM      8  N   UNL     1      50.320   1.638  16.972  0.00  0.00    +0.000 NA
ATOM      9  C   UNL     1      51.489   1.782  17.493  0.00  0.00    +0.000 A 
ATOM     10  N   UNL     1      51.944   2.930  18.098  0.00  0.00    +0.000 N 
ATOM     11  C   UNL     1      51.146   4.035  18.301  0.00  0.00    +0.000 A 
ATOM     12  O   UNL     1      51.486   4.938  19.054  0.00  0.00    +0.000 OA
ATOM     13  C   UNL     1      49.869   3.963  17.612  0.00  0.00    +0.000 A 
ATOM     14  H   UNL     1      52.843   2.951  18.552  0.00  0.00    +0.000 HD
ENDBRANCH   2   4
BRANCH   1  15
ATOM     15  C   UNL     1      49.818   8.669  17.442  0.00  0.00    +0.000 C 
BRANCH  15  17
ATOM     16  C   UNL     1      49.038  10.610  15.970  0.00  0.00    +0.000 C 
ATOM     17  C   UNL     1      48.698   9.651  17.101  0.00  0.00    +0.000 C 
ENDBRANCH  15  17
ENDBRANCH   1  15
BRANCH   1  18
ATOM     18  C   UNL     1      50.094   6.901  15.617  0.00  0.00    +0.000 C 
BRANCH  18  19
ATOM     19  C   UNL     1      49.452   7.352  14.329  0.00  0.00    +0.000 A 
ATOM     20  C   UNL     1      50.239   7.736  13.235  0.00  0.00    +0.000 A 
ATOM     21  C   UNL     1      49.673   7.876  11.970  0.00  0.00    +0.000 A 
ATOM     22  C   UNL     1      48.309   7.649  11.785  0.00  0.00    +0.000 A 
ATOM     23  C   UNL     1      47.488   7.323  12.871  0.00  0.00    +0.000 A 
ATOM     24  C   UNL     1      48.068   7.178  14.141  0.00  0.00    +0.000 A 
BRANCH  23  25
ATOM     25  C   UNL     1      45.995   7.170  12.680  0.00  0.00    +0.000 C 
BRANCH  25  26
ATOM     26  C   UNL     1      45.623   5.786  12.218  0.00  0.00    +0.000 A 
ATOM     27  C   UNL     1      45.345   5.512  10.876  0.00  0.00    +0.000 A 
ATOM     28  C   UNL     1      44.909   4.243  10.507  0.00  0.00    +0.000 A 
ATOM     29  C   UNL     1      44.775   3.282  11.495  0.00  0.00    +0.000 A 
ATOM     30  N   UNL     1      45.053   3.501  12.797  0.00  0.00    +0.000 NA
ATOM     31  C   UNL     1      45.463   4.746  13.129  0.00  0.00    +0.000 A 
ENDBRANCH  25  26
ENDBRANCH  23  25
ENDBRANCH  18  19
ENDBRANCH   1  18
TORSDOF 7
ENDMDL
MODEL 6
REMARK VINA RESULT:    -6.357      4.979      8.249
REMARK INTER + INTRA:         -10.463
REMARK INTER:                  -8.187
REMARK INTRA:                  -2.276
REMARK UNBOUND:                -1.505
REMARK  Name = 
REMARK  8 active torsions:
REMARK  status: ('A' for Active; 'I' for Inactive)
REMARK    1  A    between atoms: C_1  and  C_2
REMARK    2  A    between atoms: C_2  and  C_3
REMARK    3  A    between atoms: C_3  and  N_4
REMARK    4  A    between atoms: N_4  and  C_5
REMARK    5  A    between atoms: C_5  and  C_6
REMARK    6  A    between atoms: C_10  and  C_11
REMARK    7  A    between atoms: C_11  and  C_12
REMARK    8  A    between atoms: C_19  and  C_21
REMARK                            x       y       z     vdW  Elec       q    Type
REMARK                         _______ _______ _______ _____ _____    ______ ____
ROOT
ATOM      1  N   UNL     1      49.611   7.066  19.377  0.00  0.00    +0.000 N 
ATOM      2  C   UNL     1      49.614   5.706  19.767  0.00  0.00    +0.000 C 
ATOM      3  O   UNL     1      49.194   5.350  20.865  0.00  0.00    +0.000 OA
ENDROOT
BRANCH   2   4
ATOM      4  C   UNL     1      50.162   4.688  18.857  0.00  0.00    +0.000 A 
ATOM      5  C   UNL     1      51.466   4.214  18.871  0.00  0.00    +0.000 A 
ATOM      6  S   UNL     1      51.763   2.983  17.727  0.00  0.00    +0.000 S 
ATOM      7  C   UNL     1      50.122   2.934  17.283  0.00  0.00    +0.000 A 
ATOM      8  N   UNL     1      49.657   2.003  16.409  0.00  0.00    +0.000 NA
ATOM      9  C   UNL     1      48.383   2.045  16.222  0.00  0.00    +0.000 A 
ATOM     10  N   UNL     1      47.533   2.958  16.800  0.00  0.00    +0.000 N 
ATOM     11  C   UNL     1      47.977   4.005  17.579  0.00  0.00    +0.000 A 
ATOM     12  O   UNL     1      47.243   4.939  17.871  0.00  0.00    +0.000 OA
ATOM     13  C   UNL     1      49.387   3.916  17.921  0.00  0.00    +0.000 A 
ATOM     14  H   UNL     1      46.557   2.982  16.553  0.00  0.00    +0.000 HD
ENDBRANCH   2   4
BRANCH   1  15
ATOM     15  C   UNL     1      49.160   8.041  20.377  0.00  0.00    +0.000 C 
BRANCH  15  17
ATOM     16  C   UNL     1      47.213   9.694  20.230  0.00  0.00    +0.000 C 
ATOM     17  C   UNL     1      47.646   8.248  20.422  0.00  0.00    +0.000 C 
ENDBRANCH  15  17
ENDBRANCH   1  15
BRANCH   1  18
ATOM     18  C   UNL     1      50.121   7.490  18.074  0.00  0.00    +0.000 C 
BRANCH  18  19
ATOM     19  C   UNL     1      49.224   7.832  16.911  0.00  0.00    +0.000 A 
ATOM     20  C   UNL     1      48.524   9.046  16.883  0.00  0.00    +0.000 A 
ATOM     21  C   UNL     1      47.930   9.493  15.705  0.00  0.00    +0.000 A 
ATOM     22  C   UNL     1      48.015   8.726  14.543  0.00  0.00    +0.000 A 
ATOM     23  C   UNL     1      48.657   7.482  14.557  0.00  0.00    +0.000 A 
ATOM     24  C   UNL     1      49.258   7.042  15.747  0.00  0.00    +0.000 A 
BRANCH  23  25
ATOM     25  C   UNL     1      48.665   6.614  13.319  0.00  0.00    +0.000 C 
BRANCH  25  26
ATOM     26  C   UNL     1      47.336   5.947  13.087  0.00  0.00    +0.000 A 
ATOM     27  C   UNL     1      46.485   6.348  12.053  0.00  0.00    +0.000 A 
ATOM     28  C   UNL     1      45.224   5.772  11.935  0.00  0.00    +0.000 A 
ATOM     29  C   UNL     1      44.856   4.802  12.853  0.00  0.00    +0.000 A 
ATOM     30  N   UNL     1      45.656   4.373  13.852  0.00  0.00    +0.000 NA
ATOM     31  C   UNL     1      46.871   4.958  13.950  0.00  0.00    +0.000 A 
ENDBRANCH  25  26
ENDBRANCH  23  25
ENDBRANCH  18  19
ENDBRANCH   1  18
TORSDOF 7
ENDMDL
MODEL 7
REMARK VINA RESULT:    -6.221      4.957      7.995
REMARK INTER + INTRA:         -10.271
REMARK INTER:                  -8.341
REMARK INTRA:                  -1.930
REMARK UNBOUND:                -1.505
REMARK  Name = 
REMARK  8 active torsions:
REMARK  status: ('A' for Active; 'I' for Inactive)
REMARK    1  A    between atoms: C_1  and  C_2
REMARK    2  A    between atoms: C_2  and  C_3
REMARK    3  A    between atoms: C_3  and  N_4
REMARK    4  A    between atoms: N_4  and  C_5
REMARK    5  A    between atoms: C_5  and  C_6
REMARK    6  A    between atoms: C_10  and  C_11
REMARK    7  A    between atoms: C_11  and  C_12
REMARK    8  A    between atoms: C_19  and  C_21
REMARK                            x       y       z     vdW  Elec       q    Type
REMARK                         _______ _______ _______ _____ _____    ______ ____
ROOT
ATOM      1  N   UNL     1      48.715   7.423  18.864  0.00  0.00    +0.000 N 
ATOM      2  C   UNL     1      48.076   6.225  19.259  0.00  0.00    +0.000 C 
ATOM      3  O   UNL     1      47.416   6.156  20.293  0.00  0.00    +0.000 OA
ENDROOT
BRANCH   2   4
ATOM      4  C   UNL     1      48.225   5.014  18.436  0.00  0.00    +0.000 A 
ATOM      5  C   UNL     1      47.293   4.543  17.522  0.00  0.00    +0.000 A 
ATOM      6  S   UNL     1      47.801   3.149  16.678  0.00  0.00    +0.000 S 
ATOM      7  C   UNL     1      49.344   3.222  17.391  0.00  0.00    +0.000 A 
ATOM      8  N   UNL     1      50.333   2.368  17.016  0.00  0.00    +0.000 NA
ATOM      9  C   UNL     1      51.465   2.587  17.591  0.00  0.00    +0.000 A 
ATOM     10  N   UNL     1      51.690   3.558  18.538  0.00  0.00    +0.000 N 
ATOM     11  C   UNL     1      50.686   4.351  19.051  0.00  0.00    +0.000 A 
ATOM     12  O   UNL     1      50.857   5.024  20.058  0.00  0.00    +0.000 OA
ATOM     13  C   UNL     1      49.428   4.228  18.336  0.00  0.00    +0.000 A 
ATOM     14  H   UNL     1      52.581   3.627  19.003  0.00  0.00    +0.000 HD
ENDBRANCH   2   4
BRANCH   1  15
ATOM     15  C   UNL     1      48.622   8.559  19.790  0.00  0.00    +0.000 C 
BRANCH  15  17
ATOM     16  C   UNL     1      46.617   9.910  20.624  0.00  0.00    +0.000 C 
ATOM     17  C   UNL     1      47.522   9.564  19.452  0.00  0.00    +0.000 C 
ENDBRANCH  15  17
ENDBRANCH   1  15
BRANCH   1  18
ATOM     18  C   UNL     1      49.508   7.501  17.639  0.00  0.00    +0.000 C 
BRANCH  18  19
ATOM     19  C   UNL     1      48.935   7.934  16.314  0.00  0.00    +0.000 A 
ATOM     20  C   UNL     1      48.774   9.294  16.016  0.00  0.00    +0.000 A 
ATOM     21  C   UNL     1      48.521   9.708  14.710  0.00  0.00    +0.000 A 
ATOM     22  C   UNL     1      48.409   8.767  13.687  0.00  0.00    +0.000 A 
ATOM     23  C   UNL     1      48.506   7.397  13.966  0.00  0.00    +0.000 A 
ATOM     24  C   UNL     1      48.768   6.990  15.284  0.00  0.00    +0.000 A 
BRANCH  23  25
ATOM     25  C   UNL     1      48.292   6.379  12.869  0.00  0.00    +0.000 C 
BRANCH  25  26
ATOM     26  C   UNL     1      46.861   5.915  12.798  0.00  0.00    +0.000 A 
ATOM     27  C   UNL     1      45.897   6.621  12.071  0.00  0.00    +0.000 A 
ATOM     28  C   UNL     1      44.567   6.214  12.113  0.00  0.00    +0.000 A 
ATOM     29  C   UNL     1      44.244   5.104  12.876  0.00  0.00    +0.000 A 
ATOM     30  N   UNL     1      45.147   4.385  13.575  0.00  0.00    +0.000 NA
ATOM     31  C   UNL     1      46.430   4.810  13.525  0.00  0.00    +0.000 A 
ENDBRANCH  25  26
ENDBRANCH  23  25
ENDBRANCH  18  19
ENDBRANCH   1  18
TORSDOF 7
ENDMDL
MODEL 8
REMARK VINA RESULT:    -6.123      3.008      4.952
REMARK INTER + INTRA:         -10.133
REMARK INTER:                  -8.528
REMARK INTRA:                  -1.605
REMARK UNBOUND:                -1.505
REMARK  Name = 
REMARK  8 active torsions:
REMARK  status: ('A' for Active; 'I' for Inactive)
REMARK    1  A    between atoms: C_1  and  C_2
REMARK    2  A    between atoms: C_2  and  C_3
REMARK    3  A    between atoms: C_3  and  N_4
REMARK    4  A    between atoms: N_4  and  C_5
REMARK    5  A    between atoms: C_5  and  C_6
REMARK    6  A    between atoms: C_10  and  C_11
REMARK    7  A    between atoms: C_11  and  C_12
REMARK    8  A    between atoms: C_19  and  C_21
REMARK                            x       y       z     vdW  Elec       q    Type
REMARK                         _______ _______ _______ _____ _____    ______ ____
ROOT
ATOM      1  N   UNL     1      47.706   8.293  13.702  0.00  0.00    +0.000 N 
ATOM      2  C   UNL     1      48.636   8.955  14.538  0.00  0.00    +0.000 C 
ATOM      3  O   UNL     1      48.338   9.976  15.152  0.00  0.00    +0.000 OA
ENDROOT
BRANCH   2   4
ATOM      4  C   UNL     1      50.007   8.435  14.657  0.00  0.00    +0.000 A 
ATOM      5  C   UNL     1      51.123   8.954  14.017  0.00  0.00    +0.000 A 
ATOM      6  S   UNL     1      52.579   8.161  14.421  0.00  0.00    +0.000 S 
ATOM      7  C   UNL     1      51.790   7.201  15.582  0.00  0.00    +0.000 A 
ATOM      8  N   UNL     1      52.486   6.360  16.391  0.00  0.00    +0.000 NA
ATOM      9  C   UNL     1      51.764   5.751  17.266  0.00  0.00    +0.000 A 
ATOM     10  N   UNL     1      50.399   5.874  17.382  0.00  0.00    +0.000 N 
ATOM     11  C   UNL     1      49.636   6.603  16.495  0.00  0.00    +0.000 A 
ATOM     12  O   UNL     1      48.417   6.496  16.466  0.00  0.00    +0.000 OA
ATOM     13  C   UNL     1      50.423   7.410  15.579  0.00  0.00    +0.000 A 
ATOM     14  H   UNL     1      49.886   5.312  18.040  0.00  0.00    +0.000 HD
ENDBRANCH   2   4
BRANCH   1  15
ATOM     15  C   UNL     1      46.394   8.930  13.538  0.00  0.00    +0.000 C 
BRANCH  15  17
ATOM     16  C   UNL     1      44.774  10.135  11.966  0.00  0.00    +0.000 C 
ATOM     17  C   UNL     1      46.184   9.609  12.184  0.00  0.00    +0.000 C 
ENDBRANCH  15  17
ENDBRANCH   1  15
BRANCH   1  18
ATOM     18  C   UNL     1      48.065   7.084  12.964  0.00  0.00    +0.000 C 
BRANCH  18  19
ATOM     19  C   UNL     1      47.105   5.944  12.735  0.00  0.00    +0.000 A 
ATOM     20  C   UNL     1      46.706   5.122  13.797  0.00  0.00    +0.000 A 
ATOM     21  C   UNL     1      45.618   4.263  13.658  0.00  0.00    +0.000 A 
ATOM     22  C   UNL     1      44.926   4.201  12.449  0.00  0.00    +0.000 A 
ATOM     23  C   UNL     1      45.340   4.967  11.352  0.00  0.00    +0.000 A 
ATOM     24  C   UNL     1      46.433   5.835  11.504  0.00  0.00    +0.000 A 
BRANCH  23  25
ATOM     25  C   UNL     1      44.642   4.827  10.017  0.00  0.00    +0.000 C 
BRANCH  25  26
ATOM     26  C   UNL     1      45.386   3.910   9.083  0.00  0.00    +0.000 A 
ATOM     27  C   UNL     1      46.111   4.405   7.995  0.00  0.00    +0.000 A 
ATOM     28  C   UNL     1      46.702   3.518   7.100  0.00  0.00    +0.000 A 
ATOM     29  C   UNL     1      46.557   2.160   7.328  0.00  0.00    +0.000 A 
ATOM     30  N   UNL     1      45.884   1.644   8.377  0.00  0.00    +0.000 NA
ATOM     31  C   UNL     1      45.310   2.528   9.224  0.00  0.00    +0.000 A 
ENDBRANCH  25  26
ENDBRANCH  23  25
ENDBRANCH  18  19
ENDBRANCH   1  18
TORSDOF 7
ENDMDL
MODEL 9
REMARK VINA RESULT:    -5.858      3.343      5.399
REMARK INTER + INTRA:          -9.760
REMARK INTER:                  -8.302
REMARK INTRA:                  -1.458
REMARK UNBOUND:                -1.505
REMARK  Name = 
REMARK  8 active torsions:
REMARK  status: ('A' for Active; 'I' for Inactive)
REMARK    1  A    between atoms: C_1  and  C_2
REMARK    2  A    between atoms: C_2  and  C_3
REMARK    3  A    between atoms: C_3  and  N_4
REMARK    4  A    between atoms: N_4  and  C_5
REMARK    5  A    between atoms: C_5  and  C_6
REMARK    6  A    between atoms: C_10  and  C_11
REMARK    7  A    between atoms: C_11  and  C_12
REMARK    8  A    between atoms: C_19  and  C_21
REMARK                            x       y       z     vdW  Elec       q    Type
REMARK                         _______ _______ _______ _____ _____    ______ ____
ROOT
ATOM      1  N   UNL     1      49.657   7.475  13.657  0.00  0.00    +0.000 N 
ATOM      2  C   UNL     1      50.296   7.767  14.885  0.00  0.00    +0.000 C 
ATOM      3  O   UNL     1      51.181   8.615  14.966  0.00  0.00    +0.000 OA
ENDROOT
BRANCH   2   4
ATOM      4  C   UNL     1      49.921   7.020  16.096  0.00  0.00    +0.000 A 
ATOM      5  C   UNL     1      50.549   5.873  16.561  0.00  0.00    +0.000 A 
ATOM      6  S   UNL     1      49.914   5.289  18.033  0.00  0.00    +0.000 S 
ATOM      7  C   UNL     1      48.887   6.637  18.179  0.00  0.00    +0.000 A 
ATOM      8  N   UNL     1      48.129   6.828  19.292  0.00  0.00    +0.000 NA
ATOM      9  C   UNL     1      47.455   7.925  19.289  0.00  0.00    +0.000 A 
ATOM     10  N   UNL     1      47.437   8.834  18.258  0.00  0.00    +0.000 N 
ATOM     11  C   UNL     1      48.076   8.616  17.056  0.00  0.00    +0.000 A 
ATOM     12  O   UNL     1      47.843   9.309  16.076  0.00  0.00    +0.000 OA
ATOM     13  C   UNL     1      48.953   7.457  17.068  0.00  0.00    +0.000 A 
ATOM     14  H   UNL     1      46.830   9.637  18.290  0.00  0.00    +0.000 HD
ENDBRANCH   2   4
BRANCH   1  15
ATOM     15  C   UNL     1      50.160   8.173  12.468  0.00  0.00    +0.000 C 
BRANCH  15  17
ATOM     16  C   UNL     1      49.157  10.135  11.168  0.00  0.00    +0.000 C 
ATOM     17  C   UNL     1      49.857   9.671  12.436  0.00  0.00    +0.000 C 
ENDBRANCH  15  17
ENDBRANCH   1  15
BRANCH   1  18
ATOM     18  C   UNL     1      48.611   6.459  13.561  0.00  0.00    +0.000 C 
BRANCH  18  19
ATOM     19  C   UNL     1      47.205   6.765  13.110  0.00  0.00    +0.000 A 
ATOM     20  C   UNL     1      46.761   8.091  13.007  0.00  0.00    +0.000 A 
ATOM     21  C   UNL     1      45.582   8.391  12.329  0.00  0.00    +0.000 A 
ATOM     22  C   UNL     1      44.822   7.370  11.759  0.00  0.00    +0.000 A 
ATOM     23  C   UNL     1      45.211   6.032  11.899  0.00  0.00    +0.000 A 
ATOM     24  C   UNL     1      46.404   5.739  12.578  0.00  0.00    +0.000 A 
BRANCH  23  25
ATOM     25  C   UNL     1      44.335   4.924  11.359  0.00  0.00    +0.000 C 
BRANCH  25  26
ATOM     26  C   UNL     1      44.968   4.222  10.186  0.00  0.00    +0.000 A 
ATOM     27  C   UNL     1      45.550   4.935   9.134  0.00  0.00    +0.000 A 
ATOM     28  C   UNL     1      46.035   4.251   8.023  0.00  0.00    +0.000 A 
ATOM     29  C   UNL     1      45.931   2.870   8.005  0.00  0.00    +0.000 A 
ATOM     30  N   UNL     1      45.395   2.145   9.009  0.00  0.00    +0.000 NA
ATOM     31  C   UNL     1      44.921   2.836  10.070  0.00  0.00    +0.000 A 
ENDBRANCH  25  26
ENDBRANCH  23  25
ENDBRANCH  18  19
ENDBRANCH   1  18
TORSDOF 7
ENDMDL
