MODEL 1
REMARK VINA RESULT:    -8.690      0.000      0.000
REMARK INTER + INTRA:         -13.387
REMARK INTER:                 -12.754
REMARK INTRA:                  -0.633
REMARK UNBOUND:                -0.633
REMARK  Name = 
REMARK  9 active torsions:
REMARK  status: ('A' for Active; 'I' for Inactive)
REMARK    1  A    between atoms: C_1  and  C_2
REMARK    2  A    between atoms: C_2  and  N_3
REMARK    3  A    between atoms: C_2  and  C_20
REMARK    4  A    between atoms: N_3  and  C_4
REMARK    5  A    between atoms: C_4  and  C_5
REMARK    6  A    between atoms: C_8  and  C_9
REMARK    7  A    between atoms: C_9  and  N_10
REMARK    8  A    between atoms: N_10  and  C_11
REMARK    9  A    between atoms: C_11  and  C_12
REMARK                            x       y       z     vdW  Elec       q    Type
REMARK                         _______ _______ _______ _____ _____    ______ ____
ROOT
ATOM      1  C   UNL     1      47.840   5.663  14.615  0.00  0.00    +0.000 C 
ENDROOT
BRANCH   1   2
ATOM      2  C   UNL     1      46.795   5.415  13.551  0.00  0.00    +0.000 A 
ATOM      3  C   UNL     1      46.559   6.380  12.562  0.00  0.00    +0.000 A 
ATOM      4  C   UNL     1      45.568   6.187  11.602  0.00  0.00    +0.000 A 
ATOM      5  C   UNL     1      44.797   5.015  11.602  0.00  0.00    +0.000 A 
ATOM      6  C   UNL     1      45.051   4.039  12.575  0.00  0.00    +0.000 A 
ATOM      7  C   UNL     1      46.039   4.238  13.542  0.00  0.00    +0.000 A 
BRANCH   5   8
ATOM      8  C   UNL     1      43.687   4.828  10.594  0.00  0.00    +0.000 C 
BRANCH   8   9
ATOM      9  N   UNL     1      44.219   4.369   9.316  0.00  0.00    +0.000 NA
ATOM     10  H   UNL     1      45.147   4.774   9.185  0.00  0.00    +0.000 HD
BRANCH   9  11
ATOM     11  C   UNL     1      44.337   2.908   9.282  0.00  0.00    +0.000 C 
BRANCH  11  12
ATOM     12  C   UNL     1      45.516   2.463   8.447  0.00  0.00    +0.000 A 
ATOM     13  C   UNL     1      46.217   3.370   7.663  0.00  0.00    +0.000 A 
ATOM     14  C   UNL     1      47.294   2.915   6.916  0.00  0.00    +0.000 A 
ATOM     15  C   UNL     1      47.610   1.575   6.989  0.00  0.00    +0.000 A 
ATOM     16  N   UNL     1      46.921   0.706   7.756  0.00  0.00    +0.000 NA
ATOM     17  N   UNL     1      45.863   1.156   8.493  0.00  0.00    +0.000 NA
ENDBRANCH  11  12
ENDBRANCH   9  11
ENDBRANCH   8   9
ENDBRANCH   5   8
ENDBRANCH   1   2
BRANCH   1  18
ATOM     18  N   UNL     1      48.078   4.437  15.371  0.00  0.00    +0.000 NA
ATOM     19  H   UNL     1      49.040   4.143  15.201  0.00  0.00    +0.000 HD
BRANCH  18  21
ATOM     20  C   UNL     1      46.995   3.492  17.431  0.00  0.00    +0.000 C 
ATOM     21  C   UNL     1      47.888   4.576  16.818  0.00  0.00    +0.000 C 
BRANCH  21  22
ATOM     22  C   UNL     1      49.279   4.537  17.420  0.00  0.00    +0.000 A 
ATOM     23  C   UNL     1      49.852   5.584  18.132  0.00  0.00    +0.000 A 
ATOM     24  S   UNL     1      51.413   5.229  18.719  0.00  0.00    +0.000 S 
ATOM     25  C   UNL     1      51.374   3.666  18.044  0.00  0.00    +0.000 A 
ATOM     26  N   UNL     1      52.419   2.808  18.194  0.00  0.00    +0.000 NA
ATOM     27  C   UNL     1      52.235   1.651  17.651  0.00  0.00    +0.000 A 
ATOM     28  N   UNL     1      51.109   1.275  16.963  0.00  0.00    +0.000 N 
ATOM     29  C   UNL     1      50.046   2.121  16.746  0.00  0.00    +0.000 A 
ATOM     30  O   UNL     1      49.082   1.773  16.072  0.00  0.00    +0.000 OA
ATOM     31  C   UNL     1      50.192   3.423  17.369  0.00  0.00    +0.000 A 
ATOM     32  H   UNL     1      51.036   0.357  16.551  0.00  0.00    +0.000 HD
ENDBRANCH  21  22
ENDBRANCH  18  21
ENDBRANCH   1  18
TORSDOF 8
ENDMDL
MODEL 2
REMARK VINA RESULT:    -8.657      2.182      2.898
REMARK INTER + INTRA:         -13.339
REMARK INTER:                 -12.026
REMARK INTRA:                  -1.314
REMARK UNBOUND:                -0.633
REMARK  Name = 
REMARK  9 active torsions:
REMARK  status: ('A' for Active; 'I' for Inactive)
REMARK    1  A    between atoms: C_1  and  C_2
REMARK    2  A    between atoms: C_2  and  N_3
REMARK    3  A    between atoms: C_2  and  C_20
REMARK    4  A    between atoms: N_3  and  C_4
REMARK    5  A    between atoms: C_4  and  C_5
REMARK    6  A    between atoms: C_8  and  C_9
REMARK    7  A    between atoms: C_9  and  N_10
REMARK    8  A    between atoms: N_10  and  C_11
REMARK    9  A    between atoms: C_11  and  C_12
REMARK                            x       y       z     vdW  Elec       q    Type
REMARK                         _______ _______ _______ _____ _____    ______ ____
ROOT
ATOM      1  C   UNL     1      46.543   8.234  12.977  0.00  0.00    +0.000 C 
ENDROOT
BRANCH   1   2
ATOM      2  C   UNL     1      45.883   7.036  12.334  0.00  0.00    +0.000 A 
ATOM      3  C   UNL     1      46.417   6.486  11.160  0.00  0.00    +0.000 A 
ATOM      4  C   UNL     1      45.794   5.411  10.530  0.00  0.00    +0.000 A 
ATOM      5  C   UNL     1      44.625   4.852  11.069  0.00  0.00    +0.000 A 
ATOM      6  C   UNL     1      44.106   5.384  12.256  0.00  0.00    +0.000 A 
ATOM      7  C   UNL     1      44.727   6.468  12.882  0.00  0.00    +0.000 A 
BRANCH   5   8
ATOM      8  C   UNL     1      43.920   3.720  10.359  0.00  0.00    +0.000 C 
BRANCH   8   9
ATOM      9  N   UNL     1      44.753   2.523  10.335  0.00  0.00    +0.000 NA
ATOM     10  H   UNL     1      44.468   1.912  11.101  0.00  0.00    +0.000 HD
BRANCH   9  11
ATOM     11  C   UNL     1      44.597   1.792   9.073  0.00  0.00    +0.000 C 
BRANCH  11  12
ATOM     12  C   UNL     1      45.799   1.968   8.175  0.00  0.00    +0.000 A 
ATOM     13  C   UNL     1      46.072   3.193   7.579  0.00  0.00    +0.000 A 
ATOM     14  C   UNL     1      47.189   3.307   6.765  0.00  0.00    +0.000 A 
ATOM     15  C   UNL     1      47.973   2.187   6.585  0.00  0.00    +0.000 A 
ATOM     16  N   UNL     1      47.698   1.005   7.171  0.00  0.00    +0.000 NA
ATOM     17  N   UNL     1      46.600   0.895   7.975  0.00  0.00    +0.000 NA
ENDBRANCH  11  12
ENDBRANCH   9  11
ENDBRANCH   8   9
ENDBRANCH   5   8
ENDBRANCH   1   2
BRANCH   1  18
ATOM     18  N   UNL     1      47.204   7.830  14.214  0.00  0.00    +0.000 NA
ATOM     19  H   UNL     1      46.550   7.257  14.748  0.00  0.00    +0.000 HD
BRANCH  18  21
ATOM     20  C   UNL     1      49.576   7.870  13.390  0.00  0.00    +0.000 C 
ATOM     21  C   UNL     1      48.435   7.060  14.015  0.00  0.00    +0.000 C 
BRANCH  21  22
ATOM     22  C   UNL     1      48.825   6.545  15.387  0.00  0.00    +0.000 A 
ATOM     23  C   UNL     1      49.767   7.149  16.210  0.00  0.00    +0.000 A 
ATOM     24  S   UNL     1      49.962   6.361  17.709  0.00  0.00    +0.000 S 
ATOM     25  C   UNL     1      48.792   5.190  17.310  0.00  0.00    +0.000 A 
ATOM     26  N   UNL     1      48.457   4.203  18.184  0.00  0.00    +0.000 NA
ATOM     27  C   UNL     1      47.538   3.405  17.754  0.00  0.00    +0.000 A 
ATOM     28  N   UNL     1      46.929   3.494  16.528  0.00  0.00    +0.000 N 
ATOM     29  C   UNL     1      47.264   4.447  15.592  0.00  0.00    +0.000 A 
ATOM     30  O   UNL     1      46.745   4.459  14.481  0.00  0.00    +0.000 OA
ATOM     31  C   UNL     1      48.271   5.389  16.046  0.00  0.00    +0.000 A 
ATOM     32  H   UNL     1      46.225   2.828  16.248  0.00  0.00    +0.000 HD
ENDBRANCH  21  22
ENDBRANCH  18  21
ENDBRANCH   1  18
TORSDOF 8
ENDMDL
MODEL 3
REMARK VINA RESULT:    -8.178      2.017      2.819
REMARK INTER + INTRA:         -12.635
REMARK INTER:                 -11.470
REMARK INTRA:                  -1.165
REMARK UNBOUND:                -0.633
REMARK  Name = 
REMARK  9 active torsions:
REMARK  status: ('A' for Active; 'I' for Inactive)
REMARK    1  A    between atoms: C_1  and  C_2
REMARK    2  A    between atoms: C_2  and  N_3
REMARK    3  A    between atoms: C_2  and  C_20
REMARK    4  A    between atoms: N_3  and  C_4
REMARK    5  A    between atoms: C_4  and  C_5
REMARK    6  A    between atoms: C_8  and  C_9
REMARK    7  A    between atoms: C_9  and  N_10
REMARK    8  A    between atoms: N_10  and  C_11
REMARK    9  A    between atoms: C_11  and  C_12
REMARK                            x       y       z     vdW  Elec       q    Type
REMARK                         _______ _______ _______ _____ _____    ______ ____
ROOT
ATOM      1  C   UNL     1      47.956   6.923  13.545  0.00  0.00    +0.000 C 
ENDROOT
BRANCH   1   2
ATOM      2  C   UNL     1      46.860   6.104  12.902  0.00  0.00    +0.000 A 
ATOM      3  C   UNL     1      46.269   5.047  13.608  0.00  0.00    +0.000 A 
ATOM      4  C   UNL     1      45.290   4.254  13.014  0.00  0.00    +0.000 A 
ATOM      5  C   UNL     1      44.870   4.509  11.700  0.00  0.00    +0.000 A 
ATOM      6  C   UNL     1      45.441   5.582  11.004  0.00  0.00    +0.000 A 
ATOM      7  C   UNL     1      46.429   6.371  11.598  0.00  0.00    +0.000 A 
BRANCH   5   8
ATOM      8  C   UNL     1      43.846   3.618  11.036  0.00  0.00    +0.000 C 
BRANCH   8   9
ATOM      9  N   UNL     1      44.142   3.454   9.617  0.00  0.00    +0.000 NA
ATOM     10  H   UNL     1      44.870   4.121   9.357  0.00  0.00    +0.000 HD
BRANCH   9  11
ATOM     11  C   UNL     1      44.623   2.100   9.326  0.00  0.00    +0.000 C 
BRANCH  11  12
ATOM     12  C   UNL     1      45.746   2.112   8.315  0.00  0.00    +0.000 A 
ATOM     13  C   UNL     1      46.098   3.282   7.654  0.00  0.00    +0.000 A 
ATOM     14  C   UNL     1      47.138   3.244   6.737  0.00  0.00    +0.000 A 
ATOM     15  C   UNL     1      47.769   2.036   6.526  0.00  0.00    +0.000 A 
ATOM     16  N   UNL     1      47.418   0.909   7.176  0.00  0.00    +0.000 NA
ATOM     17  N   UNL     1      46.396   0.948   8.081  0.00  0.00    +0.000 NA
ENDBRANCH  11  12
ENDBRANCH   9  11
ENDBRANCH   8   9
ENDBRANCH   5   8
ENDBRANCH   1   2
BRANCH   1  18
ATOM     18  N   UNL     1      48.607   6.145  14.593  0.00  0.00    +0.000 NA
ATOM     19  H   UNL     1      49.034   5.326  14.159  0.00  0.00    +0.000 HD
BRANCH  18  21
ATOM     20  C   UNL     1      50.007   8.227  14.704  0.00  0.00    +0.000 C 
ATOM     21  C   UNL     1      49.648   6.873  15.325  0.00  0.00    +0.000 C 
BRANCH  21  22
ATOM     22  C   UNL     1      49.114   7.047  16.734  0.00  0.00    +0.000 A 
ATOM     23  C   UNL     1      48.550   8.222  17.216  0.00  0.00    +0.000 A 
ATOM     24  S   UNL     1      48.005   8.100  18.827  0.00  0.00    +0.000 S 
ATOM     25  C   UNL     1      48.502   6.475  18.932  0.00  0.00    +0.000 A 
ATOM     26  N   UNL     1      48.311   5.752  20.069  0.00  0.00    +0.000 NA
ATOM     27  C   UNL     1      48.713   4.528  19.992  0.00  0.00    +0.000 A 
ATOM     28  N   UNL     1      49.300   3.961  18.888  0.00  0.00    +0.000 N 
ATOM     29  C   UNL     1      49.556   4.662  17.732  0.00  0.00    +0.000 A 
ATOM     30  O   UNL     1      50.140   4.142  16.787  0.00  0.00    +0.000 OA
ATOM     31  C   UNL     1      49.087   6.036  17.759  0.00  0.00    +0.000 A 
ATOM     32  H   UNL     1      49.605   3.000  18.899  0.00  0.00    +0.000 HD
ENDBRANCH  21  22
ENDBRANCH  18  21
ENDBRANCH   1  18
TORSDOF 8
ENDMDL
MODEL 4
REMARK VINA RESULT:    -7.899      4.440      6.610
REMARK INTER + INTRA:         -12.226
REMARK INTER:                 -10.701
REMARK INTRA:                  -1.525
REMARK UNBOUND:                -0.633
REMARK  Name = 
REMARK  9 active torsions:
REMARK  status: ('A' for Active; 'I' for Inactive)
REMARK    1  A    between atoms: C_1  and  C_2
REMARK    2  A    between atoms: C_2  and  N_3
REMARK    3  A    between atoms: C_2  and  C_20
REMARK    4  A    between atoms: N_3  and  C_4
REMARK    5  A    between atoms: C_4  and  C_5
REMARK    6  A    between atoms: C_8  and  C_9
REMARK    7  A    between atoms: C_9  and  N_10
REMARK    8  A    between atoms: N_10  and  C_11
REMARK    9  A    between atoms: C_11  and  C_12
REMARK                            x       y       z     vdW  Elec       q    Type
REMARK                         _______ _______ _______ _____ _____    ______ ____
ROOT
ATOM      1  C   UNL     1      48.085   6.550  13.699  0.00  0.00    +0.000 C 
ENDROOT
BRANCH   1   2
ATOM      2  C   UNL     1      46.945   6.031  12.853  0.00  0.00    +0.000 A 
ATOM      3  C   UNL     1      46.815   6.447  11.520  0.00  0.00    +0.000 A 
ATOM      4  C   UNL     1      45.744   6.013  10.741  0.00  0.00    +0.000 A 
ATOM      5  C   UNL     1      44.784   5.140  11.275  0.00  0.00    +0.000 A 
ATOM      6  C   UNL     1      44.930   4.703  12.598  0.00  0.00    +0.000 A 
ATOM      7  C   UNL     1      45.999   5.146  13.381  0.00  0.00    +0.000 A 
BRANCH   5   8
ATOM      8  C   UNL     1      43.595   4.710  10.448  0.00  0.00    +0.000 C 
BRANCH   8   9
ATOM      9  N   UNL     1      44.026   4.144   9.174  0.00  0.00    +0.000 NA
ATOM     10  H   UNL     1      44.851   4.652   8.855  0.00  0.00    +0.000 HD
BRANCH   9  11
ATOM     11  C   UNL     1      44.373   2.726   9.312  0.00  0.00    +0.000 C 
BRANCH  11  12
ATOM     12  C   UNL     1      45.562   2.358   8.455  0.00  0.00    +0.000 A 
ATOM     13  C   UNL     1      46.221   3.319   7.698  0.00  0.00    +0.000 A 
ATOM     14  C   UNL     1      47.309   2.933   6.929  0.00  0.00    +0.000 A 
ATOM     15  C   UNL     1      47.678   1.604   6.953  0.00  0.00    +0.000 A 
ATOM     16  N   UNL     1      47.030   0.684   7.694  0.00  0.00    +0.000 NA
ATOM     17  N   UNL     1      45.961   1.065   8.453  0.00  0.00    +0.000 NA
ENDBRANCH  11  12
ENDBRANCH   9  11
ENDBRANCH   8   9
ENDBRANCH   5   8
ENDBRANCH   1   2
BRANCH   1  18
ATOM     18  N   UNL     1      48.604   7.788  13.125  0.00  0.00    +0.000 NA
ATOM     19  H   UNL     1      48.295   7.839  12.154  0.00  0.00    +0.000 HD
BRANCH  18  21
ATOM     20  C   UNL     1      49.103   9.461  14.931  0.00  0.00    +0.000 C 
ATOM     21  C   UNL     1      48.159   9.003  13.814  0.00  0.00    +0.000 C 
BRANCH  21  22
ATOM     22  C   UNL     1      48.037  10.064  12.738  0.00  0.00    +0.000 A 
ATOM     23  C   UNL     1      49.094  10.844  12.286  0.00  0.00    +0.000 A 
ATOM     24  S   UNL     1      48.655  11.924  11.042  0.00  0.00    +0.000 S 
ATOM     25  C   UNL     1      47.041  11.384  11.064  0.00  0.00    +0.000 A 
ATOM     26  N   UNL     1      46.114  11.900  10.212  0.00  0.00    +0.000 NA
ATOM     27  C   UNL     1      44.940  11.375  10.327  0.00  0.00    +0.000 A 
ATOM     28  N   UNL     1      44.603  10.390  11.221  0.00  0.00    +0.000 N 
ATOM     29  C   UNL     1      45.492   9.868  12.132  0.00  0.00    +0.000 A 
ATOM     30  O   UNL     1      45.141   9.033  12.959  0.00  0.00    +0.000 OA
ATOM     31  C   UNL     1      46.836  10.403  12.017  0.00  0.00    +0.000 A 
ATOM     32  H   UNL     1      43.660  10.032  11.267  0.00  0.00    +0.000 HD
ENDBRANCH  21  22
ENDBRANCH  18  21
ENDBRANCH   1  18
TORSDOF 8
ENDMDL
MODEL 5
REMARK VINA RESULT:    -7.775      1.700      2.181
REMARK INTER + INTRA:         -12.044
REMARK INTER:                 -11.055
REMARK INTRA:                  -0.990
REMARK UNBOUND:                -0.633
REMARK  Name = 
REMARK  9 active torsions:
REMARK  status: ('A' for Active; 'I' for Inactive)
REMARK    1  A    between atoms: C_1  and  C_2
REMARK    2  A    between atoms: C_2  and  N_3
REMARK    3  A    between atoms: C_2  and  C_20
REMARK    4  A    between atoms: N_3  and  C_4
REMARK    5  A    between atoms: C_4  and  C_5
REMARK    6  A    between atoms: C_8  and  C_9
REMARK    7  A    between atoms: C_9  and  N_10
REMARK    8  A    between atoms: N_10  and  C_11
REMARK    9  A    between atoms: C_11  and  C_12
REMARK                            x       y       z     vdW  Elec       q    Type
REMARK                         _______ _______ _______ _____ _____    ______ ____
ROOT
ATOM      1  C   UNL     1      48.879   7.131  14.830  0.00  0.00    +0.000 C 
ENDROOT
BRANCH   1   2
ATOM      2  C   UNL     1      47.966   6.660  13.722  0.00  0.00    +0.000 A 
ATOM      3  C   UNL     1      47.886   7.384  12.524  0.00  0.00    +0.000 A 
ATOM      4  C   UNL     1      47.015   6.989  11.511  0.00  0.00    +0.000 A 
ATOM      5  C   UNL     1      46.211   5.850  11.668  0.00  0.00    +0.000 A 
ATOM      6  C   UNL     1      46.311   5.111  12.854  0.00  0.00    +0.000 A 
ATOM      7  C   UNL     1      47.178   5.513  13.873  0.00  0.00    +0.000 A 
BRANCH   5   8
ATOM      8  C   UNL     1      45.230   5.450  10.592  0.00  0.00    +0.000 C 
BRANCH   8   9
ATOM      9  N   UNL     1      44.967   4.015  10.635  0.00  0.00    +0.000 NA
ATOM     10  H   UNL     1      44.293   3.829  11.378  0.00  0.00    +0.000 HD
BRANCH   9  11
ATOM     11  C   UNL     1      44.408   3.539   9.366  0.00  0.00    +0.000 C 
BRANCH  11  12
ATOM     12  C   UNL     1      45.442   2.811   8.539  0.00  0.00    +0.000 A 
ATOM     13  C   UNL     1      46.203   3.486   7.593  0.00  0.00    +0.000 A 
ATOM     14  C   UNL     1      47.142   2.776   6.860  0.00  0.00    +0.000 A 
ATOM     15  C   UNL     1      47.267   1.425   7.109  0.00  0.00    +0.000 A 
ATOM     16  N   UNL     1      46.523   0.783   8.031  0.00  0.00    +0.000 NA
ATOM     17  N   UNL     1      45.601   1.484   8.754  0.00  0.00    +0.000 NA
ENDBRANCH  11  12
ENDBRANCH   9  11
ENDBRANCH   8   9
ENDBRANCH   5   8
ENDBRANCH   1   2
BRANCH   1  18
ATOM     18  N   UNL     1      48.153   7.149  16.096  0.00  0.00    +0.000 NA
ATOM     19  H   UNL     1      47.333   6.551  15.998  0.00  0.00    +0.000 HD
BRANCH  18  21
ATOM     20  C   UNL     1      48.503   7.291  18.580  0.00  0.00    +0.000 C 
ATOM     21  C   UNL     1      48.933   6.676  17.244  0.00  0.00    +0.000 C 
BRANCH  21  22
ATOM     22  C   UNL     1      48.764   5.169  17.262  0.00  0.00    +0.000 A 
ATOM     23  C   UNL     1      47.540   4.519  17.162  0.00  0.00    +0.000 A 
ATOM     24  S   UNL     1      47.674   2.819  17.173  0.00  0.00    +0.000 S 
ATOM     25  C   UNL     1      49.369   2.896  17.308  0.00  0.00    +0.000 A 
ATOM     26  N   UNL     1      50.124   1.765  17.353  0.00  0.00    +0.000 NA
ATOM     27  C   UNL     1      51.394   1.979  17.430  0.00  0.00    +0.000 A 
ATOM     28  N   UNL     1      51.981   3.219  17.476  0.00  0.00    +0.000 N 
ATOM     29  C   UNL     1      51.259   4.390  17.479  0.00  0.00    +0.000 A 
ATOM     30  O   UNL     1      51.812   5.480  17.586  0.00  0.00    +0.000 OA
ATOM     31  C   UNL     1      49.826   4.199  17.358  0.00  0.00    +0.000 A 
ATOM     32  H   UNL     1      52.983   3.316  17.550  0.00  0.00    +0.000 HD
ENDBRANCH  21  22
ENDBRANCH  18  21
ENDBRANCH   1  18
TORSDOF 8
ENDMDL
MODEL 6
REMARK VINA RESULT:    -7.576      2.081      2.541
REMARK INTER + INTRA:         -11.752
REMARK INTER:                 -10.720
REMARK INTRA:                  -1.032
REMARK UNBOUND:                -0.633
REMARK  Name = 
REMARK  9 active torsions:
REMARK  status: ('A' for Active; 'I' for Inactive)
REMARK    1  A    between atoms: C_1  and  C_2
REMARK    2  A    between atoms: C_2  and  N_3
REMARK    3  A    between atoms: C_2  and  C_20
REMARK    4  A    between atoms: N_3  and  C_4
REMARK    5  A    between atoms: C_4  and  C_5
REMARK    6  A    between atoms: C_8  and  C_9
REMARK    7  A    between atoms: C_9  and  N_10
REMARK    8  A    between atoms: N_10  and  C_11
REMARK    9  A    between atoms: C_11  and  C_12
REMARK                            x       y       z     vdW  Elec       q    Type
REMARK                         _______ _______ _______ _____ _____    ______ ____
ROOT
ATOM      1  C   UNL     1      48.075   7.018  13.297  0.00  0.00    +0.000 C 
ENDROOT
BRANCH   1   2
ATOM      2  C   UNL     1      46.940   6.192  12.737  0.00  0.00    +0.000 A 
ATOM      3  C   UNL     1      46.404   6.497  11.479  0.00  0.00    +0.000 A 
ATOM      4  C   UNL     1      45.328   5.774  10.968  0.00  0.00    +0.000 A 
ATOM      5  C   UNL     1      44.770   4.717  11.703  0.00  0.00    +0.000 A 
ATOM      6  C   UNL     1      45.323   4.394  12.949  0.00  0.00    +0.000 A 
ATOM      7  C   UNL     1      46.397   5.125  13.463  0.00  0.00    +0.000 A 
BRANCH   5   8
ATOM      8  C   UNL     1      43.571   3.965  11.175  0.00  0.00    +0.000 C 
BRANCH   8   9
ATOM      9  N   UNL     1      43.695   3.733   9.740  0.00  0.00    +0.000 NA
ATOM     10  H   UNL     1      44.242   4.492   9.332  0.00  0.00    +0.000 HD
BRANCH   9  11
ATOM     11  C   UNL     1      44.378   2.465   9.463  0.00  0.00    +0.000 C 
BRANCH  11  12
ATOM     12  C   UNL     1      45.465   2.631   8.428  0.00  0.00    +0.000 A 
ATOM     13  C   UNL     1      46.308   1.576   8.102  0.00  0.00    +0.000 A 
ATOM     14  C   UNL     1      47.290   1.776   7.143  0.00  0.00    +0.000 A 
ATOM     15  C   UNL     1      47.380   3.024   6.562  0.00  0.00    +0.000 A 
ATOM     16  N   UNL     1      46.554   4.038   6.887  0.00  0.00    +0.000 NA
ATOM     17  N   UNL     1      45.586   3.839   7.829  0.00  0.00    +0.000 NA
ENDBRANCH  11  12
ENDBRANCH   9  11
ENDBRANCH   8   9
ENDBRANCH   5   8
ENDBRANCH   1   2
BRANCH   1  18
ATOM     18  N   UNL     1      48.806   6.244  14.295  0.00  0.00    +0.000 NA
ATOM     19  H   UNL     1      49.567   5.757  13.822  0.00  0.00    +0.000 HD
BRANCH  18  21
ATOM     20  C   UNL     1      48.534   8.271  15.754  0.00  0.00    +0.000 C 
ATOM     21  C   UNL     1      49.378   7.048  15.379  0.00  0.00    +0.000 C 
BRANCH  21  22
ATOM     22  C   UNL     1      49.520   6.106  16.559  0.00  0.00    +0.000 A 
ATOM     23  C   UNL     1      48.450   5.542  17.242  0.00  0.00    +0.000 A 
ATOM     24  S   UNL     1      48.926   4.492  18.499  0.00  0.00    +0.000 S 
ATOM     25  C   UNL     1      50.575   4.755  18.171  0.00  0.00    +0.000 A 
ATOM     26  N   UNL     1      51.545   4.129  18.891  0.00  0.00    +0.000 NA
ATOM     27  C   UNL     1      52.748   4.405  18.512  0.00  0.00    +0.000 A 
ATOM     28  N   UNL     1      53.073   5.257  17.486  0.00  0.00    +0.000 N 
ATOM     29  C   UNL     1      52.131   5.947  16.758  0.00  0.00    +0.000 A 
ATOM     30  O   UNL     1      52.458   6.749  15.890  0.00  0.00    +0.000 OA
ATOM     31  C   UNL     1      50.761   5.641  17.126  0.00  0.00    +0.000 A 
ATOM     32  H   UNL     1      54.036   5.440  17.249  0.00  0.00    +0.000 HD
ENDBRANCH  21  22
ENDBRANCH  18  21
ENDBRANCH   1  18
TORSDOF 8
ENDMDL
MODEL 7
REMARK VINA RESULT:    -7.538      4.379      6.621
REMARK INTER + INTRA:         -11.696
REMARK INTER:                 -10.855
REMARK INTRA:                  -0.841
REMARK UNBOUND:                -0.633
REMARK  Name = 
REMARK  9 active torsions:
REMARK  status: ('A' for Active; 'I' for Inactive)
REMARK    1  A    between atoms: C_1  and  C_2
REMARK    2  A    between atoms: C_2  and  N_3
REMARK    3  A    between atoms: C_2  and  C_20
REMARK    4  A    between atoms: N_3  and  C_4
REMARK    5  A    between atoms: C_4  and  C_5
REMARK    6  A    between atoms: C_8  and  C_9
REMARK    7  A    between atoms: C_9  and  N_10
REMARK    8  A    between atoms: N_10  and  C_11
REMARK    9  A    between atoms: C_11  and  C_12
REMARK                            x       y       z     vdW  Elec       q    Type
REMARK                         _______ _______ _______ _____ _____    ______ ____
ROOT
ATOM      1  C   UNL     1      47.680   6.081  14.292  0.00  0.00    +0.000 C 
ENDROOT
BRANCH   1   2
ATOM      2  C   UNL     1      46.611   5.271  13.596  0.00  0.00    +0.000 A 
ATOM      3  C   UNL     1      45.393   5.870  13.245  0.00  0.00    +0.000 A 
ATOM      4  C   UNL     1      44.381   5.126  12.644  0.00  0.00    +0.000 A 
ATOM      5  C   UNL     1      44.568   3.763  12.368  0.00  0.00    +0.000 A 
ATOM      6  C   UNL     1      45.795   3.170  12.694  0.00  0.00    +0.000 A 
ATOM      7  C   UNL     1      46.807   3.916  13.305  0.00  0.00    +0.000 A 
BRANCH   5   8
ATOM      8  C   UNL     1      43.453   2.942  11.765  0.00  0.00    +0.000 C 
BRANCH   8   9
ATOM      9  N   UNL     1      43.902   2.269  10.551  0.00  0.00    +0.000 NA
ATOM     10  H   UNL     1      43.129   1.714  10.181  0.00  0.00    +0.000 HD
BRANCH   9  11
ATOM     11  C   UNL     1      44.315   3.235   9.528  0.00  0.00    +0.000 C 
BRANCH  11  12
ATOM     12  C   UNL     1      45.359   2.654   8.602  0.00  0.00    +0.000 A 
ATOM     13  C   UNL     1      45.986   3.446   7.648  0.00  0.00    +0.000 A 
ATOM     14  C   UNL     1      46.940   2.869   6.823  0.00  0.00    +0.000 A 
ATOM     15  C   UNL     1      47.214   1.528   6.993  0.00  0.00    +0.000 A 
ATOM     16  N   UNL     1      46.599   0.773   7.924  0.00  0.00    +0.000 NA
ATOM     17  N   UNL     1      45.663   1.342   8.738  0.00  0.00    +0.000 NA
ENDBRANCH  11  12
ENDBRANCH   9  11
ENDBRANCH   8   9
ENDBRANCH   5   8
ENDBRANCH   1   2
BRANCH   1  18
ATOM     18  N   UNL     1      47.376   7.504  14.178  0.00  0.00    +0.000 NA
ATOM     19  H   UNL     1      47.526   7.933  15.092  0.00  0.00    +0.000 HD
BRANCH  18  21
ATOM     20  C   UNL     1      48.841   7.303  12.147  0.00  0.00    +0.000 C 
ATOM     21  C   UNL     1      48.197   8.217  13.195  0.00  0.00    +0.000 C 
BRANCH  21  22
ATOM     22  C   UNL     1      47.271   9.224  12.540  0.00  0.00    +0.000 A 
ATOM     23  C   UNL     1      45.888   9.101  12.496  0.00  0.00    +0.000 A 
ATOM     24  S   UNL     1      45.115  10.411  11.725  0.00  0.00    +0.000 S 
ATOM     25  C   UNL     1      46.602  11.186  11.427  0.00  0.00    +0.000 A 
ATOM     26  N   UNL     1      46.654  12.391  10.798  0.00  0.00    +0.000 NA
ATOM     27  C   UNL     1      47.846  12.868  10.666  0.00  0.00    +0.000 A 
ATOM     28  N   UNL     1      48.993  12.249  11.094  0.00  0.00    +0.000 N 
ATOM     29  C   UNL     1      48.996  11.011  11.695  0.00  0.00    +0.000 A 
ATOM     30  O   UNL     1      50.045  10.457  12.008  0.00  0.00    +0.000 OA
ATOM     31  C   UNL     1      47.673  10.450  11.897  0.00  0.00    +0.000 A 
ATOM     32  H   UNL     1      49.897  12.671  10.947  0.00  0.00    +0.000 HD
ENDBRANCH  21  22
ENDBRANCH  18  21
ENDBRANCH   1  18
TORSDOF 8
ENDMDL
MODEL 8
REMARK VINA RESULT:    -7.465      2.142      2.592
REMARK INTER + INTRA:         -11.589
REMARK INTER:                 -10.721
REMARK INTRA:                  -0.868
REMARK UNBOUND:                -0.633
REMARK  Name = 
REMARK  9 active torsions:
REMARK  status: ('A' for Active; 'I' for Inactive)
REMARK    1  A    between atoms: C_1  and  C_2
REMARK    2  A    between atoms: C_2  and  N_3
REMARK    3  A    between atoms: C_2  and  C_20
REMARK    4  A    between atoms: N_3  and  C_4
REMARK    5  A    between atoms: C_4  and  C_5
REMARK    6  A    between atoms: C_8  and  C_9
REMARK    7  A    between atoms: C_9  and  N_10
REMARK    8  A    between atoms: N_10  and  C_11
REMARK    9  A    between atoms: C_11  and  C_12
REMARK                            x       y       z     vdW  Elec       q    Type
REMARK                         _______ _______ _______ _____ _____    ______ ____
ROOT
ATOM      1  C   UNL     1      47.337   4.328  15.297  0.00  0.00    +0.000 C 
ENDROOT
BRANCH   1   2
ATOM      2  C   UNL     1      46.738   4.712  13.963  0.00  0.00    +0.000 A 
ATOM      3  C   UNL     1      47.261   5.797  13.246  0.00  0.00    +0.000 A 
ATOM      4  C   UNL     1      46.691   6.192  12.037  0.00  0.00    +0.000 A 
ATOM      5  C   UNL     1      45.590   5.500  11.511  0.00  0.00    +0.000 A 
ATOM      6  C   UNL     1      45.084   4.399  12.214  0.00  0.00    +0.000 A 
ATOM      7  C   UNL     1      45.651   4.010  13.431  0.00  0.00    +0.000 A 
BRANCH   5   8
ATOM      8  C   UNL     1      44.939   5.959  10.227  0.00  0.00    +0.000 C 
BRANCH   8   9
ATOM      9  N   UNL     1      45.561   5.321   9.072  0.00  0.00    +0.000 NA
ATOM     10  H   UNL     1      46.527   5.090   9.309  0.00  0.00    +0.000 HD
BRANCH   9  11
ATOM     11  C   UNL     1      44.862   4.086   8.705  0.00  0.00    +0.000 C 
BRANCH  11  12
ATOM     12  C   UNL     1      45.803   3.070   8.102  0.00  0.00    +0.000 A 
ATOM     13  C   UNL     1      46.746   3.445   7.153  0.00  0.00    +0.000 A 
ATOM     14  C   UNL     1      47.590   2.477   6.630  0.00  0.00    +0.000 A 
ATOM     15  C   UNL     1      47.445   1.182   7.082  0.00  0.00    +0.000 A 
ATOM     16  N   UNL     1      46.527   0.833   8.004  0.00  0.00    +0.000 NA
ATOM     17  N   UNL     1      45.698   1.787   8.521  0.00  0.00    +0.000 NA
ENDBRANCH  11  12
ENDBRANCH   9  11
ENDBRANCH   8   9
ENDBRANCH   5   8
ENDBRANCH   1   2
BRANCH   1  18
ATOM     18  N   UNL     1      48.117   5.440  15.829  0.00  0.00    +0.000 NA
ATOM     19  H   UNL     1      47.593   6.300  15.665  0.00  0.00    +0.000 HD
BRANCH  18  21
ATOM     20  C   UNL     1      47.617   4.239  17.977  0.00  0.00    +0.000 C 
ATOM     21  C   UNL     1      48.404   5.342  17.263  0.00  0.00    +0.000 C 
BRANCH  21  22
ATOM     22  C   UNL     1      49.898   5.097  17.367  0.00  0.00    +0.000 A 
ATOM     23  C   UNL     1      50.465   3.978  17.964  0.00  0.00    +0.000 A 
ATOM     24  S   UNL     1      52.169   3.964  17.893  0.00  0.00    +0.000 S 
ATOM     25  C   UNL     1      52.203   5.449  17.061  0.00  0.00    +0.000 A 
ATOM     26  N   UNL     1      53.380   6.013  16.674  0.00  0.00    +0.000 NA
ATOM     27  C   UNL     1      53.248   7.124  16.030  0.00  0.00    +0.000 A 
ATOM     28  N   UNL     1      52.050   7.731  15.746  0.00  0.00    +0.000 N 
ATOM     29  C   UNL     1      50.838   7.224  16.154  0.00  0.00    +0.000 A 
ATOM     30  O   UNL     1      49.790   7.825  15.938  0.00  0.00    +0.000 OA
ATOM     31  C   UNL     1      50.934   5.955  16.852  0.00  0.00    +0.000 A 
ATOM     32  H   UNL     1      52.018   8.608  15.249  0.00  0.00    +0.000 HD
ENDBRANCH  21  22
ENDBRANCH  18  21
ENDBRANCH   1  18
TORSDOF 8
ENDMDL
MODEL 9
REMARK VINA RESULT:    -7.182      2.265      2.880
REMARK INTER + INTRA:         -11.173
REMARK INTER:                 -10.406
REMARK INTRA:                  -0.768
REMARK UNBOUND:                -0.633
REMARK  Name = 
REMARK  9 active torsions:
REMARK  status: ('A' for Active; 'I' for Inactive)
REMARK    1  A    between atoms: C_1  and  C_2
REMARK    2  A    between atoms: C_2  and  N_3
REMARK    3  A    between atoms: C_2  and  C_20
REMARK    4  A    between atoms: N_3  and  C_4
REMARK    5  A    between atoms: C_4  and  C_5
REMARK    6  A    between atoms: C_8  and  C_9
REMARK    7  A    between atoms: C_9  and  N_10
REMARK    8  A    between atoms: N_10  and  C_11
REMARK    9  A    between atoms: C_11  and  C_12
REMARK                            x       y       z     vdW  Elec       q    Type
REMARK                         _______ _______ _______ _____ _____    ______ ____
ROOT
ATOM      1  C   UNL     1      46.931   7.803  13.294  0.00  0.00    +0.000 C 
ENDROOT
BRANCH   1   2
ATOM      2  C   UNL     1      46.227   6.592  12.726  0.00  0.00    +0.000 A 
ATOM      3  C   UNL     1      45.542   6.686  11.507  0.00  0.00    +0.000 A 
ATOM      4  C   UNL     1      44.850   5.591  10.993  0.00  0.00    +0.000 A 
ATOM      5  C   UNL     1      44.837   4.370  11.684  0.00  0.00    +0.000 A 
ATOM      6  C   UNL     1      45.544   4.268  12.889  0.00  0.00    +0.000 A 
ATOM      7  C   UNL     1      46.231   5.369  13.408  0.00  0.00    +0.000 A 
BRANCH   5   8
ATOM      8  C   UNL     1      44.045   3.198  11.155  0.00  0.00    +0.000 C 
BRANCH   8   9
ATOM      9  N   UNL     1      44.127   3.129   9.700  0.00  0.00    +0.000 NA
ATOM     10  H   UNL     1      44.734   3.882   9.372  0.00  0.00    +0.000 HD
BRANCH   9  11
ATOM     11  C   UNL     1      44.690   1.849   9.259  0.00  0.00    +0.000 C 
BRANCH  11  12
ATOM     12  C   UNL     1      45.799   2.046   8.251  0.00  0.00    +0.000 A 
ATOM     13  C   UNL     1      45.975   3.267   7.613  0.00  0.00    +0.000 A 
ATOM     14  C   UNL     1      47.008   3.400   6.697  0.00  0.00    +0.000 A 
ATOM     15  C   UNL     1      47.809   2.302   6.464  0.00  0.00    +0.000 A 
ATOM     16  N   UNL     1      47.628   1.123   7.092  0.00  0.00    +0.000 NA
ATOM     17  N   UNL     1      46.612   0.994   7.995  0.00  0.00    +0.000 NA
ENDBRANCH  11  12
ENDBRANCH   9  11
ENDBRANCH   8   9
ENDBRANCH   5   8
ENDBRANCH   1   2
BRANCH   1  18
ATOM     18  N   UNL     1      48.144   7.389  13.992  0.00  0.00    +0.000 NA
ATOM     19  H   UNL     1      48.772   6.966  13.308  0.00  0.00    +0.000 HD
BRANCH  18  21
ATOM     20  C   UNL     1      48.095   9.089  15.840  0.00  0.00    +0.000 C 
ATOM     21  C   UNL     1      48.858   8.483  14.657  0.00  0.00    +0.000 C 
BRANCH  21  22
ATOM     22  C   UNL     1      50.181   7.894  15.110  0.00  0.00    +0.000 A 
ATOM     23  C   UNL     1      51.424   8.403  14.756  0.00  0.00    +0.000 A 
ATOM     24  S   UNL     1      52.727   7.552  15.452  0.00  0.00    +0.000 S 
ATOM     25  C   UNL     1      51.674   6.477  16.249  0.00  0.00    +0.000 A 
ATOM     26  N   UNL     1      52.152   5.485  17.047  0.00  0.00    +0.000 NA
ATOM     27  C   UNL     1      51.236   4.767  17.605  0.00  0.00    +0.000 A 
ATOM     28  N   UNL     1      49.886   4.941  17.432  0.00  0.00    +0.000 N 
ATOM     29  C   UNL     1      49.354   5.901  16.601  0.00  0.00    +0.000 A 
ATOM     30  O   UNL     1      48.145   5.988  16.419  0.00  0.00    +0.000 OA
ATOM     31  C   UNL     1      50.348   6.756  15.978  0.00  0.00    +0.000 A 
ATOM     32  H   UNL     1      49.221   4.334  17.889  0.00  0.00    +0.000 HD
ENDBRANCH  21  22
ENDBRANCH  18  21
ENDBRANCH   1  18
TORSDOF 8
ENDMDL
