MODEL 1
REMARK VINA RESULT:    -8.353      0.000      0.000
REMARK INTER + INTRA:         -12.708
REMARK INTER:                 -11.528
REMARK INTRA:                  -1.181
REMARK UNBOUND:                -1.181
REMARK  Name = 
REMARK  8 active torsions:
REMARK  status: ('A' for Active; 'I' for Inactive)
REMARK    1  A    between atoms: C_1  and  C_2
REMARK    2  A    between atoms: C_2  and  N_3
REMARK    3  A    between atoms: C_2  and  C_16
REMARK    4  A    between atoms: C_4  and  C_6
REMARK    5  A    between atoms: C_19  and  O_20
REMARK    6  A    between atoms: O_20  and  C_21
REMARK    7  A    between atoms: C_25  and  C_26
REMARK    8  A    between atoms: C_26  and  O_27
REMARK                            x       y       z     vdW  Elec       q    Type
REMARK                         _______ _______ _______ _____ _____    ______ ____
ROOT
ATOM      1  C   UNL     1      45.558   9.056  12.920  0.00  0.00    +0.000 C 
ATOM      2  C   UNL     1      46.648   7.986  12.768  0.00  0.00    +0.000 C 
ENDROOT
BRANCH   2   3
ATOM      3  C   UNL     1      46.112   6.909  11.833  0.00  0.00    +0.000 A 
ATOM      4  C   UNL     1      46.779   6.655  10.625  0.00  0.00    +0.000 A 
ATOM      5  C   UNL     1      46.243   5.770   9.686  0.00  0.00    +0.000 A 
ATOM      6  C   UNL     1      45.068   5.069   9.967  0.00  0.00    +0.000 A 
ATOM      7  C   UNL     1      44.389   5.324  11.160  0.00  0.00    +0.000 A 
ATOM      8  C   UNL     1      44.899   6.244  12.080  0.00  0.00    +0.000 A 
BRANCH   6   9
ATOM      9  O   UNL     1      44.462   4.179   9.111  0.00  0.00    +0.000 OA
BRANCH   9  10
ATOM     10  C   UNL     1      45.187   3.156   8.539  0.00  0.00    +0.000 A 
ATOM     11  C   UNL     1      45.184   1.837   8.998  0.00  0.00    +0.000 A 
ATOM     12  C   UNL     1      45.968   0.875   8.365  0.00  0.00    +0.000 A 
ATOM     13  C   UNL     1      46.698   1.210   7.224  0.00  0.00    +0.000 A 
ATOM     14  C   UNL     1      46.656   2.510   6.703  0.00  0.00    +0.000 A 
ATOM     15  C   UNL     1      45.896   3.480   7.378  0.00  0.00    +0.000 A 
BRANCH  14  16
ATOM     16  C   UNL     1      47.312   2.846   5.387  0.00  0.00    +0.000 C 
BRANCH  16  17
ATOM     17  O   UNL     1      48.474   2.062   5.154  0.00  0.00    +0.000 OA
ATOM     18  H   UNL     1      48.360   1.238   5.657  0.00  0.00    +0.000 HD
ENDBRANCH  16  17
ENDBRANCH  14  16
ENDBRANCH   9  10
ENDBRANCH   6   9
ENDBRANCH   2   3
BRANCH   2  19
ATOM     19  N   UNL     1      47.079   7.428  14.041  0.00  0.00    +0.000 N 
ATOM     20  C   UNL     1      48.326   6.882  14.213  0.00  0.00    +0.000 C 
ATOM     21  O   UNL     1      49.176   6.877  13.326  0.00  0.00    +0.000 OA
ATOM     22  H   UNL     1      46.344   7.106  14.663  0.00  0.00    +0.000 HD
BRANCH  20  23
ATOM     23  C   UNL     1      48.641   6.355  15.544  0.00  0.00    +0.000 A 
ATOM     24  C   UNL     1      49.588   7.002  16.327  0.00  0.00    +0.000 A 
ATOM     25  S   UNL     1      49.859   6.249  17.833  0.00  0.00    +0.000 S 
ATOM     26  C   UNL     1      48.748   5.014  17.474  0.00  0.00    +0.000 A 
ATOM     27  N   UNL     1      48.537   3.991  18.342  0.00  0.00    +0.000 NA
ATOM     28  C   UNL     1      47.694   3.106  17.929  0.00  0.00    +0.000 A 
ATOM     29  N   UNL     1      47.021   3.161  16.733  0.00  0.00    +0.000 N 
ATOM     30  C   UNL     1      47.169   4.202  15.844  0.00  0.00    +0.000 A 
ATOM     31  O   UNL     1      46.500   4.271  14.819  0.00  0.00    +0.000 OA
ATOM     32  C   UNL     1      48.144   5.197  16.243  0.00  0.00    +0.000 A 
ATOM     33  H   UNL     1      46.352   2.449  16.484  0.00  0.00    +0.000 HD
ENDBRANCH  20  23
ENDBRANCH   2  19
TORSDOF 7
ENDMDL
MODEL 2
REMARK VINA RESULT:    -7.629      1.662      2.333
REMARK INTER + INTRA:         -11.709
REMARK INTER:                 -10.687
REMARK INTRA:                  -1.022
REMARK UNBOUND:                -1.181
REMARK  Name = 
REMARK  8 active torsions:
REMARK  status: ('A' for Active; 'I' for Inactive)
REMARK    1  A    between atoms: C_1  and  C_2
REMARK    2  A    between atoms: C_2  and  N_3
REMARK    3  A    between atoms: C_2  and  C_16
REMARK    4  A    between atoms: C_4  and  C_6
REMARK    5  A    between atoms: C_19  and  O_20
REMARK    6  A    between atoms: O_20  and  C_21
REMARK    7  A    between atoms: C_25  and  C_26
REMARK    8  A    between atoms: C_26  and  O_27
REMARK                            x       y       z     vdW  Elec       q    Type
REMARK                         _______ _______ _______ _____ _____    ______ ____
ROOT
ATOM      1  C   UNL     1      46.787   8.449  13.635  0.00  0.00    +0.000 C 
ATOM      2  C   UNL     1      47.397   7.055  13.432  0.00  0.00    +0.000 C 
ENDROOT
BRANCH   2   3
ATOM      3  C   UNL     1      46.614   6.364  12.322  0.00  0.00    +0.000 A 
ATOM      4  C   UNL     1      45.936   5.169  12.603  0.00  0.00    +0.000 A 
ATOM      5  C   UNL     1      45.319   4.440  11.582  0.00  0.00    +0.000 A 
ATOM      6  C   UNL     1      45.309   4.929  10.274  0.00  0.00    +0.000 A 
ATOM      7  C   UNL     1      45.993   6.111   9.980  0.00  0.00    +0.000 A 
ATOM      8  C   UNL     1      46.650   6.816  10.992  0.00  0.00    +0.000 A 
BRANCH   6   9
ATOM      9  O   UNL     1      44.731   4.289   9.202  0.00  0.00    +0.000 OA
BRANCH   9  10
ATOM     10  C   UNL     1      45.368   3.227   8.598  0.00  0.00    +0.000 A 
ATOM     11  C   UNL     1      45.254   1.900   9.017  0.00  0.00    +0.000 A 
ATOM     12  C   UNL     1      45.954   0.895   8.353  0.00  0.00    +0.000 A 
ATOM     13  C   UNL     1      46.709   1.201   7.220  0.00  0.00    +0.000 A 
ATOM     14  C   UNL     1      46.775   2.515   6.738  0.00  0.00    +0.000 A 
ATOM     15  C   UNL     1      46.100   3.525   7.444  0.00  0.00    +0.000 A 
BRANCH  14  16
ATOM     16  C   UNL     1      47.456   2.834   5.431  0.00  0.00    +0.000 C 
BRANCH  16  17
ATOM     17  O   UNL     1      48.545   1.960   5.168  0.00  0.00    +0.000 OA
ATOM     18  H   UNL     1      49.094   2.394   4.493  0.00  0.00    +0.000 HD
ENDBRANCH  16  17
ENDBRANCH  14  16
ENDBRANCH   9  10
ENDBRANCH   6   9
ENDBRANCH   2   3
BRANCH   2  19
ATOM     19  N   UNL     1      47.419   6.260  14.651  0.00  0.00    +0.000 N 
ATOM     20  C   UNL     1      48.577   6.027  15.348  0.00  0.00    +0.000 C 
ATOM     21  O   UNL     1      49.657   6.514  15.023  0.00  0.00    +0.000 OA
ATOM     22  H   UNL     1      46.669   5.585  14.761  0.00  0.00    +0.000 HD
BRANCH  20  23
ATOM     23  C   UNL     1      48.467   5.213  16.563  0.00  0.00    +0.000 A 
ATOM     24  C   UNL     1      48.067   3.887  16.461  0.00  0.00    +0.000 A 
ATOM     25  S   UNL     1      47.962   3.089  17.964  0.00  0.00    +0.000 S 
ATOM     26  C   UNL     1      48.413   4.497  18.803  0.00  0.00    +0.000 A 
ATOM     27  N   UNL     1      48.468   4.513  20.159  0.00  0.00    +0.000 NA
ATOM     28  C   UNL     1      48.791   5.655  20.666  0.00  0.00    +0.000 A 
ATOM     29  N   UNL     1      49.087   6.781  19.938  0.00  0.00    +0.000 N 
ATOM     30  C   UNL     1      49.089   6.797  18.562  0.00  0.00    +0.000 A 
ATOM     31  O   UNL     1      49.433   7.791  17.931  0.00  0.00    +0.000 OA
ATOM     32  C   UNL     1      48.684   5.549  17.948  0.00  0.00    +0.000 A 
ATOM     33  H   UNL     1      49.361   7.635  20.398  0.00  0.00    +0.000 HD
ENDBRANCH  20  23
ENDBRANCH   2  19
TORSDOF 7
ENDMDL
MODEL 3
REMARK VINA RESULT:    -7.393      2.046      2.668
REMARK INTER + INTRA:         -11.383
REMARK INTER:                 -10.357
REMARK INTRA:                  -1.026
REMARK UNBOUND:                -1.181
REMARK  Name = 
REMARK  8 active torsions:
REMARK  status: ('A' for Active; 'I' for Inactive)
REMARK    1  A    between atoms: C_1  and  C_2
REMARK    2  A    between atoms: C_2  and  N_3
REMARK    3  A    between atoms: C_2  and  C_16
REMARK    4  A    between atoms: C_4  and  C_6
REMARK    5  A    between atoms: C_19  and  O_20
REMARK    6  A    between atoms: O_20  and  C_21
REMARK    7  A    between atoms: C_25  and  C_26
REMARK    8  A    between atoms: C_26  and  O_27
REMARK                            x       y       z     vdW  Elec       q    Type
REMARK                         _______ _______ _______ _____ _____    ______ ____
ROOT
ATOM      1  C   UNL     1      49.075   8.681  13.436  0.00  0.00    +0.000 C 
ATOM      2  C   UNL     1      48.691   7.324  14.040  0.00  0.00    +0.000 C 
ENDROOT
BRANCH   2   3
ATOM      3  C   UNL     1      47.517   6.775  13.239  0.00  0.00    +0.000 A 
ATOM      4  C   UNL     1      47.049   5.481  13.507  0.00  0.00    +0.000 A 
ATOM      5  C   UNL     1      46.063   4.898  12.706  0.00  0.00    +0.000 A 
ATOM      6  C   UNL     1      45.478   5.624  11.666  0.00  0.00    +0.000 A 
ATOM      7  C   UNL     1      45.947   6.908  11.381  0.00  0.00    +0.000 A 
ATOM      8  C   UNL     1      46.965   7.475  12.152  0.00  0.00    +0.000 A 
BRANCH   6   9
ATOM      9  O   UNL     1      44.504   5.140  10.823  0.00  0.00    +0.000 OA
BRANCH   9  10
ATOM     10  C   UNL     1      44.771   4.082   9.983  0.00  0.00    +0.000 A 
ATOM     11  C   UNL     1      44.230   2.803  10.132  0.00  0.00    +0.000 A 
ATOM     12  C   UNL     1      44.576   1.790   9.241  0.00  0.00    +0.000 A 
ATOM     13  C   UNL     1      45.403   2.069   8.152  0.00  0.00    +0.000 A 
ATOM     14  C   UNL     1      45.896   3.364   7.942  0.00  0.00    +0.000 A 
ATOM     15  C   UNL     1      45.574   4.365   8.873  0.00  0.00    +0.000 A 
BRANCH  14  16
ATOM     16  C   UNL     1      46.659   3.716   6.689  0.00  0.00    +0.000 C 
BRANCH  16  17
ATOM     17  O   UNL     1      47.971   3.172   6.692  0.00  0.00    +0.000 OA
ATOM     18  H   UNL     1      48.099   2.747   5.827  0.00  0.00    +0.000 HD
ENDBRANCH  16  17
ENDBRANCH  14  16
ENDBRANCH   9  10
ENDBRANCH   6   9
ENDBRANCH   2   3
BRANCH   2  19
ATOM     19  N   UNL     1      48.385   7.400  15.461  0.00  0.00    +0.000 N 
ATOM     20  C   UNL     1      49.152   6.767  16.407  0.00  0.00    +0.000 C 
ATOM     21  O   UNL     1      50.173   6.144  16.125  0.00  0.00    +0.000 OA
ATOM     22  H   UNL     1      47.418   7.591  15.703  0.00  0.00    +0.000 HD
BRANCH  20  23
ATOM     23  C   UNL     1      48.741   6.922  17.806  0.00  0.00    +0.000 A 
ATOM     24  C   UNL     1      48.448   8.188  18.294  0.00  0.00    +0.000 A 
ATOM     25  S   UNL     1      48.014   8.201  19.943  0.00  0.00    +0.000 S 
ATOM     26  C   UNL     1      48.239   6.520  20.068  0.00  0.00    +0.000 A 
ATOM     27  N   UNL     1      48.079   5.882  21.256  0.00  0.00    +0.000 NA
ATOM     28  C   UNL     1      48.314   4.614  21.216  0.00  0.00    +0.000 A 
ATOM     29  N   UNL     1      48.673   3.918  20.088  0.00  0.00    +0.000 N 
ATOM     30  C   UNL     1      48.801   4.516  18.855  0.00  0.00    +0.000 A 
ATOM     31  O   UNL     1      49.046   3.863  17.846  0.00  0.00    +0.000 OA
ATOM     32  C   UNL     1      48.595   5.950  18.860  0.00  0.00    +0.000 A 
ATOM     33  H   UNL     1      48.813   2.920  20.121  0.00  0.00    +0.000 HD
ENDBRANCH  20  23
ENDBRANCH   2  19
TORSDOF 7
ENDMDL
MODEL 4
REMARK VINA RESULT:    -7.251      2.429      3.221
REMARK INTER + INTRA:         -11.187
REMARK INTER:                  -9.817
REMARK INTRA:                  -1.370
REMARK UNBOUND:                -1.181
REMARK  Name = 
REMARK  8 active torsions:
REMARK  status: ('A' for Active; 'I' for Inactive)
REMARK    1  A    between atoms: C_1  and  C_2
REMARK    2  A    between atoms: C_2  and  N_3
REMARK    3  A    between atoms: C_2  and  C_16
REMARK    4  A    between atoms: C_4  and  C_6
REMARK    5  A    between atoms: C_19  and  O_20
REMARK    6  A    between atoms: O_20  and  C_21
REMARK    7  A    between atoms: C_25  and  C_26
REMARK    8  A    between atoms: C_26  and  O_27
REMARK                            x       y       z     vdW  Elec       q    Type
REMARK                         _______ _______ _______ _____ _____    ______ ____
ROOT
ATOM      1  C   UNL     1      48.538   8.870  14.365  0.00  0.00    +0.000 C 
ATOM      2  C   UNL     1      48.477   7.343  14.511  0.00  0.00    +0.000 C 
ENDROOT
BRANCH   2   3
ATOM      3  C   UNL     1      47.352   6.837  13.617  0.00  0.00    +0.000 A 
ATOM      4  C   UNL     1      46.975   5.487  13.686  0.00  0.00    +0.000 A 
ATOM      5  C   UNL     1      46.040   4.960  12.791  0.00  0.00    +0.000 A 
ATOM      6  C   UNL     1      45.414   5.788  11.857  0.00  0.00    +0.000 A 
ATOM      7  C   UNL     1      45.791   7.130  11.770  0.00  0.00    +0.000 A 
ATOM      8  C   UNL     1      46.760   7.647  12.634  0.00  0.00    +0.000 A 
BRANCH   6   9
ATOM      9  O   UNL     1      44.483   5.366  10.934  0.00  0.00    +0.000 OA
BRANCH   9  10
ATOM     10  C   UNL     1      44.759   4.305  10.101  0.00  0.00    +0.000 A 
ATOM     11  C   UNL     1      44.194   3.035  10.232  0.00  0.00    +0.000 A 
ATOM     12  C   UNL     1      44.551   2.017   9.350  0.00  0.00    +0.000 A 
ATOM     13  C   UNL     1      45.414   2.285   8.287  0.00  0.00    +0.000 A 
ATOM     14  C   UNL     1      45.933   3.572   8.094  0.00  0.00    +0.000 A 
ATOM     15  C   UNL     1      45.599   4.577   9.016  0.00  0.00    +0.000 A 
BRANCH  14  16
ATOM     16  C   UNL     1      46.739   3.913   6.865  0.00  0.00    +0.000 C 
BRANCH  16  17
ATOM     17  O   UNL     1      47.899   3.101   6.744  0.00  0.00    +0.000 OA
ATOM     18  H   UNL     1      47.673   2.380   6.133  0.00  0.00    +0.000 HD
ENDBRANCH  16  17
ENDBRANCH  14  16
ENDBRANCH   9  10
ENDBRANCH   6   9
ENDBRANCH   2   3
BRANCH   2  19
ATOM     19  N   UNL     1      48.305   6.910  15.890  0.00  0.00    +0.000 N 
ATOM     20  C   UNL     1      49.311   6.292  16.590  0.00  0.00    +0.000 C 
ATOM     21  O   UNL     1      50.433   6.113  16.122  0.00  0.00    +0.000 OA
ATOM     22  H   UNL     1      47.353   6.724  16.188  0.00  0.00    +0.000 HD
BRANCH  20  23
ATOM     23  C   UNL     1      49.015   5.905  17.973  0.00  0.00    +0.000 A 
ATOM     24  C   UNL     1      49.255   4.600  18.383  0.00  0.00    +0.000 A 
ATOM     25  S   UNL     1      48.832   4.306  20.008  0.00  0.00    +0.000 S 
ATOM     26  C   UNL     1      48.281   5.902  20.208  0.00  0.00    +0.000 A 
ATOM     27  N   UNL     1      47.731   6.308  21.381  0.00  0.00    +0.000 NA
ATOM     28  C   UNL     1      47.325   7.532  21.384  0.00  0.00    +0.000 A 
ATOM     29  N   UNL     1      47.439   8.400  20.325  0.00  0.00    +0.000 N 
ATOM     30  C   UNL     1      48.030   8.044  19.134  0.00  0.00    +0.000 A 
ATOM     31  O   UNL     1      48.192   8.857  18.230  0.00  0.00    +0.000 OA
ATOM     32  C   UNL     1      48.458   6.662  19.067  0.00  0.00    +0.000 A 
ATOM     33  H   UNL     1      47.125   9.354  20.405  0.00  0.00    +0.000 HD
ENDBRANCH  20  23
ENDBRANCH   2  19
TORSDOF 7
ENDMDL
MODEL 5
REMARK VINA RESULT:    -6.680      3.563      5.026
REMARK INTER + INTRA:         -10.399
REMARK INTER:                  -8.916
REMARK INTRA:                  -1.483
REMARK UNBOUND:                -1.181
REMARK  Name = 
REMARK  8 active torsions:
REMARK  status: ('A' for Active; 'I' for Inactive)
REMARK    1  A    between atoms: C_1  and  C_2
REMARK    2  A    between atoms: C_2  and  N_3
REMARK    3  A    between atoms: C_2  and  C_16
REMARK    4  A    between atoms: C_4  and  C_6
REMARK    5  A    between atoms: C_19  and  O_20
REMARK    6  A    between atoms: O_20  and  C_21
REMARK    7  A    between atoms: C_25  and  C_26
REMARK    8  A    between atoms: C_26  and  O_27
REMARK                            x       y       z     vdW  Elec       q    Type
REMARK                         _______ _______ _______ _____ _____    ______ ____
ROOT
ATOM      1  C   UNL     1      48.558   6.022  15.795  0.00  0.00    +0.000 C 
ATOM      2  C   UNL     1      48.565   7.047  14.652  0.00  0.00    +0.000 C 
ENDROOT
BRANCH   2   3
ATOM      3  C   UNL     1      47.569   6.574  13.600  0.00  0.00    +0.000 A 
ATOM      4  C   UNL     1      47.116   7.479  12.630  0.00  0.00    +0.000 A 
ATOM      5  C   UNL     1      46.106   7.118  11.733  0.00  0.00    +0.000 A 
ATOM      6  C   UNL     1      45.581   5.824  11.746  0.00  0.00    +0.000 A 
ATOM      7  C   UNL     1      46.015   4.920  12.717  0.00  0.00    +0.000 A 
ATOM      8  C   UNL     1      46.991   5.294  13.644  0.00  0.00    +0.000 A 
BRANCH   6   9
ATOM      9  O   UNL     1      44.587   5.373  10.907  0.00  0.00    +0.000 OA
BRANCH   9  10
ATOM     10  C   UNL     1      44.809   4.292  10.082  0.00  0.00    +0.000 A 
ATOM     11  C   UNL     1      44.224   3.036  10.256  0.00  0.00    +0.000 A 
ATOM     12  C   UNL     1      44.526   1.997   9.379  0.00  0.00    +0.000 A 
ATOM     13  C   UNL     1      45.353   2.230   8.278  0.00  0.00    +0.000 A 
ATOM     14  C   UNL     1      45.889   3.503   8.044  0.00  0.00    +0.000 A 
ATOM     15  C   UNL     1      45.612   4.529   8.961  0.00  0.00    +0.000 A 
BRANCH  14  16
ATOM     16  C   UNL     1      46.653   3.807   6.779  0.00  0.00    +0.000 C 
BRANCH  16  17
ATOM     17  O   UNL     1      47.855   3.054   6.686  0.00  0.00    +0.000 OA
ATOM     18  H   UNL     1      48.571   3.691   6.522  0.00  0.00    +0.000 HD
ENDBRANCH  16  17
ENDBRANCH  14  16
ENDBRANCH   9  10
ENDBRANCH   6   9
ENDBRANCH   2   3
BRANCH   2  19
ATOM     19  N   UNL     1      49.889   7.256  14.084  0.00  0.00    +0.000 N 
ATOM     20  C   UNL     1      50.507   8.481  14.109  0.00  0.00    +0.000 C 
ATOM     21  O   UNL     1      50.012   9.463  14.656  0.00  0.00    +0.000 OA
ATOM     22  H   UNL     1      50.173   6.610  13.355  0.00  0.00    +0.000 HD
BRANCH  20  23
ATOM     23  C   UNL     1      51.841   8.563  13.507  0.00  0.00    +0.000 A 
ATOM     24  C   UNL     1      52.923   8.935  14.293  0.00  0.00    +0.000 A 
ATOM     25  S   UNL     1      54.396   9.009  13.437  0.00  0.00    +0.000 S 
ATOM     26  C   UNL     1      53.631   8.582  11.980  0.00  0.00    +0.000 A 
ATOM     27  N   UNL     1      54.331   8.515  10.818  0.00  0.00    +0.000 NA
ATOM     28  C   UNL     1      53.620   8.213   9.785  0.00  0.00    +0.000 A 
ATOM     29  N   UNL     1      52.273   7.947   9.809  0.00  0.00    +0.000 N 
ATOM     30  C   UNL     1      51.534   7.958  10.970  0.00  0.00    +0.000 A 
ATOM     31  O   UNL     1      50.349   7.642  10.980  0.00  0.00    +0.000 OA
ATOM     32  C   UNL     1      52.280   8.341  12.151  0.00  0.00    +0.000 A 
ATOM     33  H   UNL     1      51.784   7.689   8.967  0.00  0.00    +0.000 HD
ENDBRANCH  20  23
ENDBRANCH   2  19
TORSDOF 7
ENDMDL
MODEL 6
REMARK VINA RESULT:    -6.601      1.966      3.121
REMARK INTER + INTRA:         -10.290
REMARK INTER:                  -9.002
REMARK INTRA:                  -1.289
REMARK UNBOUND:                -1.181
REMARK  Name = 
REMARK  8 active torsions:
REMARK  status: ('A' for Active; 'I' for Inactive)
REMARK    1  A    between atoms: C_1  and  C_2
REMARK    2  A    between atoms: C_2  and  N_3
REMARK    3  A    between atoms: C_2  and  C_16
REMARK    4  A    between atoms: C_4  and  C_6
REMARK    5  A    between atoms: C_19  and  O_20
REMARK    6  A    between atoms: O_20  and  C_21
REMARK    7  A    between atoms: C_25  and  C_26
REMARK    8  A    between atoms: C_26  and  O_27
REMARK                            x       y       z     vdW  Elec       q    Type
REMARK                         _______ _______ _______ _____ _____    ______ ____
ROOT
ATOM      1  C   UNL     1      48.842  10.112  14.434  0.00  0.00    +0.000 C 
ATOM      2  C   UNL     1      48.986   8.604  14.186  0.00  0.00    +0.000 C 
ENDROOT
BRANCH   2   3
ATOM      3  C   UNL     1      47.837   8.172  13.283  0.00  0.00    +0.000 A 
ATOM      4  C   UNL     1      46.634   8.891  13.312  0.00  0.00    +0.000 A 
ATOM      5  C   UNL     1      45.518   8.446  12.598  0.00  0.00    +0.000 A 
ATOM      6  C   UNL     1      45.606   7.313  11.787  0.00  0.00    +0.000 A 
ATOM      7  C   UNL     1      46.794   6.580  11.762  0.00  0.00    +0.000 A 
ATOM      8  C   UNL     1      47.897   6.998  12.512  0.00  0.00    +0.000 A 
BRANCH   6   9
ATOM      9  O   UNL     1      44.567   6.795  11.048  0.00  0.00    +0.000 OA
BRANCH   9  10
ATOM     10  C   UNL     1      44.296   5.445  11.076  0.00  0.00    +0.000 A 
ATOM     11  C   UNL     1      43.529   4.816  12.059  0.00  0.00    +0.000 A 
ATOM     12  C   UNL     1      43.326   3.439  12.013  0.00  0.00    +0.000 A 
ATOM     13  C   UNL     1      43.825   2.695  10.943  0.00  0.00    +0.000 A 
ATOM     14  C   UNL     1      44.534   3.318   9.907  0.00  0.00    +0.000 A 
ATOM     15  C   UNL     1      44.767   4.700   9.990  0.00  0.00    +0.000 A 
BRANCH  14  16
ATOM     16  C   UNL     1      44.941   2.555   8.671  0.00  0.00    +0.000 C 
BRANCH  16  17
ATOM     17  O   UNL     1      45.320   1.218   8.969  0.00  0.00    +0.000 OA
ATOM     18  H   UNL     1      44.663   0.876   9.598  0.00  0.00    +0.000 HD
ENDBRANCH  16  17
ENDBRANCH  14  16
ENDBRANCH   9  10
ENDBRANCH   6   9
ENDBRANCH   2   3
BRANCH   2  19
ATOM     19  N   UNL     1      49.027   7.827  15.415  0.00  0.00    +0.000 N 
ATOM     20  C   UNL     1      50.171   7.205  15.847  0.00  0.00    +0.000 C 
ATOM     21  O   UNL     1      51.244   7.307  15.258  0.00  0.00    +0.000 OA
ATOM     22  H   UNL     1      48.143   7.441  15.733  0.00  0.00    +0.000 HD
BRANCH  20  23
ATOM     23  C   UNL     1      50.084   6.454  17.103  0.00  0.00    +0.000 A 
ATOM     24  C   UNL     1      50.887   6.821  18.175  0.00  0.00    +0.000 A 
ATOM     25  S   UNL     1      50.687   5.831  19.548  0.00  0.00    +0.000 S 
ATOM     26  C   UNL     1      49.547   4.858  18.746  0.00  0.00    +0.000 A 
ATOM     27  N   UNL     1      49.004   3.773  19.356  0.00  0.00    +0.000 NA
ATOM     28  C   UNL     1      48.180   3.106  18.621  0.00  0.00    +0.000 A 
ATOM     29  N   UNL     1      47.830   3.437  17.335  0.00  0.00    +0.000 N 
ATOM     30  C   UNL     1      48.320   4.552  16.695  0.00  0.00    +0.000 A 
ATOM     31  O   UNL     1      47.935   4.872  15.576  0.00  0.00    +0.000 OA
ATOM     32  C   UNL     1      49.288   5.307  17.464  0.00  0.00    +0.000 A 
ATOM     33  H   UNL     1      47.156   2.886  16.827  0.00  0.00    +0.000 HD
ENDBRANCH  20  23
ENDBRANCH   2  19
TORSDOF 7
ENDMDL
MODEL 7
REMARK VINA RESULT:    -6.388      4.661      7.279
REMARK INTER + INTRA:          -9.996
REMARK INTER:                  -8.983
REMARK INTRA:                  -1.013
REMARK UNBOUND:                -1.181
REMARK  Name = 
REMARK  8 active torsions:
REMARK  status: ('A' for Active; 'I' for Inactive)
REMARK    1  A    between atoms: C_1  and  C_2
REMARK    2  A    between atoms: C_2  and  N_3
REMARK    3  A    between atoms: C_2  and  C_16
REMARK    4  A    between atoms: C_4  and  C_6
REMARK    5  A    between atoms: C_19  and  O_20
REMARK    6  A    between atoms: O_20  and  C_21
REMARK    7  A    between atoms: C_25  and  C_26
REMARK    8  A    between atoms: C_26  and  O_27
REMARK                            x       y       z     vdW  Elec       q    Type
REMARK                         _______ _______ _______ _____ _____    ______ ____
ROOT
ATOM      1  C   UNL     1      45.400   9.767  11.857  0.00  0.00    +0.000 C 
ATOM      2  C   UNL     1      46.121   8.498  12.334  0.00  0.00    +0.000 C 
ENDROOT
BRANCH   2   3
ATOM      3  C   UNL     1      47.595   8.640  11.975  0.00  0.00    +0.000 A 
ATOM      4  C   UNL     1      48.415   7.502  11.982  0.00  0.00    +0.000 A 
ATOM      5  C   UNL     1      49.795   7.615  11.788  0.00  0.00    +0.000 A 
ATOM      6  C   UNL     1      50.369   8.858  11.515  0.00  0.00    +0.000 A 
ATOM      7  C   UNL     1      49.564  10.000  11.521  0.00  0.00    +0.000 A 
ATOM      8  C   UNL     1      48.192   9.894  11.761  0.00  0.00    +0.000 A 
BRANCH   6   9
ATOM      9  O   UNL     1      51.713   9.074  11.311  0.00  0.00    +0.000 OA
BRANCH   9  10
ATOM     10  C   UNL     1      52.335   8.581  10.185  0.00  0.00    +0.000 A 
ATOM     11  C   UNL     1      52.537   9.314   9.013  0.00  0.00    +0.000 A 
ATOM     12  C   UNL     1      53.160   8.722   7.917  0.00  0.00    +0.000 A 
ATOM     13  C   UNL     1      53.652   7.420   8.013  0.00  0.00    +0.000 A 
ATOM     14  C   UNL     1      53.526   6.693   9.205  0.00  0.00    +0.000 A 
ATOM     15  C   UNL     1      52.857   7.288  10.287  0.00  0.00    +0.000 A 
BRANCH  14  16
ATOM     16  C   UNL     1      54.189   5.349   9.374  0.00  0.00    +0.000 C 
BRANCH  16  17
ATOM     17  O   UNL     1      53.947   4.791  10.658  0.00  0.00    +0.000 OA
ATOM     18  H   UNL     1      54.600   5.185  11.261  0.00  0.00    +0.000 HD
ENDBRANCH  16  17
ENDBRANCH  14  16
ENDBRANCH   9  10
ENDBRANCH   6   9
ENDBRANCH   2   3
BRANCH   2  19
ATOM     19  N   UNL     1      45.548   7.278  11.783  0.00  0.00    +0.000 N 
ATOM     20  C   UNL     1      45.493   6.110  12.502  0.00  0.00    +0.000 C 
ATOM     21  O   UNL     1      45.869   6.031  13.668  0.00  0.00    +0.000 OA
ATOM     22  H   UNL     1      45.547   7.198  10.771  0.00  0.00    +0.000 HD
BRANCH  20  23
ATOM     23  C   UNL     1      44.890   4.951  11.837  0.00  0.00    +0.000 A 
ATOM     24  C   UNL     1      44.074   4.095  12.565  0.00  0.00    +0.000 A 
ATOM     25  S   UNL     1      43.476   2.784  11.655  0.00  0.00    +0.000 S 
ATOM     26  C   UNL     1      44.316   3.295  10.269  0.00  0.00    +0.000 A 
ATOM     27  N   UNL     1      44.274   2.570   9.121  0.00  0.00    +0.000 NA
ATOM     28  C   UNL     1      44.984   3.054   8.159  0.00  0.00    +0.000 A 
ATOM     29  N   UNL     1      45.716   4.214   8.230  0.00  0.00    +0.000 N 
ATOM     30  C   UNL     1      45.750   5.003   9.357  0.00  0.00    +0.000 A 
ATOM     31  O   UNL     1      46.347   6.074   9.373  0.00  0.00    +0.000 OA
ATOM     32  C   UNL     1      45.006   4.474  10.482  0.00  0.00    +0.000 A 
ATOM     33  H   UNL     1      46.226   4.551   7.429  0.00  0.00    +0.000 HD
ENDBRANCH  20  23
ENDBRANCH   2  19
TORSDOF 7
ENDMDL
MODEL 8
REMARK VINA RESULT:    -6.121      3.407      4.447
REMARK INTER + INTRA:          -9.627
REMARK INTER:                  -8.344
REMARK INTRA:                  -1.284
REMARK UNBOUND:                -1.181
REMARK  Name = 
REMARK  8 active torsions:
REMARK  status: ('A' for Active; 'I' for Inactive)
REMARK    1  A    between atoms: C_1  and  C_2
REMARK    2  A    between atoms: C_2  and  N_3
REMARK    3  A    between atoms: C_2  and  C_16
REMARK    4  A    between atoms: C_4  and  C_6
REMARK    5  A    between atoms: C_19  and  O_20
REMARK    6  A    between atoms: O_20  and  C_21
REMARK    7  A    between atoms: C_25  and  C_26
REMARK    8  A    between atoms: C_26  and  O_27
REMARK                            x       y       z     vdW  Elec       q    Type
REMARK                         _______ _______ _______ _____ _____    ______ ____
ROOT
ATOM      1  C   UNL     1      48.261   5.619  15.837  0.00  0.00    +0.000 C 
ATOM      2  C   UNL     1      48.227   6.761  14.811  0.00  0.00    +0.000 C 
ENDROOT
BRANCH   2   3
ATOM      3  C   UNL     1      47.377   6.300  13.633  0.00  0.00    +0.000 A 
ATOM      4  C   UNL     1      47.316   7.094  12.479  0.00  0.00    +0.000 A 
ATOM      5  C   UNL     1      46.446   6.770  11.434  0.00  0.00    +0.000 A 
ATOM      6  C   UNL     1      45.673   5.609  11.494  0.00  0.00    +0.000 A 
ATOM      7  C   UNL     1      45.715   4.819  12.645  0.00  0.00    +0.000 A 
ATOM      8  C   UNL     1      46.550   5.167  13.710  0.00  0.00    +0.000 A 
BRANCH   6   9
ATOM      9  O   UNL     1      44.789   5.204  10.521  0.00  0.00    +0.000 OA
BRANCH   9  10
ATOM     10  C   UNL     1      45.075   4.113   9.729  0.00  0.00    +0.000 A 
ATOM     11  C   UNL     1      44.563   2.831   9.941  0.00  0.00    +0.000 A 
ATOM     12  C   UNL     1      44.927   1.785   9.096  0.00  0.00    +0.000 A 
ATOM     13  C   UNL     1      45.741   2.032   7.990  0.00  0.00    +0.000 A 
ATOM     14  C   UNL     1      46.204   3.326   7.717  0.00  0.00    +0.000 A 
ATOM     15  C   UNL     1      45.865   4.362   8.602  0.00  0.00    +0.000 A 
BRANCH  14  16
ATOM     16  C   UNL     1      46.952   3.635   6.444  0.00  0.00    +0.000 C 
BRANCH  16  17
ATOM     17  O   UNL     1      48.056   2.762   6.248  0.00  0.00    +0.000 OA
ATOM     18  H   UNL     1      47.856   2.234   5.456  0.00  0.00    +0.000 HD
ENDBRANCH  16  17
ENDBRANCH  14  16
ENDBRANCH   9  10
ENDBRANCH   6   9
ENDBRANCH   2   3
BRANCH   2  19
ATOM     19  N   UNL     1      49.553   7.183  14.385  0.00  0.00    +0.000 N 
ATOM     20  C   UNL     1      49.996   8.471  14.553  0.00  0.00    +0.000 C 
ATOM     21  O   UNL     1      49.330   9.334  15.118  0.00  0.00    +0.000 OA
ATOM     22  H   UNL     1      49.981   6.640  13.643  0.00  0.00    +0.000 HD
BRANCH  20  23
ATOM     23  C   UNL     1      51.353   8.771  14.085  0.00  0.00    +0.000 A 
ATOM     24  C   UNL     1      51.539   9.745  13.113  0.00  0.00    +0.000 A 
ATOM     25  S   UNL     1      53.169   9.953  12.658  0.00  0.00    +0.000 S 
ATOM     26  C   UNL     1      53.676   8.724  13.717  0.00  0.00    +0.000 A 
ATOM     27  N   UNL     1      54.981   8.353  13.781  0.00  0.00    +0.000 NA
ATOM     28  C   UNL     1      55.220   7.386  14.601  0.00  0.00    +0.000 A 
ATOM     29  N   UNL     1      54.275   6.767  15.383  0.00  0.00    +0.000 N 
ATOM     30  C   UNL     1      52.950   7.141  15.383  0.00  0.00    +0.000 A 
ATOM     31  O   UNL     1      52.138   6.629  16.146  0.00  0.00    +0.000 OA
ATOM     32  C   UNL     1      52.624   8.193  14.441  0.00  0.00    +0.000 A 
ATOM     33  H   UNL     1      54.536   6.035  16.024  0.00  0.00    +0.000 HD
ENDBRANCH  20  23
ENDBRANCH   2  19
TORSDOF 7
ENDMDL
MODEL 9
REMARK VINA RESULT:    -5.966      2.772      3.976
REMARK INTER + INTRA:          -9.414
REMARK INTER:                  -8.336
REMARK INTRA:                  -1.078
REMARK UNBOUND:                -1.181
REMARK  Name = 
REMARK  8 active torsions:
REMARK  status: ('A' for Active; 'I' for Inactive)
REMARK    1  A    between atoms: C_1  and  C_2
REMARK    2  A    between atoms: C_2  and  N_3
REMARK    3  A    between atoms: C_2  and  C_16
REMARK    4  A    between atoms: C_4  and  C_6
REMARK    5  A    between atoms: C_19  and  O_20
REMARK    6  A    between atoms: O_20  and  C_21
REMARK    7  A    between atoms: C_25  and  C_26
REMARK    8  A    between atoms: C_26  and  O_27
REMARK                            x       y       z     vdW  Elec       q    Type
REMARK                         _______ _______ _______ _____ _____    ______ ____
ROOT
ATOM      1  C   UNL     1      50.114   9.866  13.512  0.00  0.00    +0.000 C 
ATOM      2  C   UNL     1      49.730   8.498  14.094  0.00  0.00    +0.000 C 
ENDROOT
BRANCH   2   3
ATOM      3  C   UNL     1      48.438   8.054  13.420  0.00  0.00    +0.000 A 
ATOM      4  C   UNL     1      48.259   6.700  13.104  0.00  0.00    +0.000 A 
ATOM      5  C   UNL     1      47.148   6.278  12.369  0.00  0.00    +0.000 A 
ATOM      6  C   UNL     1      46.160   7.192  11.997  0.00  0.00    +0.000 A 
ATOM      7  C   UNL     1      46.334   8.546  12.294  0.00  0.00    +0.000 A 
ATOM      8  C   UNL     1      47.469   8.976  12.988  0.00  0.00    +0.000 A 
BRANCH   6   9
ATOM      9  O   UNL     1      45.032   6.878  11.275  0.00  0.00    +0.000 OA
BRANCH   9  10
ATOM     10  C   UNL     1      44.930   5.663  10.633  0.00  0.00    +0.000 A 
ATOM     11  C   UNL     1      45.586   5.345   9.442  0.00  0.00    +0.000 A 
ATOM     12  C   UNL     1      45.405   4.094   8.857  0.00  0.00    +0.000 A 
ATOM     13  C   UNL     1      44.629   3.128   9.499  0.00  0.00    +0.000 A 
ATOM     14  C   UNL     1      44.024   3.402  10.733  0.00  0.00    +0.000 A 
ATOM     15  C   UNL     1      44.179   4.682  11.289  0.00  0.00    +0.000 A 
BRANCH  14  16
ATOM     16  C   UNL     1      43.315   2.322  11.512  0.00  0.00    +0.000 C 
BRANCH  16  17
ATOM     17  O   UNL     1      43.690   2.319  12.883  0.00  0.00    +0.000 OA
ATOM     18  H   UNL     1      43.992   1.417  13.087  0.00  0.00    +0.000 HD
ENDBRANCH  16  17
ENDBRANCH  14  16
ENDBRANCH   9  10
ENDBRANCH   6   9
ENDBRANCH   2   3
BRANCH   2  19
ATOM     19  N   UNL     1      49.604   8.512  15.544  0.00  0.00    +0.000 N 
ATOM     20  C   UNL     1      49.974   7.441  16.318  0.00  0.00    +0.000 C 
ATOM     21  O   UNL     1      50.483   6.427  15.848  0.00  0.00    +0.000 OA
ATOM     22  H   UNL     1      48.907   9.142  15.928  0.00  0.00    +0.000 HD
BRANCH  20  23
ATOM     23  C   UNL     1      49.800   7.579  17.767  0.00  0.00    +0.000 A 
ATOM     24  C   UNL     1      50.486   8.578  18.444  0.00  0.00    +0.000 A 
ATOM     25  S   UNL     1      50.197   8.587  20.124  0.00  0.00    +0.000 S 
ATOM     26  C   UNL     1      49.174   7.234  20.008  0.00  0.00    +0.000 A 
ATOM     27  N   UNL     1      48.619   6.683  21.118  0.00  0.00    +0.000 NA
ATOM     28  C   UNL     1      47.892   5.642  20.889  0.00  0.00    +0.000 A 
ATOM     29  N   UNL     1      47.650   5.111  19.645  0.00  0.00    +0.000 N 
ATOM     30  C   UNL     1      48.155   5.665  18.490  0.00  0.00    +0.000 A 
ATOM     31  O   UNL     1      47.862   5.222  17.385  0.00  0.00    +0.000 OA
ATOM     32  C   UNL     1      49.018   6.809  18.702  0.00  0.00    +0.000 A 
ATOM     33  H   UNL     1      47.048   4.311  19.535  0.00  0.00    +0.000 HD
ENDBRANCH  20  23
ENDBRANCH   2  19
TORSDOF 7
ENDMDL
