MODEL 1
REMARK VINA RESULT:    -8.255      0.000      0.000
REMARK INTER + INTRA:         -12.972
REMARK INTER:                 -11.633
REMARK INTRA:                  -1.339
REMARK UNBOUND:                -1.339
REMARK  Name = 
REMARK  8 active torsions:
REMARK  status: ('A' for Active; 'I' for Inactive)
REMARK    1  A    between atoms: C_1  and  C_2
REMARK    2  A    between atoms: C_9  and  C_10
REMARK    3  A    between atoms: N_12  and  C_13
REMARK    4  A    between atoms: C_13  and  C_14
REMARK    5  A    between atoms: C_17  and  C_18
REMARK    6  A    between atoms: C_18  and  O_19
REMARK    7  A    between atoms: O_19  and  C_20
REMARK    8  A    between atoms: C_20  and  C_21
REMARK                            x       y       z     vdW  Elec       q    Type
REMARK                         _______ _______ _______ _____ _____    ______ ____
ROOT
ATOM      1  C   UNL     1      46.922   8.039  12.923  0.00  0.00    +0.000 C 
ENDROOT
BRANCH   1   2
ATOM      2  C   UNL     1      46.043   6.962  12.361  0.00  0.00    +0.000 A 
ATOM      3  C   UNL     1      46.298   6.440  11.088  0.00  0.00    +0.000 A 
ATOM      4  C   UNL     1      45.505   5.408  10.583  0.00  0.00    +0.000 A 
ATOM      5  C   UNL     1      44.441   4.895  11.334  0.00  0.00    +0.000 A 
ATOM      6  C   UNL     1      44.158   5.458  12.585  0.00  0.00    +0.000 A 
ATOM      7  C   UNL     1      44.958   6.478  13.099  0.00  0.00    +0.000 A 
BRANCH   5   8
ATOM      8  C   UNL     1      43.599   3.754  10.822  0.00  0.00    +0.000 C 
BRANCH   8   9
ATOM      9  O   UNL     1      43.978   3.451   9.484  0.00  0.00    +0.000 OA
BRANCH   9  10
ATOM     10  C   UNL     1      44.575   2.153   9.387  0.00  0.00    +0.000 C 
BRANCH  10  11
ATOM     11  C   UNL     1      45.639   2.125   8.308  0.00  0.00    +0.000 A 
ATOM     12  C   UNL     1      45.921   3.279   7.585  0.00  0.00    +0.000 A 
ATOM     13  C   UNL     1      46.969   3.277   6.676  0.00  0.00    +0.000 A 
ATOM     14  C   UNL     1      47.705   2.112   6.489  0.00  0.00    +0.000 A 
ATOM     15  C   UNL     1      47.352   0.996   7.228  0.00  0.00    +0.000 A 
ATOM     16  N   UNL     1      46.349   0.975   8.138  0.00  0.00    +0.000 NA
ENDBRANCH  10  11
ENDBRANCH   9  10
ENDBRANCH   8   9
ENDBRANCH   5   8
ENDBRANCH   1   2
BRANCH   1  19
ATOM     17  C   UNL     1      48.527   6.944  14.384  0.00  0.00    +0.000 C 
ATOM     18  O   UNL     1      49.142   6.569  13.383  0.00  0.00    +0.000 OA
ATOM     19  N   UNL     1      47.388   7.705  14.249  0.00  0.00    +0.000 N 
ATOM     20  H   UNL     1      46.801   7.941  15.038  0.00  0.00    +0.000 HD
BRANCH  17  29
ATOM     21  C   UNL     1      47.006   4.011  14.985  0.00  0.00    +0.000 C 
ATOM     22  C   UNL     1      47.786   4.269  16.239  0.00  0.00    +0.000 A 
ATOM     23  N   UNL     1      47.645   3.284  17.179  0.00  0.00    +0.000 NA
ATOM     24  C   UNL     1      48.274   3.358  18.357  0.00  0.00    +0.000 A 
ATOM     25  C   UNL     1      49.087   4.400  18.719  0.00  0.00    +0.000 A 
ATOM     26  C   UNL     1      49.244   5.422  17.775  0.00  0.00    +0.000 A 
ATOM     27  S   UNL     1      50.209   6.822  18.005  0.00  0.00    +0.000 S 
ATOM     28  C   UNL     1      49.819   7.427  16.470  0.00  0.00    +0.000 A 
ATOM     29  C   UNL     1      48.961   6.612  15.746  0.00  0.00    +0.000 A 
ATOM     30  C   UNL     1      48.617   5.400  16.518  0.00  0.00    +0.000 A 
ENDBRANCH  17  29
ENDBRANCH   1  19
TORSDOF 7
ENDMDL
MODEL 2
REMARK VINA RESULT:    -7.957      2.057      2.757
REMARK INTER + INTRA:         -12.552
REMARK INTER:                 -11.602
REMARK INTRA:                  -0.949
REMARK UNBOUND:                -1.339
REMARK  Name = 
REMARK  8 active torsions:
REMARK  status: ('A' for Active; 'I' for Inactive)
REMARK    1  A    between atoms: C_1  and  C_2
REMARK    2  A    between atoms: C_9  and  C_10
REMARK    3  A    between atoms: N_12  and  C_13
REMARK    4  A    between atoms: C_13  and  C_14
REMARK    5  A    between atoms: C_17  and  C_18
REMARK    6  A    between atoms: C_18  and  O_19
REMARK    7  A    between atoms: O_19  and  C_20
REMARK    8  A    between atoms: C_20  and  C_21
REMARK                            x       y       z     vdW  Elec       q    Type
REMARK                         _______ _______ _______ _____ _____    ______ ____
ROOT
ATOM      1  C   UNL     1      48.146   6.482  13.863  0.00  0.00    +0.000 C 
ENDROOT
BRANCH   1   2
ATOM      2  C   UNL     1      46.997   5.976  13.043  0.00  0.00    +0.000 A 
ATOM      3  C   UNL     1      46.141   4.998  13.561  0.00  0.00    +0.000 A 
ATOM      4  C   UNL     1      45.047   4.558  12.814  0.00  0.00    +0.000 A 
ATOM      5  C   UNL     1      44.802   5.078  11.536  0.00  0.00    +0.000 A 
ATOM      6  C   UNL     1      45.693   6.018  11.003  0.00  0.00    +0.000 A 
ATOM      7  C   UNL     1      46.778   6.470  11.753  0.00  0.00    +0.000 A 
BRANCH   5   8
ATOM      8  C   UNL     1      43.604   4.645  10.731  0.00  0.00    +0.000 C 
BRANCH   8   9
ATOM      9  O   UNL     1      44.036   4.142   9.473  0.00  0.00    +0.000 OA
BRANCH   9  10
ATOM     10  C   UNL     1      44.484   2.785   9.573  0.00  0.00    +0.000 C 
BRANCH  10  11
ATOM     11  C   UNL     1      45.497   2.468   8.490  0.00  0.00    +0.000 A 
ATOM     12  C   UNL     1      45.954   3.479   7.653  0.00  0.00    +0.000 A 
ATOM     13  C   UNL     1      46.959   3.206   6.736  0.00  0.00    +0.000 A 
ATOM     14  C   UNL     1      47.476   1.917   6.658  0.00  0.00    +0.000 A 
ATOM     15  C   UNL     1      46.955   0.956   7.508  0.00  0.00    +0.000 A 
ATOM     16  N   UNL     1      45.990   1.199   8.427  0.00  0.00    +0.000 NA
ENDBRANCH  10  11
ENDBRANCH   9  10
ENDBRANCH   8   9
ENDBRANCH   5   8
ENDBRANCH   1   2
BRANCH   1  19
ATOM     17  C   UNL     1      49.046   6.262  16.111  0.00  0.00    +0.000 C 
ATOM     18  O   UNL     1      50.156   6.567  15.668  0.00  0.00    +0.000 OA
ATOM     19  N   UNL     1      47.960   6.202  15.268  0.00  0.00    +0.000 N 
ATOM     20  H   UNL     1      47.060   5.854  15.573  0.00  0.00    +0.000 HD
BRANCH  17  29
ATOM     21  C   UNL     1      48.012   9.194  17.378  0.00  0.00    +0.000 C 
ATOM     22  C   UNL     1      47.972   8.266  18.555  0.00  0.00    +0.000 A 
ATOM     23  N   UNL     1      47.549   8.870  19.708  0.00  0.00    +0.000 NA
ATOM     24  C   UNL     1      47.455   8.183  20.853  0.00  0.00    +0.000 A 
ATOM     25  C   UNL     1      47.772   6.855  20.969  0.00  0.00    +0.000 A 
ATOM     26  C   UNL     1      48.213   6.217  19.802  0.00  0.00    +0.000 A 
ATOM     27  S   UNL     1      48.666   4.565  19.706  0.00  0.00    +0.000 S 
ATOM     28  C   UNL     1      49.023   4.688  18.053  0.00  0.00    +0.000 A 
ATOM     29  C   UNL     1      48.821   5.956  17.528  0.00  0.00    +0.000 A 
ATOM     30  C   UNL     1      48.326   6.880  18.569  0.00  0.00    +0.000 A 
ENDBRANCH  17  29
ENDBRANCH   1  19
TORSDOF 7
ENDMDL
MODEL 3
REMARK VINA RESULT:    -7.321      1.507      1.650
REMARK INTER + INTRA:         -11.656
REMARK INTER:                 -10.541
REMARK INTRA:                  -1.115
REMARK UNBOUND:                -1.339
REMARK  Name = 
REMARK  8 active torsions:
REMARK  status: ('A' for Active; 'I' for Inactive)
REMARK    1  A    between atoms: C_1  and  C_2
REMARK    2  A    between atoms: C_9  and  C_10
REMARK    3  A    between atoms: N_12  and  C_13
REMARK    4  A    between atoms: C_13  and  C_14
REMARK    5  A    between atoms: C_17  and  C_18
REMARK    6  A    between atoms: C_18  and  O_19
REMARK    7  A    between atoms: O_19  and  C_20
REMARK    8  A    between atoms: C_20  and  C_21
REMARK                            x       y       z     vdW  Elec       q    Type
REMARK                         _______ _______ _______ _____ _____    ______ ____
ROOT
ATOM      1  C   UNL     1      47.599   7.843  13.252  0.00  0.00    +0.000 C 
ENDROOT
BRANCH   1   2
ATOM      2  C   UNL     1      46.635   6.792  12.788  0.00  0.00    +0.000 A 
ATOM      3  C   UNL     1      45.914   6.974  11.603  0.00  0.00    +0.000 A 
ATOM      4  C   UNL     1      45.050   5.977  11.148  0.00  0.00    +0.000 A 
ATOM      5  C   UNL     1      44.882   4.793  11.878  0.00  0.00    +0.000 A 
ATOM      6  C   UNL     1      45.567   4.640  13.090  0.00  0.00    +0.000 A 
ATOM      7  C   UNL     1      46.443   5.628  13.538  0.00  0.00    +0.000 A 
BRANCH   5   8
ATOM      8  C   UNL     1      43.984   3.689  11.383  0.00  0.00    +0.000 C 
BRANCH   8   9
ATOM      9  O   UNL     1      44.136   3.551   9.976  0.00  0.00    +0.000 OA
BRANCH   9  10
ATOM     10  C   UNL     1      44.541   2.226   9.616  0.00  0.00    +0.000 C 
BRANCH  10  11
ATOM     11  C   UNL     1      45.545   2.255   8.480  0.00  0.00    +0.000 A 
ATOM     12  C   UNL     1      45.778   3.441   7.795  0.00  0.00    +0.000 A 
ATOM     13  C   UNL     1      46.775   3.489   6.830  0.00  0.00    +0.000 A 
ATOM     14  C   UNL     1      47.508   2.340   6.552  0.00  0.00    +0.000 A 
ATOM     15  C   UNL     1      47.204   1.190   7.260  0.00  0.00    +0.000 A 
ATOM     16  N   UNL     1      46.253   1.120   8.222  0.00  0.00    +0.000 NA
ENDBRANCH  10  11
ENDBRANCH   9  10
ENDBRANCH   8   9
ENDBRANCH   5   8
ENDBRANCH   1   2
BRANCH   1  19
ATOM     17  C   UNL     1      49.071   7.627  15.175  0.00  0.00    +0.000 C 
ATOM     18  O   UNL     1      48.359   8.433  15.777  0.00  0.00    +0.000 OA
ATOM     19  N   UNL     1      48.757   7.258  13.886  0.00  0.00    +0.000 N 
ATOM     20  H   UNL     1      49.373   6.683  13.326  0.00  0.00    +0.000 HD
BRANCH  17  29
ATOM     21  C   UNL     1      47.826   5.047  16.926  0.00  0.00    +0.000 C 
ATOM     22  C   UNL     1      49.304   4.952  17.158  0.00  0.00    +0.000 A 
ATOM     23  N   UNL     1      49.661   3.903  17.962  0.00  0.00    +0.000 NA
ATOM     24  C   UNL     1      50.943   3.674  18.270  0.00  0.00    +0.000 A 
ATOM     25  C   UNL     1      51.980   4.451  17.827  0.00  0.00    +0.000 A 
ATOM     26  C   UNL     1      51.639   5.534  17.006  0.00  0.00    +0.000 A 
ATOM     27  S   UNL     1      52.764   6.642  16.335  0.00  0.00    +0.000 S 
ATOM     28  C   UNL     1      51.539   7.523  15.561  0.00  0.00    +0.000 A 
ATOM     29  C   UNL     1      50.264   7.023  15.780  0.00  0.00    +0.000 A 
ATOM     30  C   UNL     1      50.313   5.823  16.640  0.00  0.00    +0.000 A 
ENDBRANCH  17  29
ENDBRANCH   1  19
TORSDOF 7
ENDMDL
MODEL 4
REMARK VINA RESULT:    -7.124      2.852      5.224
REMARK INTER + INTRA:         -11.377
REMARK INTER:                 -10.324
REMARK INTRA:                  -1.054
REMARK UNBOUND:                -1.339
REMARK  Name = 
REMARK  8 active torsions:
REMARK  status: ('A' for Active; 'I' for Inactive)
REMARK    1  A    between atoms: C_1  and  C_2
REMARK    2  A    between atoms: C_9  and  C_10
REMARK    3  A    between atoms: N_12  and  C_13
REMARK    4  A    between atoms: C_13  and  C_14
REMARK    5  A    between atoms: C_17  and  C_18
REMARK    6  A    between atoms: C_18  and  O_19
REMARK    7  A    between atoms: O_19  and  C_20
REMARK    8  A    between atoms: C_20  and  C_21
REMARK                            x       y       z     vdW  Elec       q    Type
REMARK                         _______ _______ _______ _____ _____    ______ ____
ROOT
ATOM      1  C   UNL     1      47.731   6.155  14.026  0.00  0.00    +0.000 C 
ENDROOT
BRANCH   1   2
ATOM      2  C   UNL     1      46.626   5.355  13.404  0.00  0.00    +0.000 A 
ATOM      3  C   UNL     1      45.481   5.996  12.917  0.00  0.00    +0.000 A 
ATOM      4  C   UNL     1      44.473   5.256  12.299  0.00  0.00    +0.000 A 
ATOM      5  C   UNL     1      44.586   3.865  12.173  0.00  0.00    +0.000 A 
ATOM      6  C   UNL     1      45.709   3.224  12.710  0.00  0.00    +0.000 A 
ATOM      7  C   UNL     1      46.725   3.963  13.314  0.00  0.00    +0.000 A 
BRANCH   5   8
ATOM      8  C   UNL     1      43.525   3.054  11.474  0.00  0.00    +0.000 C 
BRANCH   8   9
ATOM      9  O   UNL     1      44.101   2.385  10.358  0.00  0.00    +0.000 OA
BRANCH   9  10
ATOM     10  C   UNL     1      44.403   3.297   9.295  0.00  0.00    +0.000 C 
BRANCH  10  11
ATOM     11  C   UNL     1      45.418   2.699   8.341  0.00  0.00    +0.000 A 
ATOM     12  C   UNL     1      45.965   3.485   7.333  0.00  0.00    +0.000 A 
ATOM     13  C   UNL     1      46.972   2.966   6.532  0.00  0.00    +0.000 A 
ATOM     14  C   UNL     1      47.400   1.659   6.739  0.00  0.00    +0.000 A 
ATOM     15  C   UNL     1      46.793   0.929   7.747  0.00  0.00    +0.000 A 
ATOM     16  N   UNL     1      45.824   1.417   8.559  0.00  0.00    +0.000 NA
ENDBRANCH  10  11
ENDBRANCH   9  10
ENDBRANCH   8   9
ENDBRANCH   5   8
ENDBRANCH   1   2
BRANCH   1  19
ATOM     17  C   UNL     1      48.092   8.518  13.583  0.00  0.00    +0.000 C 
ATOM     18  O   UNL     1      47.653   8.769  14.708  0.00  0.00    +0.000 OA
ATOM     19  N   UNL     1      48.177   7.214  13.152  0.00  0.00    +0.000 N 
ATOM     20  H   UNL     1      48.432   6.976  12.202  0.00  0.00    +0.000 HD
BRANCH  17  29
ATOM     21  C   UNL     1      45.225   9.661  12.262  0.00  0.00    +0.000 C 
ATOM     22  C   UNL     1      46.276  10.511  11.615  0.00  0.00    +0.000 A 
ATOM     23  N   UNL     1      45.767  11.435  10.743  0.00  0.00    +0.000 NA
ATOM     24  C   UNL     1      46.570  12.275  10.080  0.00  0.00    +0.000 A 
ATOM     25  C   UNL     1      47.935  12.280  10.207  0.00  0.00    +0.000 A 
ATOM     26  C   UNL     1      48.479  11.341  11.092  0.00  0.00    +0.000 A 
ATOM     27  S   UNL     1      50.155  11.160  11.411  0.00  0.00    +0.000 S 
ATOM     28  C   UNL     1      49.880   9.893  12.505  0.00  0.00    +0.000 A 
ATOM     29  C   UNL     1      48.541   9.567  12.661  0.00  0.00    +0.000 A 
ATOM     30  C   UNL     1      47.690  10.436  11.822  0.00  0.00    +0.000 A 
ENDBRANCH  17  29
ENDBRANCH   1  19
TORSDOF 7
ENDMDL
MODEL 5
REMARK VINA RESULT:    -7.093      2.261      3.503
REMARK INTER + INTRA:         -11.335
REMARK INTER:                 -10.396
REMARK INTRA:                  -0.938
REMARK UNBOUND:                -1.339
REMARK  Name = 
REMARK  8 active torsions:
REMARK  status: ('A' for Active; 'I' for Inactive)
REMARK    1  A    between atoms: C_1  and  C_2
REMARK    2  A    between atoms: C_9  and  C_10
REMARK    3  A    between atoms: N_12  and  C_13
REMARK    4  A    between atoms: C_13  and  C_14
REMARK    5  A    between atoms: C_17  and  C_18
REMARK    6  A    between atoms: C_18  and  O_19
REMARK    7  A    between atoms: O_19  and  C_20
REMARK    8  A    between atoms: C_20  and  C_21
REMARK                            x       y       z     vdW  Elec       q    Type
REMARK                         _______ _______ _______ _____ _____    ______ ____
ROOT
ATOM      1  C   UNL     1      47.584   4.038  15.373  0.00  0.00    +0.000 C 
ENDROOT
BRANCH   1   2
ATOM      2  C   UNL     1      46.897   4.497  14.122  0.00  0.00    +0.000 A 
ATOM      3  C   UNL     1      47.079   5.805  13.659  0.00  0.00    +0.000 A 
ATOM      4  C   UNL     1      46.474   6.218  12.471  0.00  0.00    +0.000 A 
ATOM      5  C   UNL     1      45.668   5.337  11.739  0.00  0.00    +0.000 A 
ATOM      6  C   UNL     1      45.447   4.046  12.235  0.00  0.00    +0.000 A 
ATOM      7  C   UNL     1      46.063   3.626  13.413  0.00  0.00    +0.000 A 
BRANCH   5   8
ATOM      8  C   UNL     1      45.039   5.753  10.434  0.00  0.00    +0.000 C 
BRANCH   8   9
ATOM      9  O   UNL     1      45.729   5.130   9.357  0.00  0.00    +0.000 OA
BRANCH   9  10
ATOM     10  C   UNL     1      44.897   4.185   8.674  0.00  0.00    +0.000 C 
BRANCH  10  11
ATOM     11  C   UNL     1      45.735   3.159   7.937  0.00  0.00    +0.000 A 
ATOM     12  C   UNL     1      46.486   3.543   6.833  0.00  0.00    +0.000 A 
ATOM     13  C   UNL     1      47.334   2.626   6.229  0.00  0.00    +0.000 A 
ATOM     14  C   UNL     1      47.400   1.330   6.729  0.00  0.00    +0.000 A 
ATOM     15  C   UNL     1      46.606   1.013   7.817  0.00  0.00    +0.000 A 
ATOM     16  N   UNL     1      45.786   1.894   8.441  0.00  0.00    +0.000 NA
ENDBRANCH  10  11
ENDBRANCH   9  10
ENDBRANCH   8   9
ENDBRANCH   5   8
ENDBRANCH   1   2
BRANCH   1  19
ATOM     17  C   UNL     1      48.434   5.545  17.081  0.00  0.00    +0.000 C 
ATOM     18  O   UNL     1      49.577   5.310  16.682  0.00  0.00    +0.000 OA
ATOM     19  N   UNL     1      47.354   4.950  16.469  0.00  0.00    +0.000 N 
ATOM     20  H   UNL     1      46.414   5.036  16.834  0.00  0.00    +0.000 HD
BRANCH  17  29
ATOM     21  C   UNL     1      48.551   8.583  15.656  0.00  0.00    +0.000 C 
ATOM     22  C   UNL     1      48.224   8.877  17.089  0.00  0.00    +0.000 A 
ATOM     23  N   UNL     1      48.081  10.212  17.350  0.00  0.00    +0.000 NA
ATOM     24  C   UNL     1      47.787  10.648  18.581  0.00  0.00    +0.000 A 
ATOM     25  C   UNL     1      47.617   9.819  19.659  0.00  0.00    +0.000 A 
ATOM     26  C   UNL     1      47.762   8.447  19.416  0.00  0.00    +0.000 A 
ATOM     27  S   UNL     1      47.597   7.223  20.607  0.00  0.00    +0.000 S 
ATOM     28  C   UNL     1      47.919   5.992  19.487  0.00  0.00    +0.000 A 
ATOM     29  C   UNL     1      48.163   6.453  18.201  0.00  0.00    +0.000 A 
ATOM     30  C   UNL     1      48.062   7.927  18.146  0.00  0.00    +0.000 A 
ENDBRANCH  17  29
ENDBRANCH   1  19
TORSDOF 7
ENDMDL
MODEL 6
REMARK VINA RESULT:    -7.030      2.437      3.334
REMARK INTER + INTRA:         -11.245
REMARK INTER:                 -10.262
REMARK INTRA:                  -0.983
REMARK UNBOUND:                -1.339
REMARK  Name = 
REMARK  8 active torsions:
REMARK  status: ('A' for Active; 'I' for Inactive)
REMARK    1  A    between atoms: C_1  and  C_2
REMARK    2  A    between atoms: C_9  and  C_10
REMARK    3  A    between atoms: N_12  and  C_13
REMARK    4  A    between atoms: C_13  and  C_14
REMARK    5  A    between atoms: C_17  and  C_18
REMARK    6  A    between atoms: C_18  and  O_19
REMARK    7  A    between atoms: O_19  and  C_20
REMARK    8  A    between atoms: C_20  and  C_21
REMARK                            x       y       z     vdW  Elec       q    Type
REMARK                         _______ _______ _______ _____ _____    ______ ____
ROOT
ATOM      1  C   UNL     1      47.704   5.052  14.696  0.00  0.00    +0.000 C 
ENDROOT
BRANCH   1   2
ATOM      2  C   UNL     1      46.614   4.834  13.690  0.00  0.00    +0.000 A 
ATOM      3  C   UNL     1      46.352   3.548  13.204  0.00  0.00    +0.000 A 
ATOM      4  C   UNL     1      45.309   3.340  12.300  0.00  0.00    +0.000 A 
ATOM      5  C   UNL     1      44.525   4.413  11.858  0.00  0.00    +0.000 A 
ATOM      6  C   UNL     1      44.826   5.705  12.307  0.00  0.00    +0.000 A 
ATOM      7  C   UNL     1      45.857   5.914  13.222  0.00  0.00    +0.000 A 
BRANCH   5   8
ATOM      8  C   UNL     1      43.371   4.201  10.912  0.00  0.00    +0.000 C 
BRANCH   8   9
ATOM      9  O   UNL     1      43.782   3.354   9.846  0.00  0.00    +0.000 OA
BRANCH   9  10
ATOM     10  C   UNL     1      44.456   4.090   8.818  0.00  0.00    +0.000 C 
BRANCH  10  11
ATOM     11  C   UNL     1      45.560   3.262   8.192  0.00  0.00    +0.000 A 
ATOM     12  C   UNL     1      45.695   1.921   8.533  0.00  0.00    +0.000 A 
ATOM     13  C   UNL     1      46.638   1.141   7.878  0.00  0.00    +0.000 A 
ATOM     14  C   UNL     1      47.445   1.722   6.906  0.00  0.00    +0.000 A 
ATOM     15  C   UNL     1      47.268   3.069   6.636  0.00  0.00    +0.000 A 
ATOM     16  N   UNL     1      46.342   3.849   7.243  0.00  0.00    +0.000 NA
ENDBRANCH  10  11
ENDBRANCH   9  10
ENDBRANCH   8   9
ENDBRANCH   5   8
ENDBRANCH   1   2
BRANCH   1  19
ATOM     17  C   UNL     1      48.879   6.879  15.786  0.00  0.00    +0.000 C 
ATOM     18  O   UNL     1      49.831   6.119  15.975  0.00  0.00    +0.000 OA
ATOM     19  N   UNL     1      47.754   6.427  15.134  0.00  0.00    +0.000 N 
ATOM     20  H   UNL     1      46.916   6.988  15.055  0.00  0.00    +0.000 HD
BRANCH  17  29
ATOM     21  C   UNL     1      47.532   6.722  18.857  0.00  0.00    +0.000 C 
ATOM     22  C   UNL     1      47.845   8.177  18.683  0.00  0.00    +0.000 A 
ATOM     23  N   UNL     1      47.506   8.939  19.768  0.00  0.00    +0.000 NA
ATOM     24  C   UNL     1      47.719  10.260  19.777  0.00  0.00    +0.000 A 
ATOM     25  C   UNL     1      48.272  10.948  18.729  0.00  0.00    +0.000 A 
ATOM     26  C   UNL     1      48.623  10.189  17.605  0.00  0.00    +0.000 A 
ATOM     27  S   UNL     1      49.327  10.829  16.178  0.00  0.00    +0.000 S 
ATOM     28  C   UNL     1      49.389   9.303  15.441  0.00  0.00    +0.000 A 
ATOM     29  C   UNL     1      48.888   8.278  16.230  0.00  0.00    +0.000 A 
ATOM     30  C   UNL     1      48.432   8.799  17.536  0.00  0.00    +0.000 A 
ENDBRANCH  17  29
ENDBRANCH   1  19
TORSDOF 7
ENDMDL
MODEL 7
REMARK VINA RESULT:    -6.994      3.815      5.660
REMARK INTER + INTRA:         -11.194
REMARK INTER:                 -10.114
REMARK INTRA:                  -1.081
REMARK UNBOUND:                -1.339
REMARK  Name = 
REMARK  8 active torsions:
REMARK  status: ('A' for Active; 'I' for Inactive)
REMARK    1  A    between atoms: C_1  and  C_2
REMARK    2  A    between atoms: C_9  and  C_10
REMARK    3  A    between atoms: N_12  and  C_13
REMARK    4  A    between atoms: C_13  and  C_14
REMARK    5  A    between atoms: C_17  and  C_18
REMARK    6  A    between atoms: C_18  and  O_19
REMARK    7  A    between atoms: O_19  and  C_20
REMARK    8  A    between atoms: C_20  and  C_21
REMARK                            x       y       z     vdW  Elec       q    Type
REMARK                         _______ _______ _______ _____ _____    ______ ____
ROOT
ATOM      1  C   UNL     1      48.221   6.793  12.909  0.00  0.00    +0.000 C 
ENDROOT
BRANCH   1   2
ATOM      2  C   UNL     1      46.981   6.078  12.461  0.00  0.00    +0.000 A 
ATOM      3  C   UNL     1      46.337   6.463  11.279  0.00  0.00    +0.000 A 
ATOM      4  C   UNL     1      45.208   5.770  10.840  0.00  0.00    +0.000 A 
ATOM      5  C   UNL     1      44.699   4.695  11.580  0.00  0.00    +0.000 A 
ATOM      6  C   UNL     1      45.317   4.350  12.789  0.00  0.00    +0.000 A 
ATOM      7  C   UNL     1      46.454   5.030  13.222  0.00  0.00    +0.000 A 
BRANCH   5   8
ATOM      8  C   UNL     1      43.505   3.910  11.101  0.00  0.00    +0.000 C 
BRANCH   8   9
ATOM      9  O   UNL     1      43.760   3.413   9.793  0.00  0.00    +0.000 OA
BRANCH   9  10
ATOM     10  C   UNL     1      44.630   2.275   9.821  0.00  0.00    +0.000 C 
BRANCH  10  11
ATOM     11  C   UNL     1      45.546   2.263   8.614  0.00  0.00    +0.000 A 
ATOM     12  C   UNL     1      45.765   3.435   7.900  0.00  0.00    +0.000 A 
ATOM     13  C   UNL     1      46.687   3.443   6.863  0.00  0.00    +0.000 A 
ATOM     14  C   UNL     1      47.361   2.269   6.544  0.00  0.00    +0.000 A 
ATOM     15  C   UNL     1      47.075   1.135   7.284  0.00  0.00    +0.000 A 
ATOM     16  N   UNL     1      46.197   1.103   8.316  0.00  0.00    +0.000 NA
ENDBRANCH  10  11
ENDBRANCH   9  10
ENDBRANCH   8   9
ENDBRANCH   5   8
ENDBRANCH   1   2
BRANCH   1  19
ATOM     17  C   UNL     1      48.941   9.074  12.482  0.00  0.00    +0.000 C 
ATOM     18  O   UNL     1      48.943   9.274  13.699  0.00  0.00    +0.000 OA
ATOM     19  N   UNL     1      48.595   7.838  11.986  0.00  0.00    +0.000 N 
ATOM     20  H   UNL     1      48.480   7.668  10.996  0.00  0.00    +0.000 HD
BRANCH  17  29
ATOM     21  C   UNL     1      52.208   8.527  11.936  0.00  0.00    +0.000 C 
ATOM     22  C   UNL     1      51.889   9.686  11.041  0.00  0.00    +0.000 A 
ATOM     23  N   UNL     1      52.966  10.129  10.322  0.00  0.00    +0.000 NA
ATOM     24  C   UNL     1      52.855  11.158   9.474  0.00  0.00    +0.000 A 
ATOM     25  C   UNL     1      51.687  11.844   9.262  0.00  0.00    +0.000 A 
ATOM     26  C   UNL     1      50.572  11.411   9.990  0.00  0.00    +0.000 A 
ATOM     27  S   UNL     1      49.010  12.114   9.892  0.00  0.00    +0.000 S 
ATOM     28  C   UNL     1      48.373  11.027  11.027  0.00  0.00    +0.000 A 
ATOM     29  C   UNL     1      49.300  10.116  11.513  0.00  0.00    +0.000 A 
ATOM     30  C   UNL     1      50.622  10.333  10.890  0.00  0.00    +0.000 A 
ENDBRANCH  17  29
ENDBRANCH   1  19
TORSDOF 7
ENDMDL
MODEL 8
REMARK VINA RESULT:    -6.913      2.503      4.420
REMARK INTER + INTRA:         -11.081
REMARK INTER:                  -9.959
REMARK INTRA:                  -1.122
REMARK UNBOUND:                -1.339
REMARK  Name = 
REMARK  8 active torsions:
REMARK  status: ('A' for Active; 'I' for Inactive)
REMARK    1  A    between atoms: C_1  and  C_2
REMARK    2  A    between atoms: C_9  and  C_10
REMARK    3  A    between atoms: N_12  and  C_13
REMARK    4  A    between atoms: C_13  and  C_14
REMARK    5  A    between atoms: C_17  and  C_18
REMARK    6  A    between atoms: C_18  and  O_19
REMARK    7  A    between atoms: O_19  and  C_20
REMARK    8  A    between atoms: C_20  and  C_21
REMARK                            x       y       z     vdW  Elec       q    Type
REMARK                         _______ _______ _______ _____ _____    ______ ____
ROOT
ATOM      1  C   UNL     1      47.707   5.643  14.610  0.00  0.00    +0.000 C 
ENDROOT
BRANCH   1   2
ATOM      2  C   UNL     1      46.659   5.288  13.598  0.00  0.00    +0.000 A 
ATOM      3  C   UNL     1      46.317   3.948  13.381  0.00  0.00    +0.000 A 
ATOM      4  C   UNL     1      45.311   3.621  12.470  0.00  0.00    +0.000 A 
ATOM      5  C   UNL     1      44.645   4.624  11.755  0.00  0.00    +0.000 A 
ATOM      6  C   UNL     1      45.028   5.959  11.938  0.00  0.00    +0.000 A 
ATOM      7  C   UNL     1      46.022   6.289  12.859  0.00  0.00    +0.000 A 
BRANCH   5   8
ATOM      8  C   UNL     1      43.529   4.293  10.797  0.00  0.00    +0.000 C 
BRANCH   8   9
ATOM      9  O   UNL     1      43.997   3.357   9.833  0.00  0.00    +0.000 OA
BRANCH   9  10
ATOM     10  C   UNL     1      44.528   4.012   8.675  0.00  0.00    +0.000 C 
BRANCH  10  11
ATOM     11  C   UNL     1      45.619   3.178   8.033  0.00  0.00    +0.000 A 
ATOM     12  C   UNL     1      45.819   1.866   8.444  0.00  0.00    +0.000 A 
ATOM     13  C   UNL     1      46.745   1.074   7.781  0.00  0.00    +0.000 A 
ATOM     14  C   UNL     1      47.473   1.618   6.728  0.00  0.00    +0.000 A 
ATOM     15  C   UNL     1      47.237   2.939   6.389  0.00  0.00    +0.000 A 
ATOM     16  N   UNL     1      46.323   3.728   7.004  0.00  0.00    +0.000 NA
ENDBRANCH  10  11
ENDBRANCH   9  10
ENDBRANCH   8   9
ENDBRANCH   5   8
ENDBRANCH   1   2
BRANCH   1  19
ATOM     17  C   UNL     1      49.087   7.629  14.849  0.00  0.00    +0.000 C 
ATOM     18  O   UNL     1      50.087   6.912  14.774  0.00  0.00    +0.000 OA
ATOM     19  N   UNL     1      47.831   7.073  14.766  0.00  0.00    +0.000 N 
ATOM     20  H   UNL     1      46.991   7.613  14.928  0.00  0.00    +0.000 HD
BRANCH  17  29
ATOM     21  C   UNL     1      48.768   8.801  11.718  0.00  0.00    +0.000 C 
ATOM     22  C   UNL     1      48.896  10.042  12.549  0.00  0.00    +0.000 A 
ATOM     23  N   UNL     1      48.843  11.195  11.814  0.00  0.00    +0.000 NA
ATOM     24  C   UNL     1      48.941  12.394  12.402  0.00  0.00    +0.000 A 
ATOM     25  C   UNL     1      49.107  12.566  13.751  0.00  0.00    +0.000 A 
ATOM     26  C   UNL     1      49.169  11.399  14.523  0.00  0.00    +0.000 A 
ATOM     27  S   UNL     1      49.373  11.368  16.226  0.00  0.00    +0.000 S 
ATOM     28  C   UNL     1      49.335   9.673  16.268  0.00  0.00    +0.000 A 
ATOM     29  C   UNL     1      49.173   9.084  15.023  0.00  0.00    +0.000 A 
ATOM     30  C   UNL     1      49.064  10.113  13.968  0.00  0.00    +0.000 A 
ENDBRANCH  17  29
ENDBRANCH   1  19
TORSDOF 7
ENDMDL
MODEL 9
REMARK VINA RESULT:    -6.598      2.472      4.005
REMARK INTER + INTRA:         -10.636
REMARK INTER:                  -9.694
REMARK INTRA:                  -0.943
REMARK UNBOUND:                -1.339
REMARK  Name = 
REMARK  8 active torsions:
REMARK  status: ('A' for Active; 'I' for Inactive)
REMARK    1  A    between atoms: C_1  and  C_2
REMARK    2  A    between atoms: C_9  and  C_10
REMARK    3  A    between atoms: N_12  and  C_13
REMARK    4  A    between atoms: C_13  and  C_14
REMARK    5  A    between atoms: C_17  and  C_18
REMARK    6  A    between atoms: C_18  and  O_19
REMARK    7  A    between atoms: O_19  and  C_20
REMARK    8  A    between atoms: C_20  and  C_21
REMARK                            x       y       z     vdW  Elec       q    Type
REMARK                         _______ _______ _______ _____ _____    ______ ____
ROOT
ATOM      1  C   UNL     1      47.650   5.347  14.632  0.00  0.00    +0.000 C 
ENDROOT
BRANCH   1   2
ATOM      2  C   UNL     1      46.533   4.998  13.694  0.00  0.00    +0.000 A 
ATOM      3  C   UNL     1      46.365   3.678  13.262  0.00  0.00    +0.000 A 
ATOM      4  C   UNL     1      45.300   3.346  12.423  0.00  0.00    +0.000 A 
ATOM      5  C   UNL     1      44.400   4.329  11.993  0.00  0.00    +0.000 A 
ATOM      6  C   UNL     1      44.604   5.657  12.386  0.00  0.00    +0.000 A 
ATOM      7  C   UNL     1      45.658   5.989  13.237  0.00  0.00    +0.000 A 
BRANCH   5   8
ATOM      8  C   UNL     1      43.222   3.982  11.119  0.00  0.00    +0.000 C 
BRANCH   8   9
ATOM      9  O   UNL     1      43.669   3.223  10.002  0.00  0.00    +0.000 OA
BRANCH   9  10
ATOM     10  C   UNL     1      44.345   4.044   9.043  0.00  0.00    +0.000 C 
BRANCH  10  11
ATOM     11  C   UNL     1      45.434   3.264   8.333  0.00  0.00    +0.000 A 
ATOM     12  C   UNL     1      45.627   1.920   8.630  0.00  0.00    +0.000 A 
ATOM     13  C   UNL     1      46.551   1.185   7.902  0.00  0.00    +0.000 A 
ATOM     14  C   UNL     1      47.283   1.814   6.900  0.00  0.00    +0.000 A 
ATOM     15  C   UNL     1      47.052   3.160   6.676  0.00  0.00    +0.000 A 
ATOM     16  N   UNL     1      46.141   3.897   7.356  0.00  0.00    +0.000 NA
ENDBRANCH  10  11
ENDBRANCH   9  10
ENDBRANCH   8   9
ENDBRANCH   5   8
ENDBRANCH   1   2
BRANCH   1  19
ATOM     17  C   UNL     1      48.794   7.351  13.868  0.00  0.00    +0.000 C 
ATOM     18  O   UNL     1      49.426   6.654  13.070  0.00  0.00    +0.000 OA
ATOM     19  N   UNL     1      47.861   6.774  14.698  0.00  0.00    +0.000 N 
ATOM     20  H   UNL     1      47.401   7.294  15.434  0.00  0.00    +0.000 HD
BRANCH  17  29
ATOM     21  C   UNL     1      50.918   7.651  16.451  0.00  0.00    +0.000 C 
ATOM     22  C   UNL     1      50.700   9.066  16.006  0.00  0.00    +0.000 A 
ATOM     23  N   UNL     1      51.396   9.982  16.748  0.00  0.00    +0.000 NA
ATOM     24  C   UNL     1      51.313  11.291  16.483  0.00  0.00    +0.000 A 
ATOM     25  C   UNL     1      50.540  11.816  15.480  0.00  0.00    +0.000 A 
ATOM     26  C   UNL     1      49.815  10.897  14.710  0.00  0.00    +0.000 A 
ATOM     27  S   UNL     1      48.782  11.318  13.407  0.00  0.00    +0.000 S 
ATOM     28  C   UNL     1      48.377   9.698  13.114  0.00  0.00    +0.000 A 
ATOM     29  C   UNL     1      48.992   8.801  13.975  0.00  0.00    +0.000 A 
ATOM     30  C   UNL     1      49.865   9.511  14.933  0.00  0.00    +0.000 A 
ENDBRANCH  17  29
ENDBRANCH   1  19
TORSDOF 7
ENDMDL
