MODEL 1
REMARK VINA RESULT:    -7.832      0.000      0.000
REMARK INTER + INTRA:         -12.041
REMARK INTER:                 -11.037
REMARK INTRA:                  -1.004
REMARK UNBOUND:                -1.004
REMARK  Name = 
REMARK  8 active torsions:
REMARK  status: ('A' for Active; 'I' for Inactive)
REMARK    1  A    between atoms: C_1  and  O_2
REMARK    2  A    between atoms: O_2  and  C_3
REMARK    3  A    between atoms: C_7  and  C_8
REMARK    4  A    between atoms: C_8  and  O_9
REMARK    5  A    between atoms: O_9  and  C_10
REMARK    6  A    between atoms: C_13  and  C_14
REMARK    7  A    between atoms: C_14  and  N_15
REMARK    8  A    between atoms: C_16  and  C_18
REMARK                            x       y       z     vdW  Elec       q    Type
REMARK                         _______ _______ _______ _____ _____    ______ ____
ROOT
ATOM      1  C   UNL     1      45.200   4.398  12.495  0.00  0.00    +0.000 A 
ATOM      2  C   UNL     1      45.139   5.782  12.369  0.00  0.00    +0.000 A 
ATOM      3  C   UNL     1      46.161   6.568  12.896  0.00  0.00    +0.000 A 
ATOM      4  C   UNL     1      47.211   5.943  13.569  0.00  0.00    +0.000 A 
ATOM      5  N   UNL     1      47.274   4.597  13.728  0.00  0.00    +0.000 NA
ATOM      6  C   UNL     1      46.271   3.862  13.197  0.00  0.00    +0.000 A 
ENDROOT
BRANCH   1   7
ATOM      7  O   UNL     1      44.188   3.691  11.917  0.00  0.00    +0.000 OA
BRANCH   7   8
ATOM      8  C   UNL     1      43.737   4.195  10.657  0.00  0.00    +0.000 C 
BRANCH   8  13
ATOM      9  C   UNL     1      45.767   1.877   8.406  0.00  0.00    +0.000 A 
ATOM     10  C   UNL     1      46.427   2.801   7.593  0.00  0.00    +0.000 A 
ATOM     11  C   UNL     1      46.223   4.170   7.779  0.00  0.00    +0.000 A 
ATOM     12  C   UNL     1      45.355   4.620   8.771  0.00  0.00    +0.000 A 
ATOM     13  C   UNL     1      44.677   3.705   9.587  0.00  0.00    +0.000 A 
ATOM     14  C   UNL     1      44.904   2.335   9.405  0.00  0.00    +0.000 A 
BRANCH   9  16
ATOM     15  C   UNL     1      46.943   0.007   7.537  0.00  0.00    +0.000 C 
ATOM     16  O   UNL     1      45.878   0.516   8.328  0.00  0.00    +0.000 OA
ENDBRANCH   9  16
ENDBRANCH   8  13
ENDBRANCH   7   8
ENDBRANCH   1   7
BRANCH   4  17
ATOM     17  C   UNL     1      48.357   6.747  14.125  0.00  0.00    +0.000 C 
BRANCH  17  18
ATOM     18  N   UNL     1      48.307   6.837  15.568  0.00  0.00    +0.000 N 
ATOM     19  C   UNL     1      49.416   6.659  16.347  0.00  0.00    +0.000 C 
ATOM     20  O   UNL     1      50.515   6.398  15.862  0.00  0.00    +0.000 OA
ATOM     21  H   UNL     1      47.380   6.830  15.984  0.00  0.00    +0.000 HD
BRANCH  19  22
ATOM     22  C   UNL     1      49.252   6.862  17.794  0.00  0.00    +0.000 A 
ATOM     23  C   UNL     1      49.374   8.141  18.317  0.00  0.00    +0.000 A 
ATOM     24  S   UNL     1      49.127   8.222  20.000  0.00  0.00    +0.000 S 
ATOM     25  C   UNL     1      48.886   6.541  20.099  0.00  0.00    +0.000 A 
ATOM     26  N   UNL     1      48.653   5.940  21.297  0.00  0.00    +0.000 NA
ATOM     27  C   UNL     1      48.522   4.658  21.233  0.00  0.00    +0.000 A 
ATOM     28  N   UNL     1      48.591   3.923  20.078  0.00  0.00    +0.000 N 
ATOM     29  C   UNL     1      48.769   4.493  18.839  0.00  0.00    +0.000 A 
ATOM     30  O   UNL     1      48.736   3.818  17.816  0.00  0.00    +0.000 OA
ATOM     31  C   UNL     1      48.964   5.931  18.859  0.00  0.00    +0.000 A 
ATOM     32  H   UNL     1      48.455   2.923  20.092  0.00  0.00    +0.000 HD
ENDBRANCH  19  22
ENDBRANCH  17  18
ENDBRANCH   4  17
TORSDOF 7
ENDMDL
MODEL 2
REMARK VINA RESULT:    -7.670      1.165      1.676
REMARK INTER + INTRA:         -11.814
REMARK INTER:                 -10.897
REMARK INTRA:                  -0.917
REMARK UNBOUND:                -1.004
REMARK  Name = 
REMARK  8 active torsions:
REMARK  status: ('A' for Active; 'I' for Inactive)
REMARK    1  A    between atoms: C_1  and  O_2
REMARK    2  A    between atoms: O_2  and  C_3
REMARK    3  A    between atoms: C_7  and  C_8
REMARK    4  A    between atoms: C_8  and  O_9
REMARK    5  A    between atoms: O_9  and  C_10
REMARK    6  A    between atoms: C_13  and  C_14
REMARK    7  A    between atoms: C_14  and  N_15
REMARK    8  A    between atoms: C_16  and  C_18
REMARK                            x       y       z     vdW  Elec       q    Type
REMARK                         _______ _______ _______ _____ _____    ______ ____
ROOT
ATOM      1  C   UNL     1      44.945   5.166  12.309  0.00  0.00    +0.000 A 
ATOM      2  C   UNL     1      45.790   4.312  13.010  0.00  0.00    +0.000 A 
ATOM      3  C   UNL     1      46.930   4.822  13.626  0.00  0.00    +0.000 A 
ATOM      4  C   UNL     1      47.211   6.182  13.498  0.00  0.00    +0.000 A 
ATOM      5  N   UNL     1      46.414   7.026  12.795  0.00  0.00    +0.000 NA
ATOM      6  C   UNL     1      45.312   6.501  12.216  0.00  0.00    +0.000 A 
ENDROOT
BRANCH   1   7
ATOM      7  O   UNL     1      43.826   4.604  11.770  0.00  0.00    +0.000 OA
BRANCH   7   8
ATOM      8  C   UNL     1      43.597   4.907  10.391  0.00  0.00    +0.000 C 
BRANCH   8  13
ATOM      9  C   UNL     1      45.796   3.400   7.662  0.00  0.00    +0.000 A 
ATOM     10  C   UNL     1      45.757   2.047   8.001  0.00  0.00    +0.000 A 
ATOM     11  C   UNL     1      45.014   1.621   9.105  0.00  0.00    +0.000 A 
ATOM     12  C   UNL     1      44.315   2.547   9.876  0.00  0.00    +0.000 A 
ATOM     13  C   UNL     1      44.353   3.910   9.554  0.00  0.00    +0.000 A 
ATOM     14  C   UNL     1      45.085   4.323   8.433  0.00  0.00    +0.000 A 
BRANCH   9  16
ATOM     15  C   UNL     1      47.062   3.034   5.688  0.00  0.00    +0.000 C 
ATOM     16  O   UNL     1      46.482   3.946   6.610  0.00  0.00    +0.000 OA
ENDBRANCH   9  16
ENDBRANCH   8  13
ENDBRANCH   7   8
ENDBRANCH   1   7
BRANCH   4  17
ATOM     17  C   UNL     1      48.413   6.788  14.176  0.00  0.00    +0.000 C 
BRANCH  17  18
ATOM     18  N   UNL     1      48.195   6.983  15.592  0.00  0.00    +0.000 N 
ATOM     19  C   UNL     1      48.986   6.393  16.538  0.00  0.00    +0.000 C 
ATOM     20  O   UNL     1      49.918   5.652  16.234  0.00  0.00    +0.000 OA
ATOM     21  H   UNL     1      47.308   7.405  15.854  0.00  0.00    +0.000 HD
BRANCH  19  22
ATOM     22  C   UNL     1      48.716   6.739  17.941  0.00  0.00    +0.000 A 
ATOM     23  C   UNL     1      48.544   8.071  18.289  0.00  0.00    +0.000 A 
ATOM     24  S   UNL     1      48.207   8.311  19.941  0.00  0.00    +0.000 S 
ATOM     25  C   UNL     1      48.319   6.644  20.261  0.00  0.00    +0.000 A 
ATOM     26  N   UNL     1      48.161   6.165  21.525  0.00  0.00    +0.000 NA
ATOM     27  C   UNL     1      48.305   4.887  21.631  0.00  0.00    +0.000 A 
ATOM     28  N   UNL     1      48.580   4.043  20.587  0.00  0.00    +0.000 N 
ATOM     29  C   UNL     1      48.693   4.475  19.286  0.00  0.00    +0.000 A 
ATOM     30  O   UNL     1      48.849   3.684  18.363  0.00  0.00    +0.000 OA
ATOM     31  C   UNL     1      48.581   5.912  19.116  0.00  0.00    +0.000 A 
ATOM     32  H   UNL     1      48.657   3.047  20.733  0.00  0.00    +0.000 HD
ENDBRANCH  19  22
ENDBRANCH  17  18
ENDBRANCH   4  17
TORSDOF 7
ENDMDL
MODEL 3
REMARK VINA RESULT:    -7.533      1.577      2.270
REMARK INTER + INTRA:         -11.620
REMARK INTER:                 -10.500
REMARK INTRA:                  -1.119
REMARK UNBOUND:                -1.004
REMARK  Name = 
REMARK  8 active torsions:
REMARK  status: ('A' for Active; 'I' for Inactive)
REMARK    1  A    between atoms: C_1  and  O_2
REMARK    2  A    between atoms: O_2  and  C_3
REMARK    3  A    between atoms: C_7  and  C_8
REMARK    4  A    between atoms: C_8  and  O_9
REMARK    5  A    between atoms: O_9  and  C_10
REMARK    6  A    between atoms: C_13  and  C_14
REMARK    7  A    between atoms: C_14  and  N_15
REMARK    8  A    between atoms: C_16  and  C_18
REMARK                            x       y       z     vdW  Elec       q    Type
REMARK                         _______ _______ _______ _____ _____    ______ ____
ROOT
ATOM      1  C   UNL     1      45.173   4.705  12.234  0.00  0.00    +0.000 A 
ATOM      2  C   UNL     1      46.013   3.914  13.010  0.00  0.00    +0.000 A 
ATOM      3  C   UNL     1      47.048   4.507  13.728  0.00  0.00    +0.000 A 
ATOM      4  C   UNL     1      47.235   5.885  13.625  0.00  0.00    +0.000 A 
ATOM      5  N   UNL     1      46.444   6.670  12.851  0.00  0.00    +0.000 NA
ATOM      6  C   UNL     1      45.443   6.065  12.173  0.00  0.00    +0.000 A 
ENDROOT
BRANCH   1   7
ATOM      7  O   UNL     1      44.155   4.062  11.593  0.00  0.00    +0.000 OA
BRANCH   7   8
ATOM      8  C   UNL     1      43.862   4.545  10.280  0.00  0.00    +0.000 C 
BRANCH   8  13
ATOM      9  C   UNL     1      45.836   1.916   8.344  0.00  0.00    +0.000 A 
ATOM     10  C   UNL     1      46.614   2.723   7.512  0.00  0.00    +0.000 A 
ATOM     11  C   UNL     1      46.507   4.114   7.583  0.00  0.00    +0.000 A 
ATOM     12  C   UNL     1      45.619   4.702   8.479  0.00  0.00    +0.000 A 
ATOM     13  C   UNL     1      44.823   3.906   9.313  0.00  0.00    +0.000 A 
ATOM     14  C   UNL     1      44.953   2.512   9.247  0.00  0.00    +0.000 A 
BRANCH   9  16
ATOM     15  C   UNL     1      46.852  -0.099   7.609  0.00  0.00    +0.000 C 
ATOM     16  O   UNL     1      45.845   0.548   8.374  0.00  0.00    +0.000 OA
ENDBRANCH   9  16
ENDBRANCH   8  13
ENDBRANCH   7   8
ENDBRANCH   1   7
BRANCH   4  17
ATOM     17  C   UNL     1      48.318   6.577  14.411  0.00  0.00    +0.000 C 
BRANCH  17  18
ATOM     18  N   UNL     1      48.052   6.562  15.833  0.00  0.00    +0.000 N 
ATOM     19  C   UNL     1      48.897   5.964  16.725  0.00  0.00    +0.000 C 
ATOM     20  O   UNL     1      49.924   5.393  16.364  0.00  0.00    +0.000 OA
ATOM     21  H   UNL     1      47.113   6.830  16.114  0.00  0.00    +0.000 HD
BRANCH  19  22
ATOM     22  C   UNL     1      48.559   6.091  18.149  0.00  0.00    +0.000 A 
ATOM     23  C   UNL     1      48.671   4.981  18.974  0.00  0.00    +0.000 A 
ATOM     24  S   UNL     1      48.277   5.291  20.602  0.00  0.00    +0.000 S 
ATOM     25  C   UNL     1      47.902   6.915  20.257  0.00  0.00    +0.000 A 
ATOM     26  N   UNL     1      47.457   7.749  21.235  0.00  0.00    +0.000 NA
ATOM     27  C   UNL     1      47.177   8.942  20.829  0.00  0.00    +0.000 A 
ATOM     28  N   UNL     1      47.315   9.380  19.538  0.00  0.00    +0.000 N 
ATOM     29  C   UNL     1      47.813   8.588  18.529  0.00  0.00    +0.000 A 
ATOM     30  O   UNL     1      48.008   9.036  17.405  0.00  0.00    +0.000 OA
ATOM     31  C   UNL     1      48.103   7.222  18.923  0.00  0.00    +0.000 A 
ATOM     32  H   UNL     1      47.101  10.335  19.290  0.00  0.00    +0.000 HD
ENDBRANCH  19  22
ENDBRANCH  17  18
ENDBRANCH   4  17
TORSDOF 7
ENDMDL
MODEL 4
REMARK VINA RESULT:    -7.257      1.608      2.016
REMARK INTER + INTRA:         -11.230
REMARK INTER:                 -10.671
REMARK INTRA:                  -0.559
REMARK UNBOUND:                -1.004
REMARK  Name = 
REMARK  8 active torsions:
REMARK  status: ('A' for Active; 'I' for Inactive)
REMARK    1  A    between atoms: C_1  and  O_2
REMARK    2  A    between atoms: O_2  and  C_3
REMARK    3  A    between atoms: C_7  and  C_8
REMARK    4  A    between atoms: C_8  and  O_9
REMARK    5  A    between atoms: O_9  and  C_10
REMARK    6  A    between atoms: C_13  and  C_14
REMARK    7  A    between atoms: C_14  and  N_15
REMARK    8  A    between atoms: C_16  and  C_18
REMARK                            x       y       z     vdW  Elec       q    Type
REMARK                         _______ _______ _______ _____ _____    ______ ____
ROOT
ATOM      1  C   UNL     1      44.451   6.177  11.480  0.00  0.00    +0.000 A 
ATOM      2  C   UNL     1      45.326   5.479  12.306  0.00  0.00    +0.000 A 
ATOM      3  C   UNL     1      46.291   6.173  13.031  0.00  0.00    +0.000 A 
ATOM      4  C   UNL     1      46.375   7.557  12.886  0.00  0.00    +0.000 A 
ATOM      5  N   UNL     1      45.549   8.253  12.064  0.00  0.00    +0.000 NA
ATOM      6  C   UNL     1      44.618   7.551  11.380  0.00  0.00    +0.000 A 
ENDROOT
BRANCH   1   7
ATOM      7  O   UNL     1      43.505   5.436  10.834  0.00  0.00    +0.000 OA
BRANCH   7   8
ATOM      8  C   UNL     1      43.698   4.021  10.892  0.00  0.00    +0.000 C 
BRANCH   8  13
ATOM      9  C   UNL     1      45.752   1.894   8.480  0.00  0.00    +0.000 A 
ATOM     10  C   UNL     1      46.208   2.865   7.586  0.00  0.00    +0.000 A 
ATOM     11  C   UNL     1      45.860   4.206   7.769  0.00  0.00    +0.000 A 
ATOM     12  C   UNL     1      45.050   4.579   8.839  0.00  0.00    +0.000 A 
ATOM     13  C   UNL     1      44.576   3.614   9.738  0.00  0.00    +0.000 A 
ATOM     14  C   UNL     1      44.947   2.275   9.556  0.00  0.00    +0.000 A 
BRANCH   9  16
ATOM     15  C   UNL     1      46.895   0.128   7.380  0.00  0.00    +0.000 C 
ATOM     16  O   UNL     1      46.019   0.554   8.415  0.00  0.00    +0.000 OA
ENDBRANCH   9  16
ENDBRANCH   8  13
ENDBRANCH   7   8
ENDBRANCH   1   7
BRANCH   4  17
ATOM     17  C   UNL     1      47.378   8.356  13.677  0.00  0.00    +0.000 C 
BRANCH  17  18
ATOM     18  N   UNL     1      47.768   7.682  14.896  0.00  0.00    +0.000 N 
ATOM     19  C   UNL     1      49.044   7.239  15.105  0.00  0.00    +0.000 C 
ATOM     20  O   UNL     1      49.927   7.377  14.259  0.00  0.00    +0.000 OA
ATOM     21  H   UNL     1      47.011   7.369  15.496  0.00  0.00    +0.000 HD
BRANCH  19  22
ATOM     22  C   UNL     1      49.336   6.647  16.418  0.00  0.00    +0.000 A 
ATOM     23  C   UNL     1      50.162   7.330  17.300  0.00  0.00    +0.000 A 
ATOM     24  S   UNL     1      50.381   6.536  18.791  0.00  0.00    +0.000 S 
ATOM     25  C   UNL     1      49.411   5.228  18.298  0.00  0.00    +0.000 A 
ATOM     26  N   UNL     1      49.210   4.162  19.118  0.00  0.00    +0.000 NA
ATOM     27  C   UNL     1      48.483   3.227  18.606  0.00  0.00    +0.000 A 
ATOM     28  N   UNL     1      47.928   3.266  17.353  0.00  0.00    +0.000 N 
ATOM     29  C   UNL     1      48.059   4.346  16.512  0.00  0.00    +0.000 A 
ATOM     30  O   UNL     1      47.476   4.388  15.434  0.00  0.00    +0.000 OA
ATOM     31  C   UNL     1      48.903   5.410  17.023  0.00  0.00    +0.000 A 
ATOM     32  H   UNL     1      47.348   2.510  17.021  0.00  0.00    +0.000 HD
ENDBRANCH  19  22
ENDBRANCH  17  18
ENDBRANCH   4  17
TORSDOF 7
ENDMDL
MODEL 5
REMARK VINA RESULT:    -7.020      2.035      2.699
REMARK INTER + INTRA:         -10.896
REMARK INTER:                  -9.646
REMARK INTRA:                  -1.251
REMARK UNBOUND:                -1.004
REMARK  Name = 
REMARK  8 active torsions:
REMARK  status: ('A' for Active; 'I' for Inactive)
REMARK    1  A    between atoms: C_1  and  O_2
REMARK    2  A    between atoms: O_2  and  C_3
REMARK    3  A    between atoms: C_7  and  C_8
REMARK    4  A    between atoms: C_8  and  O_9
REMARK    5  A    between atoms: O_9  and  C_10
REMARK    6  A    between atoms: C_13  and  C_14
REMARK    7  A    between atoms: C_14  and  N_15
REMARK    8  A    between atoms: C_16  and  C_18
REMARK                            x       y       z     vdW  Elec       q    Type
REMARK                         _______ _______ _______ _____ _____    ______ ____
ROOT
ATOM      1  C   UNL     1      46.155   7.437  11.824  0.00  0.00    +0.000 A 
ATOM      2  C   UNL     1      47.445   6.941  11.661  0.00  0.00    +0.000 A 
ATOM      3  C   UNL     1      48.465   7.383  12.499  0.00  0.00    +0.000 A 
ATOM      4  C   UNL     1      48.171   8.342  13.467  0.00  0.00    +0.000 A 
ATOM      5  N   UNL     1      46.926   8.860  13.624  0.00  0.00    +0.000 NA
ATOM      6  C   UNL     1      45.957   8.404  12.800  0.00  0.00    +0.000 A 
ENDROOT
BRANCH   1   7
ATOM      7  O   UNL     1      45.200   6.927  10.996  0.00  0.00    +0.000 OA
BRANCH   7   8
ATOM      8  C   UNL     1      44.548   5.747  11.475  0.00  0.00    +0.000 C 
BRANCH   8  13
ATOM      9  C   UNL     1      45.582   3.894   8.304  0.00  0.00    +0.000 A 
ATOM     10  C   UNL     1      45.068   2.621   8.556  0.00  0.00    +0.000 A 
ATOM     11  C   UNL     1      44.382   2.364   9.745  0.00  0.00    +0.000 A 
ATOM     12  C   UNL     1      44.212   3.376  10.688  0.00  0.00    +0.000 A 
ATOM     13  C   UNL     1      44.731   4.657  10.453  0.00  0.00    +0.000 A 
ATOM     14  C   UNL     1      45.401   4.908   9.248  0.00  0.00    +0.000 A 
BRANCH   9  16
ATOM     15  C   UNL     1      46.719   3.235   6.327  0.00  0.00    +0.000 C 
ATOM     16  O   UNL     1      46.270   4.276   7.184  0.00  0.00    +0.000 OA
ENDBRANCH   9  16
ENDBRANCH   8  13
ENDBRANCH   7   8
ENDBRANCH   1   7
BRANCH   4  17
ATOM     17  C   UNL     1      49.233   8.825  14.421  0.00  0.00    +0.000 C 
BRANCH  17  18
ATOM     18  N   UNL     1      49.331   7.984  15.594  0.00  0.00    +0.000 N 
ATOM     19  C   UNL     1      48.654   8.264  16.748  0.00  0.00    +0.000 C 
ATOM     20  O   UNL     1      47.935   9.255  16.856  0.00  0.00    +0.000 OA
ATOM     21  H   UNL     1      50.082   7.299  15.591  0.00  0.00    +0.000 HD
BRANCH  19  22
ATOM     22  C   UNL     1      48.769   7.286  17.840  0.00  0.00    +0.000 A 
ATOM     23  C   UNL     1      49.037   7.734  19.125  0.00  0.00    +0.000 A 
ATOM     24  S   UNL     1      49.109   6.490  20.286  0.00  0.00    +0.000 S 
ATOM     25  C   UNL     1      48.823   5.299  19.105  0.00  0.00    +0.000 A 
ATOM     26  N   UNL     1      48.792   3.981  19.439  0.00  0.00    +0.000 NA
ATOM     27  C   UNL     1      48.600   3.184  18.442  0.00  0.00    +0.000 A 
ATOM     28  N   UNL     1      48.425   3.586  17.144  0.00  0.00    +0.000 N 
ATOM     29  C   UNL     1      48.393   4.909  16.769  0.00  0.00    +0.000 A 
ATOM     30  O   UNL     1      48.144   5.239  15.615  0.00  0.00    +0.000 OA
ATOM     31  C   UNL     1      48.646   5.847  17.847  0.00  0.00    +0.000 A 
ATOM     32  H   UNL     1      48.254   2.912  16.412  0.00  0.00    +0.000 HD
ENDBRANCH  19  22
ENDBRANCH  17  18
ENDBRANCH   4  17
TORSDOF 7
ENDMDL
MODEL 6
REMARK VINA RESULT:    -6.882      3.821      7.929
REMARK INTER + INTRA:         -10.703
REMARK INTER:                  -9.324
REMARK INTRA:                  -1.379
REMARK UNBOUND:                -1.004
REMARK  Name = 
REMARK  8 active torsions:
REMARK  status: ('A' for Active; 'I' for Inactive)
REMARK    1  A    between atoms: C_1  and  O_2
REMARK    2  A    between atoms: O_2  and  C_3
REMARK    3  A    between atoms: C_7  and  C_8
REMARK    4  A    between atoms: C_8  and  O_9
REMARK    5  A    between atoms: O_9  and  C_10
REMARK    6  A    between atoms: C_13  and  C_14
REMARK    7  A    between atoms: C_14  and  N_15
REMARK    8  A    between atoms: C_16  and  C_18
REMARK                            x       y       z     vdW  Elec       q    Type
REMARK                         _______ _______ _______ _____ _____    ______ ____
ROOT
ATOM      1  C   UNL     1      50.065   7.073  17.733  0.00  0.00    +0.000 A 
ATOM      2  C   UNL     1      49.090   7.992  18.107  0.00  0.00    +0.000 A 
ATOM      3  C   UNL     1      48.456   8.758  17.132  0.00  0.00    +0.000 A 
ATOM      4  C   UNL     1      48.840   8.605  15.800  0.00  0.00    +0.000 A 
ATOM      5  N   UNL     1      49.809   7.734  15.419  0.00  0.00    +0.000 NA
ATOM      6  C   UNL     1      50.399   6.999  16.388  0.00  0.00    +0.000 A 
ENDROOT
BRANCH   1   7
ATOM      7  O   UNL     1      50.612   6.327  18.735  0.00  0.00    +0.000 OA
BRANCH   7   8
ATOM      8  C   UNL     1      49.694   5.478  19.431  0.00  0.00    +0.000 C 
BRANCH   8  13
ATOM      9  C   UNL     1      49.493   2.554  16.988  0.00  0.00    +0.000 A 
ATOM     10  C   UNL     1      48.140   2.582  16.646  0.00  0.00    +0.000 A 
ATOM     11  C   UNL     1      47.296   3.550  17.197  0.00  0.00    +0.000 A 
ATOM     12  C   UNL     1      47.800   4.487  18.095  0.00  0.00    +0.000 A 
ATOM     13  C   UNL     1      49.154   4.465  18.457  0.00  0.00    +0.000 A 
ATOM     14  C   UNL     1      49.995   3.502  17.883  0.00  0.00    +0.000 A 
BRANCH   9  16
ATOM     15  C   UNL     1      51.542   1.415  17.360  0.00  0.00    +0.000 C 
ATOM     16  O   UNL     1      50.422   1.664  16.522  0.00  0.00    +0.000 OA
ENDBRANCH   9  16
ENDBRANCH   8  13
ENDBRANCH   7   8
ENDBRANCH   1   7
BRANCH   4  17
ATOM     17  C   UNL     1      48.158   9.385  14.707  0.00  0.00    +0.000 C 
BRANCH  17  18
ATOM     18  N   UNL     1      47.070   8.643  14.109  0.00  0.00    +0.000 N 
ATOM     19  C   UNL     1      47.240   7.878  12.990  0.00  0.00    +0.000 C 
ATOM     20  O   UNL     1      48.327   7.790  12.421  0.00  0.00    +0.000 OA
ATOM     21  H   UNL     1      46.136   8.881  14.432  0.00  0.00    +0.000 HD
BRANCH  19  22
ATOM     22  C   UNL     1      46.078   7.104  12.530  0.00  0.00    +0.000 A 
ATOM     23  C   UNL     1      45.038   7.761  11.887  0.00  0.00    +0.000 A 
ATOM     24  S   UNL     1      43.779   6.729  11.385  0.00  0.00    +0.000 S 
ATOM     25  C   UNL     1      44.559   5.369  12.045  0.00  0.00    +0.000 A 
ATOM     26  N   UNL     1      43.984   4.138  11.983  0.00  0.00    +0.000 NA
ATOM     27  C   UNL     1      44.667   3.202  12.551  0.00  0.00    +0.000 A 
ATOM     28  N   UNL     1      45.879   3.383  13.165  0.00  0.00    +0.000 N 
ATOM     29  C   UNL     1      46.523   4.597  13.203  0.00  0.00    +0.000 A 
ATOM     30  O   UNL     1      47.647   4.707  13.680  0.00  0.00    +0.000 OA
ATOM     31  C   UNL     1      45.778   5.694  12.614  0.00  0.00    +0.000 A 
ATOM     32  H   UNL     1      46.374   2.603  13.571  0.00  0.00    +0.000 HD
ENDBRANCH  19  22
ENDBRANCH  17  18
ENDBRANCH   4  17
TORSDOF 7
ENDMDL
MODEL 7
REMARK VINA RESULT:    -6.882      2.754      3.816
REMARK INTER + INTRA:         -10.702
REMARK INTER:                  -9.687
REMARK INTRA:                  -1.016
REMARK UNBOUND:                -1.004
REMARK  Name = 
REMARK  8 active torsions:
REMARK  status: ('A' for Active; 'I' for Inactive)
REMARK    1  A    between atoms: C_1  and  O_2
REMARK    2  A    between atoms: O_2  and  C_3
REMARK    3  A    between atoms: C_7  and  C_8
REMARK    4  A    between atoms: C_8  and  O_9
REMARK    5  A    between atoms: O_9  and  C_10
REMARK    6  A    between atoms: C_13  and  C_14
REMARK    7  A    between atoms: C_14  and  N_15
REMARK    8  A    between atoms: C_16  and  C_18
REMARK                            x       y       z     vdW  Elec       q    Type
REMARK                         _______ _______ _______ _____ _____    ______ ____
ROOT
ATOM      1  C   UNL     1      47.457   6.746  12.678  0.00  0.00    +0.000 A 
ATOM      2  C   UNL     1      47.695   8.086  12.969  0.00  0.00    +0.000 A 
ATOM      3  C   UNL     1      48.287   8.433  14.181  0.00  0.00    +0.000 A 
ATOM      4  C   UNL     1      48.599   7.423  15.091  0.00  0.00    +0.000 A 
ATOM      5  N   UNL     1      48.349   6.114  14.837  0.00  0.00    +0.000 NA
ATOM      6  C   UNL     1      47.782   5.809  13.648  0.00  0.00    +0.000 A 
ENDROOT
BRANCH   1   7
ATOM      7  O   UNL     1      46.916   6.479  11.456  0.00  0.00    +0.000 OA
BRANCH   7   8
ATOM      8  C   UNL     1      45.518   6.755  11.336  0.00  0.00    +0.000 C 
BRANCH   8  13
ATOM      9  C   UNL     1      44.013   3.361  10.453  0.00  0.00    +0.000 A 
ATOM     10  C   UNL     1      43.369   3.033  11.647  0.00  0.00    +0.000 A 
ATOM     11  C   UNL     1      43.414   3.911  12.733  0.00  0.00    +0.000 A 
ATOM     12  C   UNL     1      44.107   5.115  12.631  0.00  0.00    +0.000 A 
ATOM     13  C   UNL     1      44.767   5.453  11.442  0.00  0.00    +0.000 A 
ATOM     14  C   UNL     1      44.699   4.575  10.353  0.00  0.00    +0.000 A 
BRANCH   9  16
ATOM     15  C   UNL     1      45.300   2.024   8.974  0.00  0.00    +0.000 C 
ATOM     16  O   UNL     1      44.045   2.594   9.321  0.00  0.00    +0.000 OA
ENDBRANCH   9  16
ENDBRANCH   8  13
ENDBRANCH   7   8
ENDBRANCH   1   7
BRANCH   4  17
ATOM     17  C   UNL     1      49.273   7.745  16.400  0.00  0.00    +0.000 C 
BRANCH  17  18
ATOM     18  N   UNL     1      50.295   6.779  16.735  0.00  0.00    +0.000 N 
ATOM     19  C   UNL     1      50.246   6.038  17.882  0.00  0.00    +0.000 C 
ATOM     20  O   UNL     1      49.336   6.164  18.700  0.00  0.00    +0.000 OA
ATOM     21  H   UNL     1      51.151   6.825  16.189  0.00  0.00    +0.000 HD
BRANCH  19  22
ATOM     22  C   UNL     1      51.299   5.028  18.067  0.00  0.00    +0.000 A 
ATOM     23  C   UNL     1      52.520   5.413  18.603  0.00  0.00    +0.000 A 
ATOM     24  S   UNL     1      53.625   4.130  18.787  0.00  0.00    +0.000 S 
ATOM     25  C   UNL     1      52.525   3.017  18.118  0.00  0.00    +0.000 A 
ATOM     26  N   UNL     1      52.868   1.710  17.957  0.00  0.00    +0.000 NA
ATOM     27  C   UNL     1      51.954   0.984  17.407  0.00  0.00    +0.000 A 
ATOM     28  N   UNL     1      50.723   1.443  17.016  0.00  0.00    +0.000 N 
ATOM     29  C   UNL     1      50.313   2.742  17.210  0.00  0.00    +0.000 A 
ATOM     30  O   UNL     1      49.174   3.098  16.931  0.00  0.00    +0.000 OA
ATOM     31  C   UNL     1      51.320   3.612  17.787  0.00  0.00    +0.000 A 
ATOM     32  H   UNL     1      50.041   0.817  16.613  0.00  0.00    +0.000 HD
ENDBRANCH  19  22
ENDBRANCH  17  18
ENDBRANCH   4  17
TORSDOF 7
ENDMDL
MODEL 8
REMARK VINA RESULT:    -6.798      3.481      9.146
REMARK INTER + INTRA:         -10.584
REMARK INTER:                  -9.210
REMARK INTRA:                  -1.374
REMARK UNBOUND:                -1.004
REMARK  Name = 
REMARK  8 active torsions:
REMARK  status: ('A' for Active; 'I' for Inactive)
REMARK    1  A    between atoms: C_1  and  O_2
REMARK    2  A    between atoms: O_2  and  C_3
REMARK    3  A    between atoms: C_7  and  C_8
REMARK    4  A    between atoms: C_8  and  O_9
REMARK    5  A    between atoms: O_9  and  C_10
REMARK    6  A    between atoms: C_13  and  C_14
REMARK    7  A    between atoms: C_14  and  N_15
REMARK    8  A    between atoms: C_16  and  C_18
REMARK                            x       y       z     vdW  Elec       q    Type
REMARK                         _______ _______ _______ _____ _____    ______ ____
ROOT
ATOM      1  C   UNL     1      49.665   8.347  15.512  0.00  0.00    +0.000 A 
ATOM      2  C   UNL     1      50.257   7.545  14.541  0.00  0.00    +0.000 A 
ATOM      3  C   UNL     1      49.631   7.381  13.308  0.00  0.00    +0.000 A 
ATOM      4  C   UNL     1      48.403   8.006  13.089  0.00  0.00    +0.000 A 
ATOM      5  N   UNL     1      47.797   8.769  14.033  0.00  0.00    +0.000 NA
ATOM      6  C   UNL     1      48.434   8.914  15.216  0.00  0.00    +0.000 A 
ENDROOT
BRANCH   1   7
ATOM      7  O   UNL     1      50.357   8.496  16.678  0.00  0.00    +0.000 OA
BRANCH   7   8
ATOM      8  C   UNL     1      50.610   7.284  17.393  0.00  0.00    +0.000 C 
BRANCH   8  13
ATOM      9  C   UNL     1      47.471   5.259  18.173  0.00  0.00    +0.000 A 
ATOM     10  C   UNL     1      46.929   5.997  19.226  0.00  0.00    +0.000 A 
ATOM     11  C   UNL     1      47.572   7.152  19.678  0.00  0.00    +0.000 A 
ATOM     12  C   UNL     1      48.761   7.568  19.083  0.00  0.00    +0.000 A 
ATOM     13  C   UNL     1      49.323   6.832  18.032  0.00  0.00    +0.000 A 
ATOM     14  C   UNL     1      48.659   5.686  17.574  0.00  0.00    +0.000 A 
BRANCH   9  16
ATOM     15  C   UNL     1      47.427   3.729  16.359  0.00  0.00    +0.000 C 
ATOM     16  O   UNL     1      46.944   4.115  17.638  0.00  0.00    +0.000 OA
ENDBRANCH   9  16
ENDBRANCH   8  13
ENDBRANCH   7   8
ENDBRANCH   1   7
BRANCH   4  17
ATOM     17  C   UNL     1      47.705   7.889  11.759  0.00  0.00    +0.000 C 
BRANCH  17  18
ATOM     18  N   UNL     1      46.985   6.640  11.633  0.00  0.00    +0.000 N 
ATOM     19  C   UNL     1      45.646   6.544  11.893  0.00  0.00    +0.000 C 
ATOM     20  O   UNL     1      44.984   7.512  12.263  0.00  0.00    +0.000 OA
ATOM     21  H   UNL     1      47.553   5.803  11.547  0.00  0.00    +0.000 HD
BRANCH  19  22
ATOM     22  C   UNL     1      45.013   5.241  11.644  0.00  0.00    +0.000 A 
ATOM     23  C   UNL     1      44.310   4.623  12.669  0.00  0.00    +0.000 A 
ATOM     24  S   UNL     1      43.607   3.137  12.222  0.00  0.00    +0.000 S 
ATOM     25  C   UNL     1      44.251   3.245  10.651  0.00  0.00    +0.000 A 
ATOM     26  N   UNL     1      44.043   2.252   9.744  0.00  0.00    +0.000 NA
ATOM     27  C   UNL     1      44.615   2.445   8.604  0.00  0.00    +0.000 A 
ATOM     28  N   UNL     1      45.366   3.547   8.283  0.00  0.00    +0.000 N 
ATOM     29  C   UNL     1      45.556   4.599   9.149  0.00  0.00    +0.000 A 
ATOM     30  O   UNL     1      46.156   5.609   8.801  0.00  0.00    +0.000 OA
ATOM     31  C   UNL     1      44.968   4.413  10.462  0.00  0.00    +0.000 A 
ATOM     32  H   UNL     1      45.768   3.649   7.363  0.00  0.00    +0.000 HD
ENDBRANCH  19  22
ENDBRANCH  17  18
ENDBRANCH   4  17
TORSDOF 7
ENDMDL
MODEL 9
REMARK VINA RESULT:    -6.714      3.787      8.943
REMARK INTER + INTRA:         -10.466
REMARK INTER:                  -9.490
REMARK INTRA:                  -0.976
REMARK UNBOUND:                -1.004
REMARK  Name = 
REMARK  8 active torsions:
REMARK  status: ('A' for Active; 'I' for Inactive)
REMARK    1  A    between atoms: C_1  and  O_2
REMARK    2  A    between atoms: O_2  and  C_3
REMARK    3  A    between atoms: C_7  and  C_8
REMARK    4  A    between atoms: C_8  and  O_9
REMARK    5  A    between atoms: O_9  and  C_10
REMARK    6  A    between atoms: C_13  and  C_14
REMARK    7  A    between atoms: C_14  and  N_15
REMARK    8  A    between atoms: C_16  and  C_18
REMARK                            x       y       z     vdW  Elec       q    Type
REMARK                         _______ _______ _______ _____ _____    ______ ____
ROOT
ATOM      1  C   UNL     1      50.068   6.895  16.106  0.00  0.00    +0.000 A 
ATOM      2  C   UNL     1      50.864   7.612  15.218  0.00  0.00    +0.000 A 
ATOM      3  C   UNL     1      50.371   7.933  13.956  0.00  0.00    +0.000 A 
ATOM      4  C   UNL     1      49.093   7.499  13.603  0.00  0.00    +0.000 A 
ATOM      5  N   UNL     1      48.313   6.775  14.445  0.00  0.00    +0.000 NA
ATOM      6  C   UNL     1      48.818   6.487  15.665  0.00  0.00    +0.000 A 
ENDROOT
BRANCH   1   7
ATOM      7  O   UNL     1      50.601   6.655  17.338  0.00  0.00    +0.000 OA
BRANCH   7   8
ATOM      8  C   UNL     1      49.889   5.702  18.132  0.00  0.00    +0.000 C 
BRANCH   8  13
ATOM      9  C   UNL     1      52.404   2.851  17.804  0.00  0.00    +0.000 A 
ATOM     10  C   UNL     1      51.572   1.801  17.412  0.00  0.00    +0.000 A 
ATOM     11  C   UNL     1      50.201   2.017  17.246  0.00  0.00    +0.000 A 
ATOM     12  C   UNL     1      49.659   3.278  17.477  0.00  0.00    +0.000 A 
ATOM     13  C   UNL     1      50.480   4.339  17.881  0.00  0.00    +0.000 A 
ATOM     14  C   UNL     1      51.855   4.117  18.026  0.00  0.00    +0.000 A 
BRANCH   9  16
ATOM     15  C   UNL     1      54.189   2.415  19.307  0.00  0.00    +0.000 C 
ATOM     16  O   UNL     1      53.756   2.774  18.002  0.00  0.00    +0.000 OA
ENDBRANCH   9  16
ENDBRANCH   8  13
ENDBRANCH   7   8
ENDBRANCH   1   7
BRANCH   4  17
ATOM     17  C   UNL     1      48.502   7.853  12.263  0.00  0.00    +0.000 C 
BRANCH  17  18
ATOM     18  N   UNL     1      47.724   6.766  11.710  0.00  0.00    +0.000 N 
ATOM     19  C   UNL     1      46.370   6.854  11.540  0.00  0.00    +0.000 C 
ATOM     20  O   UNL     1      45.738   7.858  11.862  0.00  0.00    +0.000 OA
ATOM     21  H   UNL     1      48.192   5.867  11.649  0.00  0.00    +0.000 HD
BRANCH  19  22
ATOM     22  C   UNL     1      45.707   5.716  10.887  0.00  0.00    +0.000 A 
ATOM     23  C   UNL     1      45.819   5.563   9.513  0.00  0.00    +0.000 A 
ATOM     24  S   UNL     1      45.026   4.183   8.907  0.00  0.00    +0.000 S 
ATOM     25  C   UNL     1      44.467   3.758  10.458  0.00  0.00    +0.000 A 
ATOM     26  N   UNL     1      43.681   2.663  10.639  0.00  0.00    +0.000 NA
ATOM     27  C   UNL     1      43.301   2.477  11.858  0.00  0.00    +0.000 A 
ATOM     28  N   UNL     1      43.646   3.279  12.915  0.00  0.00    +0.000 N 
ATOM     29  C   UNL     1      44.483   4.364  12.787  0.00  0.00    +0.000 A 
ATOM     30  O   UNL     1      44.845   5.007  13.766  0.00  0.00    +0.000 OA
ATOM     31  C   UNL     1      44.906   4.643  11.428  0.00  0.00    +0.000 A 
ATOM     32  H   UNL     1      43.335   3.065  13.850  0.00  0.00    +0.000 HD
ENDBRANCH  19  22
ENDBRANCH  17  18
ENDBRANCH   4  17
TORSDOF 7
ENDMDL
