MODEL 1
REMARK VINA RESULT:    -8.217      0.000      0.000
REMARK INTER + INTRA:         -11.502
REMARK INTER:                 -10.619
REMARK INTRA:                  -0.882
REMARK UNBOUND:                -0.882
REMARK  Name = 
REMARK  5 active torsions:
REMARK  status: ('A' for Active; 'I' for Inactive)
REMARK    1  A    between atoms: C_2  and  C_4
REMARK    2  A    between atoms: C_8  and  S_9
REMARK    3  A    between atoms: S_9  and  C_10
REMARK    4  A    between atoms: C_10  and  C_11
REMARK    5  A    between atoms: C_16  and  C_17
REMARK                            x       y       z     vdW  Elec       q    Type
REMARK                         _______ _______ _______ _____ _____    ______ ____
ROOT
ATOM      1  C   UNL     1      45.058   4.912  12.395  0.00  0.00    +0.000 A 
ATOM      2  C   UNL     1      45.653   4.072  13.341  0.00  0.00    +0.000 A 
ATOM      3  C   UNL     1      46.835   4.446  13.962  0.00  0.00    +0.000 A 
ATOM      4  F   UNL     1      47.374   3.641  14.888  0.00  0.00    +0.000 F 
ATOM      5  C   UNL     1      47.476   5.633  13.638  0.00  0.00    +0.000 A 
ATOM      6  C   UNL     1      46.958   6.481  12.644  0.00  0.00    +0.000 A 
ATOM      7  C   UNL     1      45.736   6.103  12.043  0.00  0.00    +0.000 A 
ENDROOT
BRANCH   6   8
ATOM      8  C   UNL     1      47.692   7.705  12.237  0.00  0.00    +0.000 A 
ATOM      9  C   UNL     1      49.047   7.676  11.855  0.00  0.00    +0.000 A 
ATOM     10  C   UNL     1      49.729   8.841  11.478  0.00  0.00    +0.000 A 
ATOM     11  C   UNL     1      49.064  10.063  11.459  0.00  0.00    +0.000 A 
ATOM     12  C   UNL     1      47.729  10.109  11.827  0.00  0.00    +0.000 A 
ATOM     13  F   UNL     1      47.078  11.281  11.811  0.00  0.00    +0.000 F 
ATOM     14  C   UNL     1      47.050   8.958  12.216  0.00  0.00    +0.000 A 
ENDBRANCH   6   8
BRANCH   1  15
ATOM     15  C   UNL     1      43.771   4.553  11.677  0.00  0.00    +0.000 C 
BRANCH  15  16
ATOM     16  S   UNL     1      43.758   2.875  10.938  0.00  0.00    +0.000 S 
BRANCH  16  21
ATOM     17  C   UNL     1      46.400   2.263   7.905  0.00  0.00    +0.000 A 
ATOM     18  C   UNL     1      46.581   3.553   7.394  0.00  0.00    +0.000 A 
ATOM     19  C   UNL     1      45.896   4.627   7.964  0.00  0.00    +0.000 A 
ATOM     20  C   UNL     1      45.029   4.412   9.038  0.00  0.00    +0.000 A 
ATOM     21  C   UNL     1      44.832   3.123   9.542  0.00  0.00    +0.000 A 
ATOM     22  C   UNL     1      45.527   2.053   8.978  0.00  0.00    +0.000 A 
BRANCH  17  24
ATOM     23  N   UNL     1      46.617  -0.154   7.692  0.00  0.00    +0.000 N 
ATOM     24  C   UNL     1      47.085   1.078   7.335  0.00  0.00    +0.000 C 
ATOM     25  O   UNL     1      48.014   1.197   6.545  0.00  0.00    +0.000 OA
ATOM     26  H   UNL     1      47.024  -0.941   7.203  0.00  0.00    +0.000 HD
ATOM     27  H   UNL     1      45.712  -0.285   8.121  0.00  0.00    +0.000 HD
ENDBRANCH  17  24
ENDBRANCH  16  21
ENDBRANCH  15  16
ENDBRANCH   1  15
TORSDOF 5
ENDMDL
MODEL 2
REMARK VINA RESULT:    -8.214      3.911      7.216
REMARK INTER + INTRA:         -11.497
REMARK INTER:                 -10.569
REMARK INTRA:                  -0.928
REMARK UNBOUND:                -0.882
REMARK  Name = 
REMARK  5 active torsions:
REMARK  status: ('A' for Active; 'I' for Inactive)
REMARK    1  A    between atoms: C_2  and  C_4
REMARK    2  A    between atoms: C_8  and  S_9
REMARK    3  A    between atoms: S_9  and  C_10
REMARK    4  A    between atoms: C_10  and  C_11
REMARK    5  A    between atoms: C_16  and  C_17
REMARK                            x       y       z     vdW  Elec       q    Type
REMARK                         _______ _______ _______ _____ _____    ______ ____
ROOT
ATOM      1  C   UNL     1      45.220   6.565  11.314  0.00  0.00    +0.000 A 
ATOM      2  C   UNL     1      43.885   6.357  11.678  0.00  0.00    +0.000 A 
ATOM      3  C   UNL     1      43.184   5.275  11.170  0.00  0.00    +0.000 A 
ATOM      4  F   UNL     1      41.916   5.075  11.553  0.00  0.00    +0.000 F 
ATOM      5  C   UNL     1      43.766   4.400  10.264  0.00  0.00    +0.000 A 
ATOM      6  C   UNL     1      45.081   4.601   9.811  0.00  0.00    +0.000 A 
ATOM      7  C   UNL     1      45.794   5.690  10.363  0.00  0.00    +0.000 A 
ENDROOT
BRANCH   6   8
ATOM      8  C   UNL     1      45.669   3.715   8.777  0.00  0.00    +0.000 A 
ATOM      9  C   UNL     1      46.304   4.223   7.626  0.00  0.00    +0.000 A 
ATOM     10  C   UNL     1      46.852   3.373   6.655  0.00  0.00    +0.000 A 
ATOM     11  C   UNL     1      46.790   1.993   6.821  0.00  0.00    +0.000 A 
ATOM     12  C   UNL     1      46.173   1.477   7.949  0.00  0.00    +0.000 A 
ATOM     13  F   UNL     1      46.109   0.149   8.119  0.00  0.00    +0.000 F 
ATOM     14  C   UNL     1      45.615   2.315   8.911  0.00  0.00    +0.000 A 
ENDBRANCH   6   8
BRANCH   1  15
ATOM     15  C   UNL     1      46.035   7.735  11.832  0.00  0.00    +0.000 C 
BRANCH  15  16
ATOM     16  S   UNL     1      47.848   7.463  11.812  0.00  0.00    +0.000 S 
BRANCH  16  21
ATOM     17  C   UNL     1      47.885   5.266  15.236  0.00  0.00    +0.000 A 
ATOM     18  C   UNL     1      48.482   6.139  16.152  0.00  0.00    +0.000 A 
ATOM     19  C   UNL     1      48.886   7.410  15.737  0.00  0.00    +0.000 A 
ATOM     20  C   UNL     1      48.699   7.803  14.410  0.00  0.00    +0.000 A 
ATOM     21  C   UNL     1      48.119   6.928  13.486  0.00  0.00    +0.000 A 
ATOM     22  C   UNL     1      47.705   5.663  13.907  0.00  0.00    +0.000 A 
BRANCH  17  24
ATOM     23  N   UNL     1      46.911   3.725  16.852  0.00  0.00    +0.000 N 
ATOM     24  C   UNL     1      47.450   3.898  15.609  0.00  0.00    +0.000 C 
ATOM     25  O   UNL     1      47.537   2.964  14.822  0.00  0.00    +0.000 OA
ATOM     26  H   UNL     1      46.517   2.812  17.040  0.00  0.00    +0.000 HD
ATOM     27  H   UNL     1      46.589   4.499  17.415  0.00  0.00    +0.000 HD
ENDBRANCH  17  24
ENDBRANCH  16  21
ENDBRANCH  15  16
ENDBRANCH   1  15
TORSDOF 5
ENDMDL
MODEL 3
REMARK VINA RESULT:    -8.037      1.945      4.312
REMARK INTER + INTRA:         -11.268
REMARK INTER:                 -10.621
REMARK INTRA:                  -0.647
REMARK UNBOUND:                -0.882
REMARK  Name = 
REMARK  5 active torsions:
REMARK  status: ('A' for Active; 'I' for Inactive)
REMARK    1  A    between atoms: C_2  and  C_4
REMARK    2  A    between atoms: C_8  and  S_9
REMARK    3  A    between atoms: S_9  and  C_10
REMARK    4  A    between atoms: C_10  and  C_11
REMARK    5  A    between atoms: C_16  and  C_17
REMARK                            x       y       z     vdW  Elec       q    Type
REMARK                         _______ _______ _______ _____ _____    ______ ____
ROOT
ATOM      1  C   UNL     1      45.229   5.084  12.334  0.00  0.00    +0.000 A 
ATOM      2  C   UNL     1      45.953   6.043  11.617  0.00  0.00    +0.000 A 
ATOM      3  C   UNL     1      47.162   6.513  12.105  0.00  0.00    +0.000 A 
ATOM      4  F   UNL     1      47.855   7.409  11.389  0.00  0.00    +0.000 F 
ATOM      5  C   UNL     1      47.665   6.083  13.324  0.00  0.00    +0.000 A 
ATOM      6  C   UNL     1      46.946   5.174  14.118  0.00  0.00    +0.000 A 
ATOM      7  C   UNL     1      45.731   4.678  13.593  0.00  0.00    +0.000 A 
ENDROOT
BRANCH   6   8
ATOM      8  C   UNL     1      47.443   4.783  15.460  0.00  0.00    +0.000 A 
ATOM      9  C   UNL     1      48.434   5.520  16.137  0.00  0.00    +0.000 A 
ATOM     10  C   UNL     1      48.898   5.136  17.403  0.00  0.00    +0.000 A 
ATOM     11  C   UNL     1      48.368   4.012  18.029  0.00  0.00    +0.000 A 
ATOM     12  C   UNL     1      47.389   3.278  17.379  0.00  0.00    +0.000 A 
ATOM     13  F   UNL     1      46.870   2.194  17.974  0.00  0.00    +0.000 F 
ATOM     14  C   UNL     1      46.933   3.646  16.116  0.00  0.00    +0.000 A 
ENDBRANCH   6   8
BRANCH   1  15
ATOM     15  C   UNL     1      43.898   4.538  11.855  0.00  0.00    +0.000 C 
BRANCH  15  16
ATOM     16  S   UNL     1      43.959   2.803  11.264  0.00  0.00    +0.000 S 
BRANCH  16  21
ATOM     17  C   UNL     1      46.275   2.162   7.981  0.00  0.00    +0.000 A 
ATOM     18  C   UNL     1      46.219   3.395   7.323  0.00  0.00    +0.000 A 
ATOM     19  C   UNL     1      45.470   4.439   7.869  0.00  0.00    +0.000 A 
ATOM     20  C   UNL     1      44.775   4.249   9.066  0.00  0.00    +0.000 A 
ATOM     21  C   UNL     1      44.814   3.013   9.719  0.00  0.00    +0.000 A 
ATOM     22  C   UNL     1      45.572   1.975   9.177  0.00  0.00    +0.000 A 
BRANCH  17  24
ATOM     23  N   UNL     1      46.579  -0.243   7.740  0.00  0.00    +0.000 N 
ATOM     24  C   UNL     1      47.038   1.008   7.445  0.00  0.00    +0.000 C 
ATOM     25  O   UNL     1      48.024   1.170   6.736  0.00  0.00    +0.000 OA
ATOM     26  H   UNL     1      47.047  -1.008   7.271  0.00  0.00    +0.000 HD
ATOM     27  H   UNL     1      45.647  -0.409   8.092  0.00  0.00    +0.000 HD
ENDBRANCH  17  24
ENDBRANCH  16  21
ENDBRANCH  15  16
ENDBRANCH   1  15
TORSDOF 5
ENDMDL
MODEL 4
REMARK VINA RESULT:    -7.696      4.594      7.695
REMARK INTER + INTRA:         -10.828
REMARK INTER:                 -10.053
REMARK INTRA:                  -0.775
REMARK UNBOUND:                -0.882
REMARK  Name = 
REMARK  5 active torsions:
REMARK  status: ('A' for Active; 'I' for Inactive)
REMARK    1  A    between atoms: C_2  and  C_4
REMARK    2  A    between atoms: C_8  and  S_9
REMARK    3  A    between atoms: S_9  and  C_10
REMARK    4  A    between atoms: C_10  and  C_11
REMARK    5  A    between atoms: C_16  and  C_17
REMARK                            x       y       z     vdW  Elec       q    Type
REMARK                         _______ _______ _______ _____ _____    ______ ____
ROOT
ATOM      1  C   UNL     1      45.256   6.454  11.488  0.00  0.00    +0.000 A 
ATOM      2  C   UNL     1      43.901   6.305  11.801  0.00  0.00    +0.000 A 
ATOM      3  C   UNL     1      43.158   5.290  11.219  0.00  0.00    +0.000 A 
ATOM      4  F   UNL     1      41.869   5.145  11.553  0.00  0.00    +0.000 F 
ATOM      5  C   UNL     1      43.720   4.427  10.289  0.00  0.00    +0.000 A 
ATOM      6  C   UNL     1      45.058   4.575   9.887  0.00  0.00    +0.000 A 
ATOM      7  C   UNL     1      45.812   5.594  10.513  0.00  0.00    +0.000 A 
ENDROOT
BRANCH   6   8
ATOM      8  C   UNL     1      45.631   3.707   8.828  0.00  0.00    +0.000 A 
ATOM      9  C   UNL     1      46.240   4.234   7.673  0.00  0.00    +0.000 A 
ATOM     10  C   UNL     1      46.773   3.401   6.679  0.00  0.00    +0.000 A 
ATOM     11  C   UNL     1      46.722   2.019   6.826  0.00  0.00    +0.000 A 
ATOM     12  C   UNL     1      46.130   1.483   7.959  0.00  0.00    +0.000 A 
ATOM     13  F   UNL     1      46.076   0.153   8.111  0.00  0.00    +0.000 F 
ATOM     14  C   UNL     1      45.587   2.304   8.943  0.00  0.00    +0.000 A 
ENDBRANCH   6   8
BRANCH   1  15
ATOM     15  C   UNL     1      46.117   7.550  12.087  0.00  0.00    +0.000 C 
BRANCH  15  16
ATOM     16  S   UNL     1      47.881   7.097  12.299  0.00  0.00    +0.000 S 
BRANCH  16  21
ATOM     17  C   UNL     1      48.530   5.910  16.136  0.00  0.00    +0.000 A 
ATOM     18  C   UNL     1      47.746   4.755  16.233  0.00  0.00    +0.000 A 
ATOM     19  C   UNL     1      47.006   4.323  15.131  0.00  0.00    +0.000 A 
ATOM     20  C   UNL     1      47.044   5.048  13.938  0.00  0.00    +0.000 A 
ATOM     21  C   UNL     1      47.811   6.213  13.840  0.00  0.00    +0.000 A 
ATOM     22  C   UNL     1      48.559   6.635  14.939  0.00  0.00    +0.000 A 
BRANCH  17  24
ATOM     23  N   UNL     1      49.015   5.972  18.522  0.00  0.00    +0.000 N 
ATOM     24  C   UNL     1      49.326   6.430  17.274  0.00  0.00    +0.000 C 
ATOM     25  O   UNL     1      50.250   7.215  17.100  0.00  0.00    +0.000 OA
ATOM     26  H   UNL     1      49.643   6.251  19.265  0.00  0.00    +0.000 HD
ATOM     27  H   UNL     1      48.449   5.148  18.671  0.00  0.00    +0.000 HD
ENDBRANCH  17  24
ENDBRANCH  16  21
ENDBRANCH  15  16
ENDBRANCH   1  15
TORSDOF 5
ENDMDL
MODEL 5
REMARK VINA RESULT:    -7.626      3.842      7.212
REMARK INTER + INTRA:         -10.738
REMARK INTER:                 -10.041
REMARK INTRA:                  -0.697
REMARK UNBOUND:                -0.882
REMARK  Name = 
REMARK  5 active torsions:
REMARK  status: ('A' for Active; 'I' for Inactive)
REMARK    1  A    between atoms: C_2  and  C_4
REMARK    2  A    between atoms: C_8  and  S_9
REMARK    3  A    between atoms: S_9  and  C_10
REMARK    4  A    between atoms: C_10  and  C_11
REMARK    5  A    between atoms: C_16  and  C_17
REMARK                            x       y       z     vdW  Elec       q    Type
REMARK                         _______ _______ _______ _____ _____    ______ ____
ROOT
ATOM      1  C   UNL     1      44.808   5.801  10.985  0.00  0.00    +0.000 A 
ATOM      2  C   UNL     1      43.900   5.053  11.743  0.00  0.00    +0.000 A 
ATOM      3  C   UNL     1      43.705   3.708  11.470  0.00  0.00    +0.000 A 
ATOM      4  F   UNL     1      42.854   3.001  12.227  0.00  0.00    +0.000 F 
ATOM      5  C   UNL     1      44.365   3.081  10.424  0.00  0.00    +0.000 A 
ATOM      6  C   UNL     1      45.235   3.801   9.587  0.00  0.00    +0.000 A 
ATOM      7  C   UNL     1      45.449   5.163   9.898  0.00  0.00    +0.000 A 
ENDROOT
BRANCH   6   8
ATOM      8  C   UNL     1      45.871   3.149   8.416  0.00  0.00    +0.000 A 
ATOM      9  C   UNL     1      46.262   3.874   7.274  0.00  0.00    +0.000 A 
ATOM     10  C   UNL     1      46.858   3.244   6.172  0.00  0.00    +0.000 A 
ATOM     11  C   UNL     1      47.090   1.872   6.195  0.00  0.00    +0.000 A 
ATOM     12  C   UNL     1      46.715   1.144   7.313  0.00  0.00    +0.000 A 
ATOM     13  F   UNL     1      46.936  -0.178   7.346  0.00  0.00    +0.000 F 
ATOM     14  C   UNL     1      46.111   1.762   8.404  0.00  0.00    +0.000 A 
ENDBRANCH   6   8
BRANCH   1  15
ATOM     15  C   UNL     1      45.058   7.276  11.232  0.00  0.00    +0.000 C 
BRANCH  15  16
ATOM     16  S   UNL     1      45.901   7.647  12.817  0.00  0.00    +0.000 S 
BRANCH  16  21
ATOM     17  C   UNL     1      49.660   8.674  11.645  0.00  0.00    +0.000 A 
ATOM     18  C   UNL     1      49.535  10.044  11.389  0.00  0.00    +0.000 A 
ATOM     19  C   UNL     1      48.302  10.674  11.567  0.00  0.00    +0.000 A 
ATOM     20  C   UNL     1      47.195   9.935  11.992  0.00  0.00    +0.000 A 
ATOM     21  C   UNL     1      47.310   8.562  12.233  0.00  0.00    +0.000 A 
ATOM     22  C   UNL     1      48.547   7.938  12.066  0.00  0.00    +0.000 A 
BRANCH  17  24
ATOM     23  N   UNL     1      51.864   8.031  12.459  0.00  0.00    +0.000 N 
ATOM     24  C   UNL     1      50.937   7.944  11.460  0.00  0.00    +0.000 C 
ATOM     25  O   UNL     1      51.142   7.259  10.466  0.00  0.00    +0.000 OA
ATOM     26  H   UNL     1      52.676   7.434  12.364  0.00  0.00    +0.000 HD
ATOM     27  H   UNL     1      51.632   8.362  13.385  0.00  0.00    +0.000 HD
ENDBRANCH  17  24
ENDBRANCH  16  21
ENDBRANCH  15  16
ENDBRANCH   1  15
TORSDOF 5
ENDMDL
MODEL 6
REMARK VINA RESULT:    -7.524      4.414      7.670
REMARK INTER + INTRA:         -10.606
REMARK INTER:                  -9.802
REMARK INTRA:                  -0.804
REMARK UNBOUND:                -0.882
REMARK  Name = 
REMARK  5 active torsions:
REMARK  status: ('A' for Active; 'I' for Inactive)
REMARK    1  A    between atoms: C_2  and  C_4
REMARK    2  A    between atoms: C_8  and  S_9
REMARK    3  A    between atoms: S_9  and  C_10
REMARK    4  A    between atoms: C_10  and  C_11
REMARK    5  A    between atoms: C_16  and  C_17
REMARK                            x       y       z     vdW  Elec       q    Type
REMARK                         _______ _______ _______ _____ _____    ______ ____
ROOT
ATOM      1  C   UNL     1      45.275   6.044  12.269  0.00  0.00    +0.000 A 
ATOM      2  C   UNL     1      43.884   6.084  12.422  0.00  0.00    +0.000 A 
ATOM      3  C   UNL     1      43.069   5.331  11.591  0.00  0.00    +0.000 A 
ATOM      4  F   UNL     1      41.742   5.360  11.772  0.00  0.00    +0.000 F 
ATOM      5  C   UNL     1      43.599   4.557  10.569  0.00  0.00    +0.000 A 
ATOM      6  C   UNL     1      44.983   4.534  10.327  0.00  0.00    +0.000 A 
ATOM      7  C   UNL     1      45.804   5.281  11.203  0.00  0.00    +0.000 A 
ENDROOT
BRANCH   6   8
ATOM      8  C   UNL     1      45.538   3.775   9.179  0.00  0.00    +0.000 A 
ATOM      9  C   UNL     1      46.098   4.415   8.056  0.00  0.00    +0.000 A 
ATOM     10  C   UNL     1      46.614   3.684   6.977  0.00  0.00    +0.000 A 
ATOM     11  C   UNL     1      46.597   2.293   7.004  0.00  0.00    +0.000 A 
ATOM     12  C   UNL     1      46.055   1.648   8.104  0.00  0.00    +0.000 A 
ATOM     13  F   UNL     1      46.034   0.308   8.141  0.00  0.00    +0.000 F 
ATOM     14  C   UNL     1      45.527   2.367   9.173  0.00  0.00    +0.000 A 
ENDBRANCH   6   8
BRANCH   1  15
ATOM     15  C   UNL     1      46.216   6.851  13.142  0.00  0.00    +0.000 C 
BRANCH  15  16
ATOM     16  S   UNL     1      47.488   7.793  12.216  0.00  0.00    +0.000 S 
BRANCH  16  21
ATOM     17  C   UNL     1      44.644  10.653  11.677  0.00  0.00    +0.000 A 
ATOM     18  C   UNL     1      45.399  11.831  11.649  0.00  0.00    +0.000 A 
ATOM     19  C   UNL     1      46.786  11.770  11.797  0.00  0.00    +0.000 A 
ATOM     20  C   UNL     1      47.415  10.537  11.980  0.00  0.00    +0.000 A 
ATOM     21  C   UNL     1      46.664   9.358  12.027  0.00  0.00    +0.000 A 
ATOM     22  C   UNL     1      45.280   9.421  11.866  0.00  0.00    +0.000 A 
BRANCH  17  24
ATOM     23  N   UNL     1      42.599   9.613  10.860  0.00  0.00    +0.000 N 
ATOM     24  C   UNL     1      43.168  10.651  11.541  0.00  0.00    +0.000 C 
ATOM     25  O   UNL     1      42.479  11.528  12.049  0.00  0.00    +0.000 OA
ATOM     26  H   UNL     1      41.587   9.572  10.880  0.00  0.00    +0.000 HD
ATOM     27  H   UNL     1      43.098   8.758  10.660  0.00  0.00    +0.000 HD
ENDBRANCH  17  24
ENDBRANCH  16  21
ENDBRANCH  15  16
ENDBRANCH   1  15
TORSDOF 5
ENDMDL
MODEL 7
REMARK VINA RESULT:    -7.252      4.298      7.650
REMARK INTER + INTRA:         -10.255
REMARK INTER:                  -9.391
REMARK INTRA:                  -0.863
REMARK UNBOUND:                -0.882
REMARK  Name = 
REMARK  5 active torsions:
REMARK  status: ('A' for Active; 'I' for Inactive)
REMARK    1  A    between atoms: C_2  and  C_4
REMARK    2  A    between atoms: C_8  and  S_9
REMARK    3  A    between atoms: S_9  and  C_10
REMARK    4  A    between atoms: C_10  and  C_11
REMARK    5  A    between atoms: C_16  and  C_17
REMARK                            x       y       z     vdW  Elec       q    Type
REMARK                         _______ _______ _______ _____ _____    ______ ____
ROOT
ATOM      1  C   UNL     1      47.533   7.316  12.952  0.00  0.00    +0.000 A 
ATOM      2  C   UNL     1      46.727   8.458  13.015  0.00  0.00    +0.000 A 
ATOM      3  C   UNL     1      45.464   8.454  12.444  0.00  0.00    +0.000 A 
ATOM      4  F   UNL     1      44.696   9.547  12.541  0.00  0.00    +0.000 F 
ATOM      5  C   UNL     1      44.984   7.344  11.764  0.00  0.00    +0.000 A 
ATOM      6  C   UNL     1      45.779   6.195  11.610  0.00  0.00    +0.000 A 
ATOM      7  C   UNL     1      47.051   6.202  12.226  0.00  0.00    +0.000 A 
ENDROOT
BRANCH   6   8
ATOM      8  C   UNL     1      45.297   5.043  10.808  0.00  0.00    +0.000 A 
ATOM      9  C   UNL     1      44.555   3.990  11.378  0.00  0.00    +0.000 A 
ATOM     10  C   UNL     1      44.111   2.905  10.608  0.00  0.00    +0.000 A 
ATOM     11  C   UNL     1      44.385   2.859   9.245  0.00  0.00    +0.000 A 
ATOM     12  C   UNL     1      45.109   3.889   8.667  0.00  0.00    +0.000 A 
ATOM     13  F   UNL     1      45.378   3.855   7.355  0.00  0.00    +0.000 F 
ATOM     14  C   UNL     1      45.566   4.962   9.428  0.00  0.00    +0.000 A 
ENDBRANCH   6   8
BRANCH   1  15
ATOM     15  C   UNL     1      48.925   7.264  13.552  0.00  0.00    +0.000 C 
BRANCH  15  16
ATOM     16  S   UNL     1      49.146   8.304  15.045  0.00  0.00    +0.000 S 
BRANCH  16  21
ATOM     17  C   UNL     1      48.048   4.925  17.029  0.00  0.00    +0.000 A 
ATOM     18  C   UNL     1      48.249   5.279  18.367  0.00  0.00    +0.000 A 
ATOM     19  C   UNL     1      48.726   6.552  18.684  0.00  0.00    +0.000 A 
ATOM     20  C   UNL     1      49.008   7.466  17.666  0.00  0.00    +0.000 A 
ATOM     21  C   UNL     1      48.825   7.112  16.326  0.00  0.00    +0.000 A 
ATOM     22  C   UNL     1      48.337   5.843  16.013  0.00  0.00    +0.000 A 
BRANCH  17  24
ATOM     23  N   UNL     1      46.920   2.836  17.571  0.00  0.00    +0.000 N 
ATOM     24  C   UNL     1      47.560   3.584  16.625  0.00  0.00    +0.000 C 
ATOM     25  O   UNL     1      47.694   3.175  15.478  0.00  0.00    +0.000 OA
ATOM     26  H   UNL     1      46.495   1.977  17.243  0.00  0.00    +0.000 HD
ATOM     27  H   UNL     1      46.567   3.234  18.429  0.00  0.00    +0.000 HD
ENDBRANCH  17  24
ENDBRANCH  16  21
ENDBRANCH  15  16
ENDBRANCH   1  15
TORSDOF 5
ENDMDL
MODEL 8
REMARK VINA RESULT:    -7.233      1.653      2.178
REMARK INTER + INTRA:         -10.230
REMARK INTER:                  -9.163
REMARK INTRA:                  -1.067
REMARK UNBOUND:                -0.882
REMARK  Name = 
REMARK  5 active torsions:
REMARK  status: ('A' for Active; 'I' for Inactive)
REMARK    1  A    between atoms: C_2  and  C_4
REMARK    2  A    between atoms: C_8  and  S_9
REMARK    3  A    between atoms: S_9  and  C_10
REMARK    4  A    between atoms: C_10  and  C_11
REMARK    5  A    between atoms: C_16  and  C_17
REMARK                            x       y       z     vdW  Elec       q    Type
REMARK                         _______ _______ _______ _____ _____    ______ ____
ROOT
ATOM      1  C   UNL     1      45.145   5.383  12.915  0.00  0.00    +0.000 A 
ATOM      2  C   UNL     1      45.725   4.541  13.870  0.00  0.00    +0.000 A 
ATOM      3  C   UNL     1      46.990   4.816  14.366  0.00  0.00    +0.000 A 
ATOM      4  F   UNL     1      47.517   4.016  15.302  0.00  0.00    +0.000 F 
ATOM      5  C   UNL     1      47.726   5.898  13.905  0.00  0.00    +0.000 A 
ATOM      6  C   UNL     1      47.220   6.735  12.896  0.00  0.00    +0.000 A 
ATOM      7  C   UNL     1      45.916   6.462  12.424  0.00  0.00    +0.000 A 
ENDROOT
BRANCH   6   8
ATOM      8  C   UNL     1      48.045   7.837  12.343  0.00  0.00    +0.000 A 
ATOM      9  C   UNL     1      47.555   9.152  12.219  0.00  0.00    +0.000 A 
ATOM     10  C   UNL     1      48.345  10.183  11.690  0.00  0.00    +0.000 A 
ATOM     11  C   UNL     1      49.651   9.924  11.286  0.00  0.00    +0.000 A 
ATOM     12  C   UNL     1      50.150   8.637  11.405  0.00  0.00    +0.000 A 
ATOM     13  F   UNL     1      51.407   8.377  11.021  0.00  0.00    +0.000 F 
ATOM     14  C   UNL     1      49.367   7.606  11.917  0.00  0.00    +0.000 A 
ENDBRANCH   6   8
BRANCH   1  15
ATOM     15  C   UNL     1      43.768   5.129  12.331  0.00  0.00    +0.000 C 
BRANCH  15  16
ATOM     16  S   UNL     1      43.614   5.537  10.550  0.00  0.00    +0.000 S 
BRANCH  16  21
ATOM     17  C   UNL     1      45.829   3.097   8.163  0.00  0.00    +0.000 A 
ATOM     18  C   UNL     1      45.483   1.822   8.627  0.00  0.00    +0.000 A 
ATOM     19  C   UNL     1      44.573   1.689   9.677  0.00  0.00    +0.000 A 
ATOM     20  C   UNL     1      44.015   2.826  10.266  0.00  0.00    +0.000 A 
ATOM     21  C   UNL     1      44.369   4.103   9.818  0.00  0.00    +0.000 A 
ATOM     22  C   UNL     1      45.271   4.232   8.760  0.00  0.00    +0.000 A 
BRANCH  17  24
ATOM     23  N   UNL     1      47.846   2.432   6.970  0.00  0.00    +0.000 N 
ATOM     24  C   UNL     1      46.801   3.306   7.064  0.00  0.00    +0.000 C 
ATOM     25  O   UNL     1      46.657   4.208   6.248  0.00  0.00    +0.000 OA
ATOM     26  H   UNL     1      48.429   2.525   6.148  0.00  0.00    +0.000 HD
ATOM     27  H   UNL     1      47.853   1.544   7.452  0.00  0.00    +0.000 HD
ENDBRANCH  17  24
ENDBRANCH  16  21
ENDBRANCH  15  16
ENDBRANCH   1  15
TORSDOF 5
ENDMDL
MODEL 9
REMARK VINA RESULT:    -7.126      5.087      7.914
REMARK INTER + INTRA:         -10.091
REMARK INTER:                  -9.240
REMARK INTRA:                  -0.851
REMARK UNBOUND:                -0.882
REMARK  Name = 
REMARK  5 active torsions:
REMARK  status: ('A' for Active; 'I' for Inactive)
REMARK    1  A    between atoms: C_2  and  C_4
REMARK    2  A    between atoms: C_8  and  S_9
REMARK    3  A    between atoms: S_9  and  C_10
REMARK    4  A    between atoms: C_10  and  C_11
REMARK    5  A    between atoms: C_16  and  C_17
REMARK                            x       y       z     vdW  Elec       q    Type
REMARK                         _______ _______ _______ _____ _____    ______ ____
ROOT
ATOM      1  C   UNL     1      45.371   6.613  11.298  0.00  0.00    +0.000 A 
ATOM      2  C   UNL     1      44.015   6.560  11.638  0.00  0.00    +0.000 A 
ATOM      3  C   UNL     1      43.212   5.541  11.148  0.00  0.00    +0.000 A 
ATOM      4  F   UNL     1      41.923   5.490  11.509  0.00  0.00    +0.000 F 
ATOM      5  C   UNL     1      43.715   4.579  10.284  0.00  0.00    +0.000 A 
ATOM      6  C   UNL     1      45.052   4.625   9.855  0.00  0.00    +0.000 A 
ATOM      7  C   UNL     1      45.866   5.650  10.388  0.00  0.00    +0.000 A 
ENDROOT
BRANCH   6   8
ATOM      8  C   UNL     1      45.563   3.647   8.863  0.00  0.00    +0.000 A 
ATOM      9  C   UNL     1      45.591   2.262   9.120  0.00  0.00    +0.000 A 
ATOM     10  C   UNL     1      46.081   1.350   8.174  0.00  0.00    +0.000 A 
ATOM     11  C   UNL     1      46.540   1.803   6.941  0.00  0.00    +0.000 A 
ATOM     12  C   UNL     1      46.515   3.161   6.670  0.00  0.00    +0.000 A 
ATOM     13  F   UNL     1      46.953   3.608   5.485  0.00  0.00    +0.000 F 
ATOM     14  C   UNL     1      46.043   4.074   7.610  0.00  0.00    +0.000 A 
ENDBRANCH   6   8
BRANCH   1  15
ATOM     15  C   UNL     1      46.296   7.708  11.795  0.00  0.00    +0.000 C 
BRANCH  15  16
ATOM     16  S   UNL     1      45.511   8.896  12.950  0.00  0.00    +0.000 S 
BRANCH  16  21
ATOM     17  C   UNL     1      43.225  11.220  10.516  0.00  0.00    +0.000 A 
ATOM     18  C   UNL     1      44.165  12.092   9.957  0.00  0.00    +0.000 A 
ATOM     19  C   UNL     1      45.510  11.986  10.318  0.00  0.00    +0.000 A 
ATOM     20  C   UNL     1      45.912  11.016  11.239  0.00  0.00    +0.000 A 
ATOM     21  C   UNL     1      44.974  10.153  11.813  0.00  0.00    +0.000 A 
ATOM     22  C   UNL     1      43.633  10.253  11.442  0.00  0.00    +0.000 A 
BRANCH  17  24
ATOM     23  N   UNL     1      41.318  12.445   9.624  0.00  0.00    +0.000 N 
ATOM     24  C   UNL     1      41.781  11.291  10.187  0.00  0.00    +0.000 C 
ATOM     25  O   UNL     1      41.035  10.338  10.381  0.00  0.00    +0.000 OA
ATOM     26  H   UNL     1      40.358  12.428   9.304  0.00  0.00    +0.000 HD
ATOM     27  H   UNL     1      41.935  13.134   9.218  0.00  0.00    +0.000 HD
ENDBRANCH  17  24
ENDBRANCH  16  21
ENDBRANCH  15  16
ENDBRANCH   1  15
TORSDOF 5
ENDMDL
