MODEL 1
REMARK VINA RESULT:    -8.009      0.000      0.000
REMARK INTER + INTRA:         -12.809
REMARK INTER:                 -11.989
REMARK INTRA:                  -0.820
REMARK UNBOUND:                -0.820
REMARK  Name = 
REMARK  9 active torsions:
REMARK  status: ('A' for Active; 'I' for Inactive)
REMARK    1  A    between atoms: C_2  and  C_13
REMARK    2  A    between atoms: N_3  and  CA_4
REMARK    3  A    between atoms: CA_4  and  C_5
REMARK    4  A    between atoms: CA_4  and  C_7
REMARK    5  A    between atoms: C_5  and  O_6
REMARK    6  A    between atoms: C_16  and  C_17
REMARK    7  A    between atoms: C_17  and  N_18
REMARK    8  A    between atoms: N_18  and  C_19
REMARK    9  A    between atoms: C_19  and  C_20
REMARK                            x       y       z     vdW  Elec       q    Type
REMARK                         _______ _______ _______ _____ _____    ______ ____
ROOT
ATOM      1  C   UNL     1      46.854   4.420  13.900  0.00  0.00    +0.000 A 
ATOM      2  C   UNL     1      47.043   5.730  13.446  0.00  0.00    +0.000 A 
ATOM      3  C   UNL     1      46.418   6.165  12.270  0.00  0.00    +0.000 A 
ATOM      4  C   UNL     1      45.590   5.297  11.544  0.00  0.00    +0.000 A 
ATOM      5  C   UNL     1      45.421   3.981  11.996  0.00  0.00    +0.000 A 
ATOM      6  C   UNL     1      46.046   3.545  13.168  0.00  0.00    +0.000 A 
ENDROOT
BRANCH   1   8
ATOM      7  O   UNL     1      47.769   2.839  15.385  0.00  0.00    +0.000 OA
ATOM      8  C   UNL     1      47.473   4.011  15.193  0.00  0.00    +0.000 C 
ATOM      9  N   UNL     1      47.649   5.006  16.127  0.00  0.00    +0.000 N 
ATOM     10  H   UNL     1      47.198   5.900  16.010  0.00  0.00    +0.000 HD
BRANCH   9  11
ATOM     11  CA  UNL     1      48.170   4.693  17.451  0.00  0.00    +0.000 C 
BRANCH  11  12
ATOM     12  C   UNL     1      49.690   4.618  17.433  0.00  0.00    +0.000 A 
ATOM     13  C   UNL     1      50.332   3.395  17.692  0.00  0.00    +0.000 A 
ATOM     14  C   UNL     1      51.726   3.320  17.767  0.00  0.00    +0.000 A 
ATOM     15  C   UNL     1      52.499   4.462  17.573  0.00  0.00    +0.000 A 
ATOM     16  C   UNL     1      51.881   5.672  17.269  0.00  0.00    +0.000 A 
ATOM     17  C   UNL     1      50.489   5.747  17.190  0.00  0.00    +0.000 A 
ENDBRANCH  11  12
BRANCH  11  18
ATOM     18  C   UNL     1      47.611   5.656  18.530  0.00  0.00    +0.000 C 
BRANCH  18  19
ATOM     19  O   UNL     1      46.234   5.413  18.836  0.00  0.00    +0.000 OA
ATOM     20  H   UNL     1      46.157   4.475  19.081  0.00  0.00    +0.000 HD
ENDBRANCH  18  19
ENDBRANCH  11  18
ENDBRANCH   9  11
ENDBRANCH   1   8
BRANCH   4  21
ATOM     21  C   UNL     1      44.817   5.791  10.341  0.00  0.00    +0.000 C 
BRANCH  21  22
ATOM     22  N   UNL     1      45.417   5.354   9.080  0.00  0.00    +0.000 NA
ATOM     23  H   UNL     1      46.397   5.126   9.247  0.00  0.00    +0.000 HD
BRANCH  22  24
ATOM     24  C   UNL     1      44.721   4.174   8.564  0.00  0.00    +0.000 C 
BRANCH  24  25
ATOM     25  C   UNL     1      45.681   3.141   8.068  0.00  0.00    +0.000 A 
ATOM     26  C   UNL     1      46.689   3.435   7.170  0.00  0.00    +0.000 A 
ATOM     27  N   UNL     1      47.575   2.530   6.709  0.00  0.00    +0.000 NA
ATOM     28  C   UNL     1      47.433   1.283   7.188  0.00  0.00    +0.000 A 
ATOM     29  N   UNL     1      46.508   0.877   8.070  0.00  0.00    +0.000 NA
ATOM     30  C   UNL     1      45.648   1.826   8.492  0.00  0.00    +0.000 A 
ENDBRANCH  24  25
ENDBRANCH  22  24
ENDBRANCH  21  22
ENDBRANCH   4  21
TORSDOF 9
ENDMDL
MODEL 2
REMARK VINA RESULT:    -7.927      1.686      2.118
REMARK INTER + INTRA:         -12.687
REMARK INTER:                 -11.577
REMARK INTRA:                  -1.110
REMARK UNBOUND:                -0.820
REMARK  Name = 
REMARK  9 active torsions:
REMARK  status: ('A' for Active; 'I' for Inactive)
REMARK    1  A    between atoms: C_2  and  C_13
REMARK    2  A    between atoms: N_3  and  CA_4
REMARK    3  A    between atoms: CA_4  and  C_5
REMARK    4  A    between atoms: CA_4  and  C_7
REMARK    5  A    between atoms: C_5  and  O_6
REMARK    6  A    between atoms: C_16  and  C_17
REMARK    7  A    between atoms: C_17  and  N_18
REMARK    8  A    between atoms: N_18  and  C_19
REMARK    9  A    between atoms: C_19  and  C_20
REMARK                            x       y       z     vdW  Elec       q    Type
REMARK                         _______ _______ _______ _____ _____    ______ ____
ROOT
ATOM      1  C   UNL     1      46.412   4.231  13.464  0.00  0.00    +0.000 A 
ATOM      2  C   UNL     1      46.280   5.532  12.967  0.00  0.00    +0.000 A 
ATOM      3  C   UNL     1      45.454   5.784  11.864  0.00  0.00    +0.000 A 
ATOM      4  C   UNL     1      44.744   4.740  11.256  0.00  0.00    +0.000 A 
ATOM      5  C   UNL     1      44.896   3.436  11.749  0.00  0.00    +0.000 A 
ATOM      6  C   UNL     1      45.722   3.182  12.848  0.00  0.00    +0.000 A 
ENDROOT
BRANCH   1   8
ATOM      7  O   UNL     1      47.743   2.910  14.888  0.00  0.00    +0.000 OA
ATOM      8  C   UNL     1      47.240   4.008  14.684  0.00  0.00    +0.000 C 
ATOM      9  N   UNL     1      47.363   5.076  15.541  0.00  0.00    +0.000 N 
ATOM     10  H   UNL     1      46.761   5.880  15.444  0.00  0.00    +0.000 HD
BRANCH   9  11
ATOM     11  CA  UNL     1      48.083   4.934  16.800  0.00  0.00    +0.000 C 
BRANCH  11  12
ATOM     12  C   UNL     1      48.851   6.205  17.133  0.00  0.00    +0.000 A 
ATOM     13  C   UNL     1      49.146   6.512  18.472  0.00  0.00    +0.000 A 
ATOM     14  C   UNL     1      49.773   7.714  18.810  0.00  0.00    +0.000 A 
ATOM     15  C   UNL     1      50.126   8.622  17.815  0.00  0.00    +0.000 A 
ATOM     16  C   UNL     1      49.884   8.313  16.479  0.00  0.00    +0.000 A 
ATOM     17  C   UNL     1      49.261   7.110  16.140  0.00  0.00    +0.000 A 
ENDBRANCH  11  12
BRANCH  11  18
ATOM     18  C   UNL     1      47.152   4.457  17.944  0.00  0.00    +0.000 C 
BRANCH  18  19
ATOM     19  O   UNL     1      46.594   3.159  17.706  0.00  0.00    +0.000 OA
ATOM     20  H   UNL     1      46.781   2.621  18.494  0.00  0.00    +0.000 HD
ENDBRANCH  18  19
ENDBRANCH  11  18
ENDBRANCH   9  11
ENDBRANCH   1   8
BRANCH   4  21
ATOM     21  C   UNL     1      43.759   5.018  10.143  0.00  0.00    +0.000 C 
BRANCH  21  22
ATOM     22  N   UNL     1      43.962   4.140   8.991  0.00  0.00    +0.000 NA
ATOM     23  H   UNL     1      43.199   4.286   8.331  0.00  0.00    +0.000 HD
BRANCH  22  24
ATOM     24  C   UNL     1      45.238   4.439   8.338  0.00  0.00    +0.000 C 
BRANCH  24  25
ATOM     25  C   UNL     1      45.979   3.192   7.978  0.00  0.00    +0.000 A 
ATOM     26  C   UNL     1      45.629   1.951   8.476  0.00  0.00    +0.000 A 
ATOM     27  N   UNL     1      46.271   0.807   8.166  0.00  0.00    +0.000 NA
ATOM     28  C   UNL     1      47.299   0.931   7.311  0.00  0.00    +0.000 A 
ATOM     29  N   UNL     1      47.725   2.072   6.750  0.00  0.00    +0.000 NA
ATOM     30  C   UNL     1      47.046   3.183   7.100  0.00  0.00    +0.000 A 
ENDBRANCH  24  25
ENDBRANCH  22  24
ENDBRANCH  21  22
ENDBRANCH   4  21
TORSDOF 9
ENDMDL
MODEL 3
REMARK VINA RESULT:    -7.749      1.792      2.669
REMARK INTER + INTRA:         -12.420
REMARK INTER:                 -11.609
REMARK INTRA:                  -0.811
REMARK UNBOUND:                -0.820
REMARK  Name = 
REMARK  9 active torsions:
REMARK  status: ('A' for Active; 'I' for Inactive)
REMARK    1  A    between atoms: C_2  and  C_13
REMARK    2  A    between atoms: N_3  and  CA_4
REMARK    3  A    between atoms: CA_4  and  C_5
REMARK    4  A    between atoms: CA_4  and  C_7
REMARK    5  A    between atoms: C_5  and  O_6
REMARK    6  A    between atoms: C_16  and  C_17
REMARK    7  A    between atoms: C_17  and  N_18
REMARK    8  A    between atoms: N_18  and  C_19
REMARK    9  A    between atoms: C_19  and  C_20
REMARK                            x       y       z     vdW  Elec       q    Type
REMARK                         _______ _______ _______ _____ _____    ______ ____
ROOT
ATOM      1  C   UNL     1      46.370   5.159  13.611  0.00  0.00    +0.000 A 
ATOM      2  C   UNL     1      45.965   3.907  13.136  0.00  0.00    +0.000 A 
ATOM      3  C   UNL     1      45.032   3.817  12.095  0.00  0.00    +0.000 A 
ATOM      4  C   UNL     1      44.505   4.978  11.512  0.00  0.00    +0.000 A 
ATOM      5  C   UNL     1      44.903   6.228  12.006  0.00  0.00    +0.000 A 
ATOM      6  C   UNL     1      45.832   6.320  13.047  0.00  0.00    +0.000 A 
ENDROOT
BRANCH   1   8
ATOM      7  O   UNL     1      48.496   5.752  14.430  0.00  0.00    +0.000 OA
ATOM      8  C   UNL     1      47.419   5.222  14.669  0.00  0.00    +0.000 C 
ATOM      9  N   UNL     1      47.107   4.635  15.873  0.00  0.00    +0.000 N 
ATOM     10  H   UNL     1      46.304   4.029  15.952  0.00  0.00    +0.000 HD
BRANCH   9  11
ATOM     11  CA  UNL     1      48.094   4.572  16.942  0.00  0.00    +0.000 C 
BRANCH  11  12
ATOM     12  C   UNL     1      48.031   5.817  17.815  0.00  0.00    +0.000 A 
ATOM     13  C   UNL     1      48.838   6.926  17.511  0.00  0.00    +0.000 A 
ATOM     14  C   UNL     1      48.861   8.046  18.346  0.00  0.00    +0.000 A 
ATOM     15  C   UNL     1      48.069   8.080  19.491  0.00  0.00    +0.000 A 
ATOM     16  C   UNL     1      47.228   7.009  19.783  0.00  0.00    +0.000 A 
ATOM     17  C   UNL     1      47.202   5.892  18.947  0.00  0.00    +0.000 A 
ENDBRANCH  11  12
BRANCH  11  18
ATOM     18  C   UNL     1      47.989   3.249  17.744  0.00  0.00    +0.000 C 
BRANCH  18  19
ATOM     19  O   UNL     1      46.666   2.703  17.750  0.00  0.00    +0.000 OA
ATOM     20  H   UNL     1      46.676   1.925  17.166  0.00  0.00    +0.000 HD
ENDBRANCH  18  19
ENDBRANCH  11  18
ENDBRANCH   9  11
ENDBRANCH   1   8
BRANCH   4  21
ATOM     21  C   UNL     1      43.591   4.894  10.310  0.00  0.00    +0.000 C 
BRANCH  21  22
ATOM     22  N   UNL     1      43.956   3.799   9.411  0.00  0.00    +0.000 NA
ATOM     23  H   UNL     1      43.123   3.501   8.905  0.00  0.00    +0.000 HD
BRANCH  22  24
ATOM     24  C   UNL     1      44.977   4.239   8.458  0.00  0.00    +0.000 C 
BRANCH  24  25
ATOM     25  C   UNL     1      45.852   3.106   8.027  0.00  0.00    +0.000 A 
ATOM     26  C   UNL     1      46.933   3.282   7.184  0.00  0.00    +0.000 A 
ATOM     27  N   UNL     1      47.746   2.285   6.782  0.00  0.00    +0.000 NA
ATOM     28  C   UNL     1      47.451   1.067   7.265  0.00  0.00    +0.000 A 
ATOM     29  N   UNL     1      46.444   0.770   8.098  0.00  0.00    +0.000 NA
ATOM     30  C   UNL     1      45.663   1.808   8.462  0.00  0.00    +0.000 A 
ENDBRANCH  24  25
ENDBRANCH  22  24
ENDBRANCH  21  22
ENDBRANCH   4  21
TORSDOF 9
ENDMDL
MODEL 4
REMARK VINA RESULT:    -7.604      2.927      8.820
REMARK INTER + INTRA:         -12.203
REMARK INTER:                 -11.172
REMARK INTRA:                  -1.030
REMARK UNBOUND:                -0.820
REMARK  Name = 
REMARK  9 active torsions:
REMARK  status: ('A' for Active; 'I' for Inactive)
REMARK    1  A    between atoms: C_2  and  C_13
REMARK    2  A    between atoms: N_3  and  CA_4
REMARK    3  A    between atoms: CA_4  and  C_5
REMARK    4  A    between atoms: CA_4  and  C_7
REMARK    5  A    between atoms: C_5  and  O_6
REMARK    6  A    between atoms: C_16  and  C_17
REMARK    7  A    between atoms: C_17  and  N_18
REMARK    8  A    between atoms: N_18  and  C_19
REMARK    9  A    between atoms: C_19  and  C_20
REMARK                            x       y       z     vdW  Elec       q    Type
REMARK                         _______ _______ _______ _____ _____    ______ ____
ROOT
ATOM      1  C   UNL     1      45.664   6.679  11.881  0.00  0.00    +0.000 A 
ATOM      2  C   UNL     1      46.788   6.138  12.516  0.00  0.00    +0.000 A 
ATOM      3  C   UNL     1      47.599   6.948  13.322  0.00  0.00    +0.000 A 
ATOM      4  C   UNL     1      47.288   8.301  13.510  0.00  0.00    +0.000 A 
ATOM      5  C   UNL     1      46.170   8.839  12.855  0.00  0.00    +0.000 A 
ATOM      6  C   UNL     1      45.361   8.034  12.049  0.00  0.00    +0.000 A 
ENDROOT
BRANCH   1   8
ATOM      7  O   UNL     1      43.578   5.997  11.031  0.00  0.00    +0.000 OA
ATOM      8  C   UNL     1      44.781   5.775  11.091  0.00  0.00    +0.000 C 
ATOM      9  N   UNL     1      45.391   4.701  10.486  0.00  0.00    +0.000 N 
ATOM     10  H   UNL     1      46.332   4.440  10.739  0.00  0.00    +0.000 HD
BRANCH   9  11
ATOM     11  CA  UNL     1      44.601   3.715   9.759  0.00  0.00    +0.000 C 
BRANCH  11  12
ATOM     12  C   UNL     1      45.415   3.085   8.638  0.00  0.00    +0.000 A 
ATOM     13  C   UNL     1      45.734   1.719   8.690  0.00  0.00    +0.000 A 
ATOM     14  C   UNL     1      46.553   1.137   7.718  0.00  0.00    +0.000 A 
ATOM     15  C   UNL     1      47.054   1.909   6.673  0.00  0.00    +0.000 A 
ATOM     16  C   UNL     1      46.710   3.255   6.581  0.00  0.00    +0.000 A 
ATOM     17  C   UNL     1      45.889   3.836   7.550  0.00  0.00    +0.000 A 
ENDBRANCH  11  12
BRANCH  11  18
ATOM     18  C   UNL     1      43.959   2.677  10.715  0.00  0.00    +0.000 C 
BRANCH  18  19
ATOM     19  O   UNL     1      42.767   3.160  11.345  0.00  0.00    +0.000 OA
ATOM     20  H   UNL     1      42.811   4.131  11.331  0.00  0.00    +0.000 HD
ENDBRANCH  18  19
ENDBRANCH  11  18
ENDBRANCH   9  11
ENDBRANCH   1   8
BRANCH   4  21
ATOM     21  C   UNL     1      48.086   9.154  14.471  0.00  0.00    +0.000 C 
BRANCH  21  22
ATOM     22  N   UNL     1      47.647   8.984  15.857  0.00  0.00    +0.000 NA
ATOM     23  H   UNL     1      46.997   8.199  15.899  0.00  0.00    +0.000 HD
BRANCH  22  24
ATOM     24  C   UNL     1      48.794   8.716  16.727  0.00  0.00    +0.000 C 
BRANCH  24  25
ATOM     25  C   UNL     1      48.867   7.274  17.115  0.00  0.00    +0.000 A 
ATOM     26  C   UNL     1      48.163   6.757  18.186  0.00  0.00    +0.000 A 
ATOM     27  N   UNL     1      48.200   5.462  18.558  0.00  0.00    +0.000 NA
ATOM     28  C   UNL     1      48.975   4.665  17.805  0.00  0.00    +0.000 A 
ATOM     29  N   UNL     1      49.692   5.042  16.737  0.00  0.00    +0.000 NA
ATOM     30  C   UNL     1      49.618   6.349  16.415  0.00  0.00    +0.000 A 
ENDBRANCH  24  25
ENDBRANCH  22  24
ENDBRANCH  21  22
ENDBRANCH   4  21
TORSDOF 9
ENDMDL
MODEL 5
REMARK VINA RESULT:    -7.514      2.061      3.155
REMARK INTER + INTRA:         -12.067
REMARK INTER:                 -11.029
REMARK INTRA:                  -1.038
REMARK UNBOUND:                -0.820
REMARK  Name = 
REMARK  9 active torsions:
REMARK  status: ('A' for Active; 'I' for Inactive)
REMARK    1  A    between atoms: C_2  and  C_13
REMARK    2  A    between atoms: N_3  and  CA_4
REMARK    3  A    between atoms: CA_4  and  C_5
REMARK    4  A    between atoms: CA_4  and  C_7
REMARK    5  A    between atoms: C_5  and  O_6
REMARK    6  A    between atoms: C_16  and  C_17
REMARK    7  A    between atoms: C_17  and  N_18
REMARK    8  A    between atoms: N_18  and  C_19
REMARK    9  A    between atoms: C_19  and  C_20
REMARK                            x       y       z     vdW  Elec       q    Type
REMARK                         _______ _______ _______ _____ _____    ______ ____
ROOT
ATOM      1  C   UNL     1      46.928   5.763  13.189  0.00  0.00    +0.000 A 
ATOM      2  C   UNL     1      46.863   6.366  11.927  0.00  0.00    +0.000 A 
ATOM      3  C   UNL     1      45.811   6.060  11.055  0.00  0.00    +0.000 A 
ATOM      4  C   UNL     1      44.808   5.159  11.439  0.00  0.00    +0.000 A 
ATOM      5  C   UNL     1      44.891   4.546  12.697  0.00  0.00    +0.000 A 
ATOM      6  C   UNL     1      45.942   4.847  13.569  0.00  0.00    +0.000 A 
ENDROOT
BRANCH   1   8
ATOM      7  O   UNL     1      49.073   6.600  13.678  0.00  0.00    +0.000 OA
ATOM      8  C   UNL     1      48.019   6.164  14.122  0.00  0.00    +0.000 C 
ATOM      9  N   UNL     1      47.770   5.986  15.463  0.00  0.00    +0.000 N 
ATOM     10  H   UNL     1      46.985   5.430  15.767  0.00  0.00    +0.000 HD
BRANCH   9  11
ATOM     11  CA  UNL     1      48.803   6.273  16.450  0.00  0.00    +0.000 C 
BRANCH  11  12
ATOM     12  C   UNL     1      48.466   7.528  17.242  0.00  0.00    +0.000 A 
ATOM     13  C   UNL     1      48.110   7.425  18.597  0.00  0.00    +0.000 A 
ATOM     14  C   UNL     1      47.713   8.552  19.321  0.00  0.00    +0.000 A 
ATOM     15  C   UNL     1      47.677   9.801  18.706  0.00  0.00    +0.000 A 
ATOM     16  C   UNL     1      48.070   9.929  17.376  0.00  0.00    +0.000 A 
ATOM     17  C   UNL     1      48.471   8.803  16.654  0.00  0.00    +0.000 A 
ENDBRANCH  11  12
BRANCH  11  18
ATOM     18  C   UNL     1      49.101   5.040  17.344  0.00  0.00    +0.000 C 
BRANCH  18  19
ATOM     19  O   UNL     1      49.293   3.838  16.590  0.00  0.00    +0.000 OA
ATOM     20  H   UNL     1      49.725   4.091  15.756  0.00  0.00    +0.000 HD
ENDBRANCH  18  19
ENDBRANCH  11  18
ENDBRANCH   9  11
ENDBRANCH   1   8
BRANCH   4  21
ATOM     21  C   UNL     1      43.606   4.914  10.554  0.00  0.00    +0.000 C 
BRANCH  21  22
ATOM     22  N   UNL     1      43.982   4.367   9.250  0.00  0.00    +0.000 NA
ATOM     23  H   UNL     1      44.779   4.893   8.893  0.00  0.00    +0.000 HD
BRANCH  22  24
ATOM     24  C   UNL     1      44.343   2.954   9.372  0.00  0.00    +0.000 C 
BRANCH  24  25
ATOM     25  C   UNL     1      45.492   2.599   8.484  0.00  0.00    +0.000 A 
ATOM     26  C   UNL     1      45.951   1.303   8.345  0.00  0.00    +0.000 A 
ATOM     27  N   UNL     1      46.978   0.949   7.548  0.00  0.00    +0.000 NA
ATOM     28  C   UNL     1      47.551   1.951   6.861  0.00  0.00    +0.000 A 
ATOM     29  N   UNL     1      47.190   3.241   6.898  0.00  0.00    +0.000 NA
ATOM     30  C   UNL     1      46.158   3.535   7.716  0.00  0.00    +0.000 A 
ENDBRANCH  24  25
ENDBRANCH  22  24
ENDBRANCH  21  22
ENDBRANCH   4  21
TORSDOF 9
ENDMDL
MODEL 6
REMARK VINA RESULT:    -7.349      2.706      8.515
REMARK INTER + INTRA:         -11.820
REMARK INTER:                 -10.741
REMARK INTRA:                  -1.079
REMARK UNBOUND:                -0.820
REMARK  Name = 
REMARK  9 active torsions:
REMARK  status: ('A' for Active; 'I' for Inactive)
REMARK    1  A    between atoms: C_2  and  C_13
REMARK    2  A    between atoms: N_3  and  CA_4
REMARK    3  A    between atoms: CA_4  and  C_5
REMARK    4  A    between atoms: CA_4  and  C_7
REMARK    5  A    between atoms: C_5  and  O_6
REMARK    6  A    between atoms: C_16  and  C_17
REMARK    7  A    between atoms: C_17  and  N_18
REMARK    8  A    between atoms: N_18  and  C_19
REMARK    9  A    between atoms: C_19  and  C_20
REMARK                            x       y       z     vdW  Elec       q    Type
REMARK                         _______ _______ _______ _____ _____    ______ ____
ROOT
ATOM      1  C   UNL     1      46.554   6.512  12.602  0.00  0.00    +0.000 A 
ATOM      2  C   UNL     1      47.272   5.579  13.358  0.00  0.00    +0.000 A 
ATOM      3  C   UNL     1      48.093   6.007  14.409  0.00  0.00    +0.000 A 
ATOM      4  C   UNL     1      48.196   7.370  14.720  0.00  0.00    +0.000 A 
ATOM      5  C   UNL     1      47.488   8.299  13.945  0.00  0.00    +0.000 A 
ATOM      6  C   UNL     1      46.669   7.875  12.895  0.00  0.00    +0.000 A 
ENDROOT
BRANCH   1   8
ATOM      7  O   UNL     1      45.028   6.819  10.836  0.00  0.00    +0.000 OA
ATOM      8  C   UNL     1      45.632   6.020  11.539  0.00  0.00    +0.000 C 
ATOM      9  N   UNL     1      45.495   4.655  11.435  0.00  0.00    +0.000 N 
ATOM     10  H   UNL     1      45.839   4.051  12.166  0.00  0.00    +0.000 HD
BRANCH   9  11
ATOM     11  CA  UNL     1      44.556   4.077  10.482  0.00  0.00    +0.000 C 
BRANCH  11  12
ATOM     12  C   UNL     1      45.291   3.454   9.304  0.00  0.00    +0.000 A 
ATOM     13  C   UNL     1      45.744   4.268   8.253  0.00  0.00    +0.000 A 
ATOM     14  C   UNL     1      46.344   3.709   7.121  0.00  0.00    +0.000 A 
ATOM     15  C   UNL     1      46.511   2.329   7.028  0.00  0.00    +0.000 A 
ATOM     16  C   UNL     1      46.109   1.511   8.081  0.00  0.00    +0.000 A 
ATOM     17  C   UNL     1      45.514   2.070   9.213  0.00  0.00    +0.000 A 
ENDBRANCH  11  12
BRANCH  11  18
ATOM     18  C   UNL     1      43.561   3.109  11.172  0.00  0.00    +0.000 C 
BRANCH  18  19
ATOM     19  O   UNL     1      44.028   2.637  12.440  0.00  0.00    +0.000 OA
ATOM     20  H   UNL     1      44.138   3.417  13.011  0.00  0.00    +0.000 HD
ENDBRANCH  18  19
ENDBRANCH  11  18
ENDBRANCH   9  11
ENDBRANCH   1   8
BRANCH   4  21
ATOM     21  C   UNL     1      48.984   7.832  15.926  0.00  0.00    +0.000 C 
BRANCH  21  22
ATOM     22  N   UNL     1      48.226   7.693  17.169  0.00  0.00    +0.000 NA
ATOM     23  H   UNL     1      47.286   7.368  16.943  0.00  0.00    +0.000 HD
BRANCH  22  24
ATOM     24  C   UNL     1      48.876   6.729  18.060  0.00  0.00    +0.000 C 
BRANCH  24  25
ATOM     25  C   UNL     1      48.527   5.321  17.697  0.00  0.00    +0.000 A 
ATOM     26  C   UNL     1      49.483   4.385  17.354  0.00  0.00    +0.000 A 
ATOM     27  N   UNL     1      49.204   3.107  17.029  0.00  0.00    +0.000 NA
ATOM     28  C   UNL     1      47.905   2.770  17.065  0.00  0.00    +0.000 A 
ATOM     29  N   UNL     1      46.888   3.580  17.395  0.00  0.00    +0.000 NA
ATOM     30  C   UNL     1      47.229   4.847  17.707  0.00  0.00    +0.000 A 
ENDBRANCH  24  25
ENDBRANCH  22  24
ENDBRANCH  21  22
ENDBRANCH   4  21
TORSDOF 9
ENDMDL
MODEL 7
REMARK VINA RESULT:    -7.335      2.718      8.901
REMARK INTER + INTRA:         -11.799
REMARK INTER:                 -10.955
REMARK INTRA:                  -0.844
REMARK UNBOUND:                -0.820
REMARK  Name = 
REMARK  9 active torsions:
REMARK  status: ('A' for Active; 'I' for Inactive)
REMARK    1  A    between atoms: C_2  and  C_13
REMARK    2  A    between atoms: N_3  and  CA_4
REMARK    3  A    between atoms: CA_4  and  C_5
REMARK    4  A    between atoms: CA_4  and  C_7
REMARK    5  A    between atoms: C_5  and  O_6
REMARK    6  A    between atoms: C_16  and  C_17
REMARK    7  A    between atoms: C_17  and  N_18
REMARK    8  A    between atoms: N_18  and  C_19
REMARK    9  A    between atoms: C_19  and  C_20
REMARK                            x       y       z     vdW  Elec       q    Type
REMARK                         _______ _______ _______ _____ _____    ______ ____
ROOT
ATOM      1  C   UNL     1      46.846   5.551  13.455  0.00  0.00    +0.000 A 
ATOM      2  C   UNL     1      46.822   4.552  14.435  0.00  0.00    +0.000 A 
ATOM      3  C   UNL     1      47.625   4.666  15.576  0.00  0.00    +0.000 A 
ATOM      4  C   UNL     1      48.451   5.785  15.755  0.00  0.00    +0.000 A 
ATOM      5  C   UNL     1      48.482   6.772  14.760  0.00  0.00    +0.000 A 
ATOM      6  C   UNL     1      47.683   6.659  13.619  0.00  0.00    +0.000 A 
ENDROOT
BRANCH   1   8
ATOM      7  O   UNL     1      45.678   6.423  11.607  0.00  0.00    +0.000 OA
ATOM      8  C   UNL     1      45.925   5.436  12.288  0.00  0.00    +0.000 C 
ATOM      9  N   UNL     1      45.375   4.196  12.065  0.00  0.00    +0.000 N 
ATOM     10  H   UNL     1      45.436   3.477  12.770  0.00  0.00    +0.000 HD
BRANCH   9  11
ATOM     11  CA  UNL     1      44.400   4.001  11.000  0.00  0.00    +0.000 C 
BRANCH  11  12
ATOM     12  C   UNL     1      45.078   3.521   9.724  0.00  0.00    +0.000 A 
ATOM     13  C   UNL     1      45.506   4.455   8.767  0.00  0.00    +0.000 A 
ATOM     14  C   UNL     1      46.051   4.036   7.550  0.00  0.00    +0.000 A 
ATOM     15  C   UNL     1      46.189   2.677   7.278  0.00  0.00    +0.000 A 
ATOM     16  C   UNL     1      45.812   1.738   8.235  0.00  0.00    +0.000 A 
ATOM     17  C   UNL     1      45.271   2.156   9.451  0.00  0.00    +0.000 A 
ENDBRANCH  11  12
BRANCH  11  18
ATOM     18  C   UNL     1      43.226   3.095  11.454  0.00  0.00    +0.000 C 
BRANCH  18  19
ATOM     19  O   UNL     1      43.582   2.215  12.527  0.00  0.00    +0.000 OA
ATOM     20  H   UNL     1      44.355   2.605  12.970  0.00  0.00    +0.000 HD
ENDBRANCH  18  19
ENDBRANCH  11  18
ENDBRANCH   9  11
ENDBRANCH   1   8
BRANCH   4  21
ATOM     21  C   UNL     1      49.230   5.976  17.037  0.00  0.00    +0.000 C 
BRANCH  21  22
ATOM     22  N   UNL     1      50.597   5.464  16.935  0.00  0.00    +0.000 NA
ATOM     23  H   UNL     1      51.217   6.238  16.700  0.00  0.00    +0.000 HD
BRANCH  22  24
ATOM     24  C   UNL     1      51.017   4.869  18.206  0.00  0.00    +0.000 C 
BRANCH  24  25
ATOM     25  C   UNL     1      51.434   3.444  18.035  0.00  0.00    +0.000 A 
ATOM     26  C   UNL     1      50.664   2.522  17.351  0.00  0.00    +0.000 A 
ATOM     27  N   UNL     1      51.013   1.233  17.172  0.00  0.00    +0.000 NA
ATOM     28  C   UNL     1      52.194   0.873  17.702  0.00  0.00    +0.000 A 
ATOM     29  N   UNL     1      53.034   1.674  18.373  0.00  0.00    +0.000 NA
ATOM     30  C   UNL     1      52.629   2.951  18.523  0.00  0.00    +0.000 A 
ENDBRANCH  24  25
ENDBRANCH  22  24
ENDBRANCH  21  22
ENDBRANCH   4  21
TORSDOF 9
ENDMDL
MODEL 8
REMARK VINA RESULT:    -7.120      3.831      4.958
REMARK INTER + INTRA:         -11.478
REMARK INTER:                 -10.295
REMARK INTRA:                  -1.183
REMARK UNBOUND:                -0.820
REMARK  Name = 
REMARK  9 active torsions:
REMARK  status: ('A' for Active; 'I' for Inactive)
REMARK    1  A    between atoms: C_2  and  C_13
REMARK    2  A    between atoms: N_3  and  CA_4
REMARK    3  A    between atoms: CA_4  and  C_5
REMARK    4  A    between atoms: CA_4  and  C_7
REMARK    5  A    between atoms: C_5  and  O_6
REMARK    6  A    between atoms: C_16  and  C_17
REMARK    7  A    between atoms: C_17  and  N_18
REMARK    8  A    between atoms: N_18  and  C_19
REMARK    9  A    between atoms: C_19  and  C_20
REMARK                            x       y       z     vdW  Elec       q    Type
REMARK                         _______ _______ _______ _____ _____    ______ ____
ROOT
ATOM      1  C   UNL     1      46.904   6.039  12.549  0.00  0.00    +0.000 A 
ATOM      2  C   UNL     1      46.481   4.909  13.257  0.00  0.00    +0.000 A 
ATOM      3  C   UNL     1      45.350   4.197  12.835  0.00  0.00    +0.000 A 
ATOM      4  C   UNL     1      44.640   4.602  11.696  0.00  0.00    +0.000 A 
ATOM      5  C   UNL     1      45.061   5.746  11.004  0.00  0.00    +0.000 A 
ATOM      6  C   UNL     1      46.187   6.459  11.424  0.00  0.00    +0.000 A 
ENDROOT
BRANCH   1   8
ATOM      7  O   UNL     1      48.846   6.245  13.864  0.00  0.00    +0.000 OA
ATOM      8  C   UNL     1      48.153   6.731  12.980  0.00  0.00    +0.000 C 
ATOM      9  N   UNL     1      48.437   7.922  12.354  0.00  0.00    +0.000 N 
ATOM     10  H   UNL     1      47.736   8.385  11.795  0.00  0.00    +0.000 HD
BRANCH   9  11
ATOM     11  CA  UNL     1      49.591   8.714  12.761  0.00  0.00    +0.000 C 
BRANCH  11  12
ATOM     12  C   UNL     1      50.577   8.868  11.612  0.00  0.00    +0.000 A 
ATOM     13  C   UNL     1      51.182   7.730  11.054  0.00  0.00    +0.000 A 
ATOM     14  C   UNL     1      52.155   7.852  10.058  0.00  0.00    +0.000 A 
ATOM     15  C   UNL     1      52.529   9.112   9.596  0.00  0.00    +0.000 A 
ATOM     16  C   UNL     1      51.905  10.248  10.106  0.00  0.00    +0.000 A 
ATOM     17  C   UNL     1      50.931  10.127  11.098  0.00  0.00    +0.000 A 
ENDBRANCH  11  12
BRANCH  11  18
ATOM     18  C   UNL     1      49.166  10.063  13.396  0.00  0.00    +0.000 C 
BRANCH  18  19
ATOM     19  O   UNL     1      47.754  10.294  13.326  0.00  0.00    +0.000 OA
ATOM     20  H   UNL     1      47.628  11.251  13.202  0.00  0.00    +0.000 HD
ENDBRANCH  18  19
ENDBRANCH  11  18
ENDBRANCH   9  11
ENDBRANCH   1   8
BRANCH   4  21
ATOM     21  C   UNL     1      43.493   3.773  11.164  0.00  0.00    +0.000 C 
BRANCH  21  22
ATOM     22  N   UNL     1      43.654   3.450   9.746  0.00  0.00    +0.000 NA
ATOM     23  H   UNL     1      44.084   4.246   9.277  0.00  0.00    +0.000 HD
BRANCH  22  24
ATOM     24  C   UNL     1      44.506   2.270   9.585  0.00  0.00    +0.000 C 
BRANCH  24  25
ATOM     25  C   UNL     1      45.533   2.473   8.517  0.00  0.00    +0.000 A 
ATOM     26  C   UNL     1      45.743   3.698   7.913  0.00  0.00    +0.000 A 
ATOM     27  N   UNL     1      46.664   3.918   6.954  0.00  0.00    +0.000 NA
ATOM     28  C   UNL     1      47.404   2.852   6.607  0.00  0.00    +0.000 A 
ATOM     29  N   UNL     1      47.307   1.621   7.126  0.00  0.00    +0.000 NA
ATOM     30  C   UNL     1      46.366   1.461   8.079  0.00  0.00    +0.000 A 
ENDBRANCH  24  25
ENDBRANCH  22  24
ENDBRANCH  21  22
ENDBRANCH   4  21
TORSDOF 9
ENDMDL
MODEL 9
REMARK VINA RESULT:    -7.065      3.207      8.462
REMARK INTER + INTRA:         -11.395
REMARK INTER:                 -10.250
REMARK INTRA:                  -1.145
REMARK UNBOUND:                -0.820
REMARK  Name = 
REMARK  9 active torsions:
REMARK  status: ('A' for Active; 'I' for Inactive)
REMARK    1  A    between atoms: C_2  and  C_13
REMARK    2  A    between atoms: N_3  and  CA_4
REMARK    3  A    between atoms: CA_4  and  C_5
REMARK    4  A    between atoms: CA_4  and  C_7
REMARK    5  A    between atoms: C_5  and  O_6
REMARK    6  A    between atoms: C_16  and  C_17
REMARK    7  A    between atoms: C_17  and  N_18
REMARK    8  A    between atoms: N_18  and  C_19
REMARK    9  A    between atoms: C_19  and  C_20
REMARK                            x       y       z     vdW  Elec       q    Type
REMARK                         _______ _______ _______ _____ _____    ______ ____
ROOT
ATOM      1  C   UNL     1      46.612   7.279  12.552  0.00  0.00    +0.000 A 
ATOM      2  C   UNL     1      47.768   6.499  12.668  0.00  0.00    +0.000 A 
ATOM      3  C   UNL     1      48.761   6.846  13.592  0.00  0.00    +0.000 A 
ATOM      4  C   UNL     1      48.603   7.967  14.418  0.00  0.00    +0.000 A 
ATOM      5  C   UNL     1      47.449   8.753  14.283  0.00  0.00    +0.000 A 
ATOM      6  C   UNL     1      46.458   8.411  13.359  0.00  0.00    +0.000 A 
ENDROOT
BRANCH   1   8
ATOM      7  O   UNL     1      44.757   7.664  11.155  0.00  0.00    +0.000 OA
ATOM      8  C   UNL     1      45.541   6.842  11.611  0.00  0.00    +0.000 C 
ATOM      9  N   UNL     1      45.486   5.497  11.333  0.00  0.00    +0.000 N 
ATOM     10  H   UNL     1      46.006   4.838  11.892  0.00  0.00    +0.000 HD
BRANCH   9  11
ATOM     11  CA  UNL     1      44.426   4.960  10.489  0.00  0.00    +0.000 C 
BRANCH  11  12
ATOM     12  C   UNL     1      44.987   3.981   9.467  0.00  0.00    +0.000 A 
ATOM     13  C   UNL     1      44.787   2.601   9.640  0.00  0.00    +0.000 A 
ATOM     14  C   UNL     1      45.366   1.679   8.763  0.00  0.00    +0.000 A 
ATOM     15  C   UNL     1      46.141   2.122   7.695  0.00  0.00    +0.000 A 
ATOM     16  C   UNL     1      46.311   3.487   7.483  0.00  0.00    +0.000 A 
ATOM     17  C   UNL     1      45.731   4.409   8.355  0.00  0.00    +0.000 A 
ENDBRANCH  11  12
BRANCH  11  18
ATOM     18  C   UNL     1      43.263   4.375  11.331  0.00  0.00    +0.000 C 
BRANCH  18  19
ATOM     19  O   UNL     1      42.323   5.370  11.753  0.00  0.00    +0.000 OA
ATOM     20  H   UNL     1      41.818   5.637  10.965  0.00  0.00    +0.000 HD
ENDBRANCH  18  19
ENDBRANCH  11  18
ENDBRANCH   9  11
ENDBRANCH   1   8
BRANCH   4  21
ATOM     21  C   UNL     1      49.611   8.281  15.501  0.00  0.00    +0.000 C 
BRANCH  21  22
ATOM     22  N   UNL     1      49.881   7.126  16.357  0.00  0.00    +0.000 NA
ATOM     23  H   UNL     1      50.731   7.307  16.890  0.00  0.00    +0.000 HD
BRANCH  22  24
ATOM     24  C   UNL     1      48.765   6.900  17.278  0.00  0.00    +0.000 C 
BRANCH  24  25
ATOM     25  C   UNL     1      48.367   5.459  17.318  0.00  0.00    +0.000 A 
ATOM     26  C   UNL     1      47.724   4.837  16.265  0.00  0.00    +0.000 A 
ATOM     27  N   UNL     1      47.358   3.540  16.265  0.00  0.00    +0.000 NA
ATOM     28  C   UNL     1      47.668   2.851  17.375  0.00  0.00    +0.000 A 
ATOM     29  N   UNL     1      48.300   3.334  18.453  0.00  0.00    +0.000 NA
ATOM     30  C   UNL     1      48.638   4.639  18.396  0.00  0.00    +0.000 A 
ENDBRANCH  24  25
ENDBRANCH  22  24
ENDBRANCH  21  22
ENDBRANCH   4  21
TORSDOF 9
ENDMDL
