MODEL 1
REMARK VINA RESULT:    -7.103      0.000      0.000
REMARK INTER + INTRA:         -10.941
REMARK INTER:                 -10.009
REMARK INTRA:                  -0.931
REMARK UNBOUND:                -0.931
REMARK  Name = 
REMARK  7 active torsions:
REMARK  status: ('A' for Active; 'I' for Inactive)
REMARK    1  A    between atoms: C_2  and  C_20
REMARK    2  A    between atoms: N_3  and  C_4
REMARK    3  A    between atoms: C_4  and  C_5
REMARK    4  A    between atoms: C_8  and  O_9
REMARK    5  A    between atoms: O_9  and  C_10
REMARK    6  A    between atoms: C_10  and  C_11
REMARK    7  A    between atoms: C_11  and  N_12
REMARK                            x       y       z     vdW  Elec       q    Type
REMARK                         _______ _______ _______ _____ _____    ______ ____
ROOT
ATOM      1  C   UNL     1      46.285   7.982  12.825  0.00  0.00    +0.000 C 
ENDROOT
BRANCH   1   2
ATOM      2  C   UNL     1      45.554   6.903  12.056  0.00  0.00    +0.000 A 
ATOM      3  C   UNL     1      46.136   6.329  10.928  0.00  0.00    +0.000 A 
ATOM      4  C   UNL     1      45.470   5.293  10.271  0.00  0.00    +0.000 A 
ATOM      5  C   UNL     1      44.262   4.817  10.777  0.00  0.00    +0.000 A 
ATOM      6  C   UNL     1      43.745   5.462  11.891  0.00  0.00    +0.000 A 
ATOM      7  N   UNL     1      44.364   6.477  12.546  0.00  0.00    +0.000 NA
BRANCH   5   8
ATOM      8  O   UNL     1      43.550   3.753  10.287  0.00  0.00    +0.000 OA
BRANCH   8   9
ATOM      9  C   UNL     1      44.357   2.632   9.909  0.00  0.00    +0.000 C 
BRANCH   9  10
ATOM     10  C   UNL     1      44.788   2.725   8.432  0.00  0.00    +0.000 C 
BRANCH  10  11
ATOM     11  N   UNL     1      46.244   2.641   8.239  0.00  0.00    +0.000 NA
ATOM     12  C   UNL     1      46.736   3.572   7.203  0.00  0.00    +0.000 C 
ATOM     13  C   UNL     1      46.716   2.999   5.778  0.00  0.00    +0.000 C 
ATOM     14  O   UNL     1      47.490   1.797   5.709  0.00  0.00    +0.000 OA
ATOM     15  C   UNL     1      46.927   0.807   6.572  0.00  0.00    +0.000 C 
ATOM     16  C   UNL     1      46.816   1.298   8.027  0.00  0.00    +0.000 C 
ENDBRANCH  10  11
ENDBRANCH   9  10
ENDBRANCH   8   9
ENDBRANCH   5   8
ENDBRANCH   1   2
BRANCH   1  19
ATOM     17  O   UNL     1      48.945   7.114  13.017  0.00  0.00    +0.000 OA
ATOM     18  C   UNL     1      48.209   6.985  13.987  0.00  0.00    +0.000 C 
ATOM     19  N   UNL     1      46.921   7.452  14.006  0.00  0.00    +0.000 N 
ATOM     20  H   UNL     1      46.332   7.295  14.815  0.00  0.00    +0.000 HD
BRANCH  18  21
ATOM     21  C   UNL     1      48.672   6.382  15.241  0.00  0.00    +0.000 A 
ATOM     22  C   UNL     1      49.773   6.895  15.908  0.00  0.00    +0.000 A 
ATOM     23  S   UNL     1      50.119   6.083  17.371  0.00  0.00    +0.000 S 
ATOM     24  C   UNL     1      48.837   4.990  17.133  0.00  0.00    +0.000 A 
ATOM     25  N   UNL     1      48.569   4.013  18.039  0.00  0.00    +0.000 NA
ATOM     26  C   UNL     1      47.591   3.233  17.711  0.00  0.00    +0.000 A 
ATOM     27  N   UNL     1      46.863   3.338  16.553  0.00  0.00    +0.000 N 
ATOM     28  C   UNL     1      47.091   4.314  15.614  0.00  0.00    +0.000 A 
ATOM     29  O   UNL     1      46.410   4.382  14.593  0.00  0.00    +0.000 OA
ATOM     30  C   UNL     1      48.162   5.232  15.949  0.00  0.00    +0.000 A 
ATOM     31  H   UNL     1      46.115   2.692  16.353  0.00  0.00    +0.000 HD
ENDBRANCH  18  21
ENDBRANCH   1  19
TORSDOF 7
ENDMDL
MODEL 2
REMARK VINA RESULT:    -6.982      2.751      7.953
REMARK INTER + INTRA:         -10.770
REMARK INTER:                  -9.344
REMARK INTRA:                  -1.427
REMARK UNBOUND:                -0.931
REMARK  Name = 
REMARK  7 active torsions:
REMARK  status: ('A' for Active; 'I' for Inactive)
REMARK    1  A    between atoms: C_2  and  C_20
REMARK    2  A    between atoms: N_3  and  C_4
REMARK    3  A    between atoms: C_4  and  C_5
REMARK    4  A    between atoms: C_8  and  O_9
REMARK    5  A    between atoms: O_9  and  C_10
REMARK    6  A    between atoms: C_10  and  C_11
REMARK    7  A    between atoms: C_11  and  N_12
REMARK                            x       y       z     vdW  Elec       q    Type
REMARK                         _______ _______ _______ _____ _____    ______ ____
ROOT
ATOM      1  C   UNL     1      47.830   7.885  12.182  0.00  0.00    +0.000 C 
ENDROOT
BRANCH   1   2
ATOM      2  C   UNL     1      48.370   7.908  13.595  0.00  0.00    +0.000 A 
ATOM      3  C   UNL     1      47.868   8.817  14.524  0.00  0.00    +0.000 A 
ATOM      4  C   UNL     1      48.339   8.778  15.838  0.00  0.00    +0.000 A 
ATOM      5  C   UNL     1      49.264   7.806  16.212  0.00  0.00    +0.000 A 
ATOM      6  C   UNL     1      49.727   6.956  15.217  0.00  0.00    +0.000 A 
ATOM      7  N   UNL     1      49.295   6.975  13.930  0.00  0.00    +0.000 NA
BRANCH   5   8
ATOM      8  O   UNL     1      49.741   7.598  17.481  0.00  0.00    +0.000 OA
BRANCH   8   9
ATOM      9  C   UNL     1      48.839   6.887  18.337  0.00  0.00    +0.000 C 
BRANCH   9  10
ATOM     10  C   UNL     1      49.295   5.430  18.544  0.00  0.00    +0.000 C 
BRANCH  10  11
ATOM     11  N   UNL     1      48.211   4.448  18.387  0.00  0.00    +0.000 NA
ATOM     12  C   UNL     1      48.711   3.066  18.233  0.00  0.00    +0.000 C 
ATOM     13  C   UNL     1      49.016   2.662  16.782  0.00  0.00    +0.000 C 
ATOM     14  O   UNL     1      47.851   2.814  15.965  0.00  0.00    +0.000 OA
ATOM     15  C   UNL     1      47.446   4.184  15.946  0.00  0.00    +0.000 C 
ATOM     16  C   UNL     1      47.189   4.734  17.361  0.00  0.00    +0.000 C 
ENDBRANCH  10  11
ENDBRANCH   9  10
ENDBRANCH   8   9
ENDBRANCH   5   8
ENDBRANCH   1   2
BRANCH   1  19
ATOM     17  O   UNL     1      45.031   7.718  12.181  0.00  0.00    +0.000 OA
ATOM     18  C   UNL     1      45.684   6.695  12.023  0.00  0.00    +0.000 C 
ATOM     19  N   UNL     1      47.052   6.697  11.933  0.00  0.00    +0.000 N 
ATOM     20  H   UNL     1      47.559   5.826  11.837  0.00  0.00    +0.000 HD
BRANCH  18  21
ATOM     21  C   UNL     1      45.050   5.384  11.845  0.00  0.00    +0.000 A 
ATOM     22  C   UNL     1      44.437   4.745  12.910  0.00  0.00    +0.000 A 
ATOM     23  S   UNL     1      43.718   3.254  12.485  0.00  0.00    +0.000 S 
ATOM     24  C   UNL     1      44.247   3.396  10.874  0.00  0.00    +0.000 A 
ATOM     25  N   UNL     1      43.959   2.438   9.953  0.00  0.00    +0.000 NA
ATOM     26  C   UNL     1      44.456   2.658   8.780  0.00  0.00    +0.000 A 
ATOM     27  N   UNL     1      45.221   3.746   8.446  0.00  0.00    +0.000 N 
ATOM     28  C   UNL     1      45.529   4.743   9.340  0.00  0.00    +0.000 A 
ATOM     29  O   UNL     1      46.210   5.709   9.001  0.00  0.00    +0.000 OA
ATOM     30  C   UNL     1      44.972   4.556  10.665  0.00  0.00    +0.000 A 
ATOM     31  H   UNL     1      45.585   3.856   7.512  0.00  0.00    +0.000 HD
ENDBRANCH  18  21
ENDBRANCH   1  19
TORSDOF 7
ENDMDL
MODEL 3
REMARK VINA RESULT:    -6.801      2.694      3.824
REMARK INTER + INTRA:         -10.516
REMARK INTER:                  -9.582
REMARK INTRA:                  -0.934
REMARK UNBOUND:                -0.931
REMARK  Name = 
REMARK  7 active torsions:
REMARK  status: ('A' for Active; 'I' for Inactive)
REMARK    1  A    between atoms: C_2  and  C_20
REMARK    2  A    between atoms: N_3  and  C_4
REMARK    3  A    between atoms: C_4  and  C_5
REMARK    4  A    between atoms: C_8  and  O_9
REMARK    5  A    between atoms: O_9  and  C_10
REMARK    6  A    between atoms: C_10  and  C_11
REMARK    7  A    between atoms: C_11  and  N_12
REMARK                            x       y       z     vdW  Elec       q    Type
REMARK                         _______ _______ _______ _____ _____    ______ ____
ROOT
ATOM      1  C   UNL     1      47.307   3.955  15.542  0.00  0.00    +0.000 C 
ENDROOT
BRANCH   1   2
ATOM      2  C   UNL     1      46.782   4.619  14.289  0.00  0.00    +0.000 A 
ATOM      3  C   UNL     1      47.303   5.842  13.872  0.00  0.00    +0.000 A 
ATOM      4  C   UNL     1      46.845   6.407  12.680  0.00  0.00    +0.000 A 
ATOM      5  C   UNL     1      45.914   5.721  11.903  0.00  0.00    +0.000 A 
ATOM      6  C   UNL     1      45.432   4.521  12.406  0.00  0.00    +0.000 A 
ATOM      7  N   UNL     1      45.850   3.951  13.565  0.00  0.00    +0.000 NA
BRANCH   5   8
ATOM      8  O   UNL     1      45.448   6.114  10.675  0.00  0.00    +0.000 OA
BRANCH   8   9
ATOM      9  C   UNL     1      45.074   5.031   9.816  0.00  0.00    +0.000 C 
BRANCH   9  10
ATOM     10  C   UNL     1      45.999   4.946   8.587  0.00  0.00    +0.000 C 
BRANCH  10  11
ATOM     11  N   UNL     1      45.576   3.939   7.602  0.00  0.00    +0.000 NA
ATOM     12  C   UNL     1      44.818   2.827   8.213  0.00  0.00    +0.000 C 
ATOM     13  C   UNL     1      45.691   1.671   8.723  0.00  0.00    +0.000 C 
ATOM     14  O   UNL     1      46.491   1.141   7.661  0.00  0.00    +0.000 OA
ATOM     15  C   UNL     1      47.372   2.151   7.166  0.00  0.00    +0.000 C 
ATOM     16  C   UNL     1      46.614   3.406   6.698  0.00  0.00    +0.000 C 
ENDBRANCH  10  11
ENDBRANCH   9  10
ENDBRANCH   8   9
ENDBRANCH   5   8
ENDBRANCH   1   2
BRANCH   1  19
ATOM     17  O   UNL     1      49.620   4.529  17.020  0.00  0.00    +0.000 OA
ATOM     18  C   UNL     1      48.564   5.053  17.348  0.00  0.00    +0.000 C 
ATOM     19  N   UNL     1      47.404   4.890  16.636  0.00  0.00    +0.000 N 
ATOM     20  H   UNL     1      46.542   5.312  16.958  0.00  0.00    +0.000 HD
BRANCH  18  21
ATOM     21  C   UNL     1      48.468   5.963  18.494  0.00  0.00    +0.000 A 
ATOM     22  C   UNL     1      48.316   5.467  19.779  0.00  0.00    +0.000 A 
ATOM     23  S   UNL     1      48.274   6.685  20.976  0.00  0.00    +0.000 S 
ATOM     24  C   UNL     1      48.408   7.916  19.808  0.00  0.00    +0.000 A 
ATOM     25  N   UNL     1      48.436   9.227  20.168  0.00  0.00    +0.000 NA
ATOM     26  C   UNL     1      48.503  10.052  19.175  0.00  0.00    +0.000 A 
ATOM     27  N   UNL     1      48.536   9.684  17.854  0.00  0.00    +0.000 N 
ATOM     28  C   UNL     1      48.519   8.373  17.443  0.00  0.00    +0.000 A 
ATOM     29  O   UNL     1      48.560   8.083  16.250  0.00  0.00    +0.000 OA
ATOM     30  C   UNL     1      48.471   7.407  18.523  0.00  0.00    +0.000 A 
ATOM     31  H   UNL     1      48.582  10.380  17.125  0.00  0.00    +0.000 HD
ENDBRANCH  18  21
ENDBRANCH   1  19
TORSDOF 7
ENDMDL
MODEL 4
REMARK VINA RESULT:    -6.753      2.683      3.395
REMARK INTER + INTRA:         -10.447
REMARK INTER:                  -9.643
REMARK INTRA:                  -0.804
REMARK UNBOUND:                -0.931
REMARK  Name = 
REMARK  7 active torsions:
REMARK  status: ('A' for Active; 'I' for Inactive)
REMARK    1  A    between atoms: C_2  and  C_20
REMARK    2  A    between atoms: N_3  and  C_4
REMARK    3  A    between atoms: C_4  and  C_5
REMARK    4  A    between atoms: C_8  and  O_9
REMARK    5  A    between atoms: O_9  and  C_10
REMARK    6  A    between atoms: C_10  and  C_11
REMARK    7  A    between atoms: C_11  and  N_12
REMARK                            x       y       z     vdW  Elec       q    Type
REMARK                         _______ _______ _______ _____ _____    ______ ____
ROOT
ATOM      1  C   UNL     1      47.355   4.212  15.232  0.00  0.00    +0.000 C 
ENDROOT
BRANCH   1   2
ATOM      2  C   UNL     1      46.524   4.700  14.066  0.00  0.00    +0.000 A 
ATOM      3  C   UNL     1      46.881   5.863  13.388  0.00  0.00    +0.000 A 
ATOM      4  C   UNL     1      46.134   6.261  12.277  0.00  0.00    +0.000 A 
ATOM      5  C   UNL     1      45.078   5.467  11.834  0.00  0.00    +0.000 A 
ATOM      6  C   UNL     1      44.778   4.338  12.583  0.00  0.00    +0.000 A 
ATOM      7  N   UNL     1      45.479   3.931  13.672  0.00  0.00    +0.000 NA
BRANCH   5   8
ATOM      8  O   UNL     1      44.322   5.689  10.712  0.00  0.00    +0.000 OA
BRANCH   8   9
ATOM      9  C   UNL     1      44.324   4.602   9.780  0.00  0.00    +0.000 C 
BRANCH   9  10
ATOM     10  C   UNL     1      45.598   4.610   8.913  0.00  0.00    +0.000 C 
BRANCH  10  11
ATOM     11  N   UNL     1      45.481   3.800   7.691  0.00  0.00    +0.000 NA
ATOM     12  C   UNL     1      44.972   2.438   7.956  0.00  0.00    +0.000 C 
ATOM     13  C   UNL     1      46.062   1.410   8.294  0.00  0.00    +0.000 C 
ATOM     14  O   UNL     1      47.024   1.333   7.237  0.00  0.00    +0.000 OA
ATOM     15  C   UNL     1      47.669   2.598   7.076  0.00  0.00    +0.000 C 
ATOM     16  C   UNL     1      46.666   3.735   6.813  0.00  0.00    +0.000 C 
ENDBRANCH  10  11
ENDBRANCH   9  10
ENDBRANCH   8   9
ENDBRANCH   5   8
ENDBRANCH   1   2
BRANCH   1  19
ATOM     17  O   UNL     1      49.636   5.127  16.583  0.00  0.00    +0.000 OA
ATOM     18  C   UNL     1      48.534   5.510  16.956  0.00  0.00    +0.000 C 
ATOM     19  N   UNL     1      47.375   5.175  16.306  0.00  0.00    +0.000 N 
ATOM     20  H   UNL     1      46.480   5.482  16.666  0.00  0.00    +0.000 HD
BRANCH  18  21
ATOM     21  C   UNL     1      48.370   6.422  18.092  0.00  0.00    +0.000 A 
ATOM     22  C   UNL     1      48.338   7.794  17.898  0.00  0.00    +0.000 A 
ATOM     23  S   UNL     1      48.090   8.679  19.339  0.00  0.00    +0.000 S 
ATOM     24  C   UNL     1      48.067   7.256  20.273  0.00  0.00    +0.000 A 
ATOM     25  N   UNL     1      47.885   7.302  21.620  0.00  0.00    +0.000 NA
ATOM     26  C   UNL     1      47.928   6.150  22.204  0.00  0.00    +0.000 A 
ATOM     27  N   UNL     1      48.145   4.957  21.565  0.00  0.00    +0.000 N 
ATOM     28  C   UNL     1      48.324   4.860  20.206  0.00  0.00    +0.000 A 
ATOM     29  O   UNL     1      48.507   3.770  19.667  0.00  0.00    +0.000 OA
ATOM     30  C   UNL     1      48.259   6.124  19.500  0.00  0.00    +0.000 A 
ATOM     31  H   UNL     1      48.173   4.091  22.082  0.00  0.00    +0.000 HD
ENDBRANCH  18  21
ENDBRANCH   1  19
TORSDOF 7
ENDMDL
MODEL 5
REMARK VINA RESULT:    -6.724      1.612      2.198
REMARK INTER + INTRA:         -10.407
REMARK INTER:                  -9.591
REMARK INTRA:                  -0.816
REMARK UNBOUND:                -0.931
REMARK  Name = 
REMARK  7 active torsions:
REMARK  status: ('A' for Active; 'I' for Inactive)
REMARK    1  A    between atoms: C_2  and  C_20
REMARK    2  A    between atoms: N_3  and  C_4
REMARK    3  A    between atoms: C_4  and  C_5
REMARK    4  A    between atoms: C_8  and  O_9
REMARK    5  A    between atoms: O_9  and  C_10
REMARK    6  A    between atoms: C_10  and  C_11
REMARK    7  A    between atoms: C_11  and  N_12
REMARK                            x       y       z     vdW  Elec       q    Type
REMARK                         _______ _______ _______ _____ _____    ______ ____
ROOT
ATOM      1  C   UNL     1      47.943   7.132  13.391  0.00  0.00    +0.000 C 
ENDROOT
BRANCH   1   2
ATOM      2  C   UNL     1      46.622   6.537  12.957  0.00  0.00    +0.000 A 
ATOM      3  C   UNL     1      45.954   7.047  11.845  0.00  0.00    +0.000 A 
ATOM      4  C   UNL     1      44.767   6.443  11.427  0.00  0.00    +0.000 A 
ATOM      5  C   UNL     1      44.294   5.315  12.093  0.00  0.00    +0.000 A 
ATOM      6  C   UNL     1      45.009   4.889  13.203  0.00  0.00    +0.000 A 
ATOM      7  N   UNL     1      46.160   5.461  13.639  0.00  0.00    +0.000 NA
BRANCH   5   8
ATOM      8  O   UNL     1      43.197   4.574  11.737  0.00  0.00    +0.000 OA
BRANCH   8   9
ATOM      9  C   UNL     1      43.444   3.166  11.649  0.00  0.00    +0.000 C 
BRANCH   9  10
ATOM     10  C   UNL     1      44.662   2.866  10.753  0.00  0.00    +0.000 C 
BRANCH  10  11
ATOM     11  N   UNL     1      44.331   2.785   9.321  0.00  0.00    +0.000 NA
ATOM     12  C   UNL     1      44.815   1.538   8.694  0.00  0.00    +0.000 C 
ATOM     13  C   UNL     1      46.251   1.619   8.153  0.00  0.00    +0.000 C 
ATOM     14  O   UNL     1      46.367   2.678   7.198  0.00  0.00    +0.000 OA
ATOM     15  C   UNL     1      46.079   3.929   7.824  0.00  0.00    +0.000 C 
ATOM     16  C   UNL     1      44.688   3.945   8.482  0.00  0.00    +0.000 C 
ENDBRANCH  10  11
ENDBRANCH   9  10
ENDBRANCH   8   9
ENDBRANCH   5   8
ENDBRANCH   1   2
BRANCH   1  19
ATOM     17  O   UNL     1      50.331   7.617  14.779  0.00  0.00    +0.000 OA
ATOM     18  C   UNL     1      49.363   7.195  15.398  0.00  0.00    +0.000 C 
ATOM     19  N   UNL     1      48.137   7.004  14.815  0.00  0.00    +0.000 N 
ATOM     20  H   UNL     1      47.369   6.620  15.352  0.00  0.00    +0.000 HD
BRANCH  18  21
ATOM     21  C   UNL     1      49.416   6.924  16.838  0.00  0.00    +0.000 A 
ATOM     22  C   UNL     1      49.889   7.883  17.720  0.00  0.00    +0.000 A 
ATOM     23  S   UNL     1      49.824   7.392  19.356  0.00  0.00    +0.000 S 
ATOM     24  C   UNL     1      49.206   5.864  18.930  0.00  0.00    +0.000 A 
ATOM     25  N   UNL     1      48.916   4.934  19.879  0.00  0.00    +0.000 NA
ATOM     26  C   UNL     1      48.490   3.807  19.409  0.00  0.00    +0.000 A 
ATOM     27  N   UNL     1      48.337   3.524  18.076  0.00  0.00    +0.000 N 
ATOM     28  C   UNL     1      48.608   4.434  17.084  0.00  0.00    +0.000 A 
ATOM     29  O   UNL     1      48.448   4.146  15.900  0.00  0.00    +0.000 OA
ATOM     30  C   UNL     1      49.064   5.725  17.561  0.00  0.00    +0.000 A 
ATOM     31  H   UNL     1      48.005   2.620  17.775  0.00  0.00    +0.000 HD
ENDBRANCH  18  21
ENDBRANCH   1  19
TORSDOF 7
ENDMDL
MODEL 6
REMARK VINA RESULT:    -6.537      3.941      9.010
REMARK INTER + INTRA:         -10.143
REMARK INTER:                  -8.898
REMARK INTRA:                  -1.246
REMARK UNBOUND:                -0.931
REMARK  Name = 
REMARK  7 active torsions:
REMARK  status: ('A' for Active; 'I' for Inactive)
REMARK    1  A    between atoms: C_2  and  C_20
REMARK    2  A    between atoms: N_3  and  C_4
REMARK    3  A    between atoms: C_4  and  C_5
REMARK    4  A    between atoms: C_8  and  O_9
REMARK    5  A    between atoms: O_9  and  C_10
REMARK    6  A    between atoms: C_10  and  C_11
REMARK    7  A    between atoms: C_11  and  N_12
REMARK                            x       y       z     vdW  Elec       q    Type
REMARK                         _______ _______ _______ _____ _____    ______ ____
ROOT
ATOM      1  C   UNL     1      47.355   3.519  16.440  0.00  0.00    +0.000 C 
ENDROOT
BRANCH   1   2
ATOM      2  C   UNL     1      47.742   4.218  17.725  0.00  0.00    +0.000 A 
ATOM      3  C   UNL     1      49.000   4.008  18.286  0.00  0.00    +0.000 A 
ATOM      4  C   UNL     1      49.358   4.711  19.438  0.00  0.00    +0.000 A 
ATOM      5  C   UNL     1      48.475   5.643  19.981  0.00  0.00    +0.000 A 
ATOM      6  C   UNL     1      47.236   5.771  19.371  0.00  0.00    +0.000 A 
ATOM      7  N   UNL     1      46.856   5.096  18.256  0.00  0.00    +0.000 NA
BRANCH   5   8
ATOM      8  O   UNL     1      48.731   6.462  21.050  0.00  0.00    +0.000 OA
BRANCH   8   9
ATOM      9  C   UNL     1      49.715   7.471  20.794  0.00  0.00    +0.000 C 
BRANCH   9  10
ATOM     10  C   UNL     1      49.083   8.718  20.146  0.00  0.00    +0.000 C 
BRANCH  10  11
ATOM     11  N   UNL     1      49.767   9.152  18.918  0.00  0.00    +0.000 NA
ATOM     12  C   UNL     1      48.987  10.144  18.150  0.00  0.00    +0.000 C 
ATOM     13  C   UNL     1      48.001   9.531  17.144  0.00  0.00    +0.000 C 
ATOM     14  O   UNL     1      48.691   8.686  16.218  0.00  0.00    +0.000 OA
ATOM     15  C   UNL     1      49.310   7.604  16.917  0.00  0.00    +0.000 C 
ATOM     16  C   UNL     1      50.268   8.095  18.018  0.00  0.00    +0.000 C 
ENDBRANCH  10  11
ENDBRANCH   9  10
ENDBRANCH   8   9
ENDBRANCH   5   8
ENDBRANCH   1   2
BRANCH   1  19
ATOM     17  O   UNL     1      47.416   3.386  13.640  0.00  0.00    +0.000 OA
ATOM     18  C   UNL     1      46.824   4.315  14.175  0.00  0.00    +0.000 C 
ATOM     19  N   UNL     1      46.678   4.414  15.534  0.00  0.00    +0.000 N 
ATOM     20  H   UNL     1      46.211   5.215  15.942  0.00  0.00    +0.000 HD
BRANCH  18  21
ATOM     21  C   UNL     1      46.155   5.364  13.399  0.00  0.00    +0.000 A 
ATOM     22  C   UNL     1      46.752   6.602  13.224  0.00  0.00    +0.000 A 
ATOM     23  S   UNL     1      45.837   7.667  12.250  0.00  0.00    +0.000 S 
ATOM     24  C   UNL     1      44.591   6.520  12.073  0.00  0.00    +0.000 A 
ATOM     25  N   UNL     1      43.482   6.796  11.336  0.00  0.00    +0.000 NA
ATOM     26  C   UNL     1      42.602   5.848  11.320  0.00  0.00    +0.000 A 
ATOM     27  N   UNL     1      42.728   4.654  11.981  0.00  0.00    +0.000 N 
ATOM     28  C   UNL     1      43.834   4.327  12.729  0.00  0.00    +0.000 A 
ATOM     29  O   UNL     1      43.915   3.242  13.299  0.00  0.00    +0.000 OA
ATOM     30  C   UNL     1      44.862   5.349  12.757  0.00  0.00    +0.000 A 
ATOM     31  H   UNL     1      42.001   3.957  11.933  0.00  0.00    +0.000 HD
ENDBRANCH  18  21
ENDBRANCH   1  19
TORSDOF 7
ENDMDL
MODEL 7
REMARK VINA RESULT:    -6.486      4.011      9.609
REMARK INTER + INTRA:         -10.072
REMARK INTER:                  -8.909
REMARK INTRA:                  -1.163
REMARK UNBOUND:                -0.931
REMARK  Name = 
REMARK  7 active torsions:
REMARK  status: ('A' for Active; 'I' for Inactive)
REMARK    1  A    between atoms: C_2  and  C_20
REMARK    2  A    between atoms: N_3  and  C_4
REMARK    3  A    between atoms: C_4  and  C_5
REMARK    4  A    between atoms: C_8  and  O_9
REMARK    5  A    between atoms: O_9  and  C_10
REMARK    6  A    between atoms: C_10  and  C_11
REMARK    7  A    between atoms: C_11  and  N_12
REMARK                            x       y       z     vdW  Elec       q    Type
REMARK                         _______ _______ _______ _____ _____    ______ ____
ROOT
ATOM      1  C   UNL     1      47.428   3.522  16.593  0.00  0.00    +0.000 C 
ENDROOT
BRANCH   1   2
ATOM      2  C   UNL     1      48.517   4.178  17.413  0.00  0.00    +0.000 A 
ATOM      3  C   UNL     1      48.479   4.120  18.805  0.00  0.00    +0.000 A 
ATOM      4  C   UNL     1      49.526   4.680  19.538  0.00  0.00    +0.000 A 
ATOM      5  C   UNL     1      50.613   5.243  18.873  0.00  0.00    +0.000 A 
ATOM      6  C   UNL     1      50.557   5.278  17.487  0.00  0.00    +0.000 A 
ATOM      7  N   UNL     1      49.549   4.751  16.746  0.00  0.00    +0.000 NA
BRANCH   5   8
ATOM      8  O   UNL     1      51.744   5.745  19.463  0.00  0.00    +0.000 OA
BRANCH   8   9
ATOM      9  C   UNL     1      51.788   7.175  19.525  0.00  0.00    +0.000 C 
BRANCH   9  10
ATOM     10  C   UNL     1      50.928   7.712  20.685  0.00  0.00    +0.000 C 
BRANCH  10  11
ATOM     11  N   UNL     1      49.998   8.778  20.282  0.00  0.00    +0.000 NA
ATOM     12  C   UNL     1      48.780   8.818  21.117  0.00  0.00    +0.000 C 
ATOM     13  C   UNL     1      47.642   7.914  20.620  0.00  0.00    +0.000 C 
ATOM     14  O   UNL     1      47.280   8.255  19.278  0.00  0.00    +0.000 OA
ATOM     15  C   UNL     1      48.395   8.051  18.408  0.00  0.00    +0.000 C 
ATOM     16  C   UNL     1      49.635   8.848  18.853  0.00  0.00    +0.000 C 
ENDBRANCH  10  11
ENDBRANCH   9  10
ENDBRANCH   8   9
ENDBRANCH   5   8
ENDBRANCH   1   2
BRANCH   1  19
ATOM     17  O   UNL     1      47.225   3.177  13.817  0.00  0.00    +0.000 OA
ATOM     18  C   UNL     1      46.842   4.230  14.312  0.00  0.00    +0.000 C 
ATOM     19  N   UNL     1      46.833   4.451  15.665  0.00  0.00    +0.000 N 
ATOM     20  H   UNL     1      46.542   5.348  16.034  0.00  0.00    +0.000 HD
BRANCH  18  21
ATOM     21  C   UNL     1      46.291   5.319  13.499  0.00  0.00    +0.000 A 
ATOM     22  C   UNL     1      47.016   6.482  13.292  0.00  0.00    +0.000 A 
ATOM     23  S   UNL     1      46.221   7.606  12.278  0.00  0.00    +0.000 S 
ATOM     24  C   UNL     1      44.863   6.591  12.126  0.00  0.00    +0.000 A 
ATOM     25  N   UNL     1      43.793   6.958  11.372  0.00  0.00    +0.000 NA
ATOM     26  C   UNL     1      42.819   6.107  11.377  0.00  0.00    +0.000 A 
ATOM     27  N   UNL     1      42.816   4.927  12.074  0.00  0.00    +0.000 N 
ATOM     28  C   UNL     1      43.877   4.510  12.841  0.00  0.00    +0.000 A 
ATOM     29  O   UNL     1      43.841   3.440  13.444  0.00  0.00    +0.000 OA
ATOM     30  C   UNL     1      45.007   5.419  12.847  0.00  0.00    +0.000 A 
ATOM     31  H   UNL     1      42.020   4.309  12.041  0.00  0.00    +0.000 HD
ENDBRANCH  18  21
ENDBRANCH   1  19
TORSDOF 7
ENDMDL
MODEL 8
REMARK VINA RESULT:    -6.410      4.154      6.133
REMARK INTER + INTRA:          -9.964
REMARK INTER:                  -9.078
REMARK INTRA:                  -0.886
REMARK UNBOUND:                -0.931
REMARK  Name = 
REMARK  7 active torsions:
REMARK  status: ('A' for Active; 'I' for Inactive)
REMARK    1  A    between atoms: C_2  and  C_20
REMARK    2  A    between atoms: N_3  and  C_4
REMARK    3  A    between atoms: C_4  and  C_5
REMARK    4  A    between atoms: C_8  and  O_9
REMARK    5  A    between atoms: O_9  and  C_10
REMARK    6  A    between atoms: C_10  and  C_11
REMARK    7  A    between atoms: C_11  and  N_12
REMARK                            x       y       z     vdW  Elec       q    Type
REMARK                         _______ _______ _______ _____ _____    ______ ____
ROOT
ATOM      1  C   UNL     1      46.660   3.751  14.308  0.00  0.00    +0.000 C 
ENDROOT
BRANCH   1   2
ATOM      2  C   UNL     1      46.235   5.028  13.616  0.00  0.00    +0.000 A 
ATOM      3  C   UNL     1      47.182   5.997  13.289  0.00  0.00    +0.000 A 
ATOM      4  C   UNL     1      46.776   7.139  12.597  0.00  0.00    +0.000 A 
ATOM      5  C   UNL     1      45.446   7.273  12.203  0.00  0.00    +0.000 A 
ATOM      6  C   UNL     1      44.568   6.271  12.591  0.00  0.00    +0.000 A 
ATOM      7  N   UNL     1      44.930   5.154  13.271  0.00  0.00    +0.000 NA
BRANCH   5   8
ATOM      8  O   UNL     1      44.932   8.293  11.446  0.00  0.00    +0.000 OA
BRANCH   8   9
ATOM      9  C   UNL     1      44.808   9.537  12.145  0.00  0.00    +0.000 C 
BRANCH   9  10
ATOM     10  C   UNL     1      44.208  10.630  11.240  0.00  0.00    +0.000 C 
BRANCH  10  11
ATOM     11  N   UNL     1      43.159  10.133  10.336  0.00  0.00    +0.000 NA
ATOM     12  C   UNL     1      43.226  10.745   8.993  0.00  0.00    +0.000 C 
ATOM     13  C   UNL     1      42.440  12.059   8.858  0.00  0.00    +0.000 C 
ATOM     14  O   UNL     1      41.063  11.856   9.193  0.00  0.00    +0.000 OA
ATOM     15  C   UNL     1      40.952  11.435  10.553  0.00  0.00    +0.000 C 
ATOM     16  C   UNL     1      41.771  10.162  10.838  0.00  0.00    +0.000 C 
ENDBRANCH  10  11
ENDBRANCH   9  10
ENDBRANCH   8   9
ENDBRANCH   5   8
ENDBRANCH   1   2
BRANCH   1  19
ATOM     17  O   UNL     1      46.565   3.344  17.081  0.00  0.00    +0.000 OA
ATOM     18  C   UNL     1      47.577   3.825  16.588  0.00  0.00    +0.000 C 
ATOM     19  N   UNL     1      47.738   3.986  15.236  0.00  0.00    +0.000 N 
ATOM     20  H   UNL     1      48.575   4.420  14.869  0.00  0.00    +0.000 HD
BRANCH  18  21
ATOM     21  C   UNL     1      48.735   4.206  17.403  0.00  0.00    +0.000 A 
ATOM     22  C   UNL     1      48.730   5.384  18.132  0.00  0.00    +0.000 A 
ATOM     23  S   UNL     1      50.151   5.620  19.051  0.00  0.00    +0.000 S 
ATOM     24  C   UNL     1      50.837   4.177  18.464  0.00  0.00    +0.000 A 
ATOM     25  N   UNL     1      52.071   3.772  18.864  0.00  0.00    +0.000 NA
ATOM     26  C   UNL     1      52.481   2.679  18.309  0.00  0.00    +0.000 A 
ATOM     27  N   UNL     1      51.770   1.959  17.383  0.00  0.00    +0.000 N 
ATOM     28  C   UNL     1      50.517   2.324  16.956  0.00  0.00    +0.000 A 
ATOM     29  O   UNL     1      49.906   1.647  16.132  0.00  0.00    +0.000 OA
ATOM     30  C   UNL     1      50.001   3.532  17.570  0.00  0.00    +0.000 A 
ATOM     31  H   UNL     1      52.150   1.115  16.982  0.00  0.00    +0.000 HD
ENDBRANCH  18  21
ENDBRANCH   1  19
TORSDOF 7
ENDMDL
MODEL 9
REMARK VINA RESULT:    -6.253      3.882      7.817
REMARK INTER + INTRA:          -9.744
REMARK INTER:                  -8.053
REMARK INTRA:                  -1.691
REMARK UNBOUND:                -0.931
REMARK  Name = 
REMARK  7 active torsions:
REMARK  status: ('A' for Active; 'I' for Inactive)
REMARK    1  A    between atoms: C_2  and  C_20
REMARK    2  A    between atoms: N_3  and  C_4
REMARK    3  A    between atoms: C_4  and  C_5
REMARK    4  A    between atoms: C_8  and  O_9
REMARK    5  A    between atoms: O_9  and  C_10
REMARK    6  A    between atoms: C_10  and  C_11
REMARK    7  A    between atoms: C_11  and  N_12
REMARK                            x       y       z     vdW  Elec       q    Type
REMARK                         _______ _______ _______ _____ _____    ______ ____
ROOT
ATOM      1  C   UNL     1      48.045   9.196  14.570  0.00  0.00    +0.000 C 
ENDROOT
BRANCH   1   2
ATOM      2  C   UNL     1      49.072   8.514  15.447  0.00  0.00    +0.000 A 
ATOM      3  C   UNL     1      48.857   8.397  16.819  0.00  0.00    +0.000 A 
ATOM      4  C   UNL     1      49.790   7.711  17.598  0.00  0.00    +0.000 A 
ATOM      5  C   UNL     1      50.893   7.114  16.990  0.00  0.00    +0.000 A 
ATOM      6  C   UNL     1      51.040   7.301  15.624  0.00  0.00    +0.000 A 
ATOM      7  N   UNL     1      50.156   7.970  14.841  0.00  0.00    +0.000 NA
BRANCH   5   8
ATOM      8  O   UNL     1      51.834   6.340  17.618  0.00  0.00    +0.000 OA
BRANCH   8   9
ATOM      9  C   UNL     1      51.286   5.304  18.442  0.00  0.00    +0.000 C 
BRANCH   9  10
ATOM     10  C   UNL     1      50.769   4.128  17.591  0.00  0.00    +0.000 C 
BRANCH  10  11
ATOM     11  N   UNL     1      49.585   3.467  18.162  0.00  0.00    +0.000 NA
ATOM     12  C   UNL     1      49.091   2.356  17.323  0.00  0.00    +0.000 C 
ATOM     13  C   UNL     1      48.085   2.779  16.241  0.00  0.00    +0.000 C 
ATOM     14  O   UNL     1      46.958   3.432  16.834  0.00  0.00    +0.000 OA
ATOM     15  C   UNL     1      47.382   4.619  17.506  0.00  0.00    +0.000 C 
ATOM     16  C   UNL     1      48.461   4.334  18.566  0.00  0.00    +0.000 C 
ENDBRANCH  10  11
ENDBRANCH   9  10
ENDBRANCH   8   9
ENDBRANCH   5   8
ENDBRANCH   1   2
BRANCH   1  19
ATOM     17  O   UNL     1      47.795   8.472  11.872  0.00  0.00    +0.000 OA
ATOM     18  C   UNL     1      47.003   8.011  12.684  0.00  0.00    +0.000 C 
ATOM     19  N   UNL     1      47.100   8.250  14.030  0.00  0.00    +0.000 N 
ATOM     20  H   UNL     1      46.404   7.879  14.666  0.00  0.00    +0.000 HD
BRANCH  18  21
ATOM     21  C   UNL     1      45.922   7.102  12.288  0.00  0.00    +0.000 A 
ATOM     22  C   UNL     1      44.802   7.581  11.627  0.00  0.00    +0.000 A 
ATOM     23  S   UNL     1      43.684   6.358  11.212  0.00  0.00    +0.000 S 
ATOM     24  C   UNL     1      44.640   5.157  11.947  0.00  0.00    +0.000 A 
ATOM     25  N   UNL     1      44.254   3.853  11.947  0.00  0.00    +0.000 NA
ATOM     26  C   UNL     1      45.058   3.058  12.574  0.00  0.00    +0.000 A 
ATOM     27  N   UNL     1      46.209   3.450  13.207  0.00  0.00    +0.000 N 
ATOM     28  C   UNL     1      46.644   4.754  13.225  0.00  0.00    +0.000 A 
ATOM     29  O   UNL     1      47.687   5.066  13.795  0.00  0.00    +0.000 OA
ATOM     30  C   UNL     1      45.789   5.682  12.512  0.00  0.00    +0.000 A 
ATOM     31  H   UNL     1      46.791   2.779  13.685  0.00  0.00    +0.000 HD
ENDBRANCH  18  21
ENDBRANCH   1  19
TORSDOF 7
ENDMDL
