MODEL 1
REMARK VINA RESULT:    -8.279      0.000      0.000
REMARK INTER + INTRA:         -13.297
REMARK INTER:                 -12.392
REMARK INTRA:                  -0.905
REMARK UNBOUND:                -0.905
REMARK  Name = 
REMARK  9 active torsions:
REMARK  status: ('A' for Active; 'I' for Inactive)
REMARK    1  A    between atoms: C_2  and  C_13
REMARK    2  A    between atoms: N_3  and  CA_4
REMARK    3  A    between atoms: CA_4  and  C_5
REMARK    4  A    between atoms: CA_4  and  C_7
REMARK    5  A    between atoms: C_5  and  O_6
REMARK    6  A    between atoms: C_16  and  C_17
REMARK    7  A    between atoms: C_17  and  N_18
REMARK    8  A    between atoms: N_18  and  C_19
REMARK    9  A    between atoms: C_19  and  C_20
REMARK                            x       y       z     vdW  Elec       q    Type
REMARK                         _______ _______ _______ _____ _____    ______ ____
ROOT
ATOM      1  C   UNL     1      46.602   5.342  13.558  0.00  0.00    +0.000 A 
ATOM      2  C   UNL     1      46.119   6.404  12.794  0.00  0.00    +0.000 A 
ATOM      3  C   UNL     1      45.146   6.184  11.812  0.00  0.00    +0.000 A 
ATOM      4  C   UNL     1      44.646   4.892  11.581  0.00  0.00    +0.000 A 
ATOM      5  C   UNL     1      45.112   3.841  12.379  0.00  0.00    +0.000 A 
ATOM      6  C   UNL     1      46.087   4.056  13.362  0.00  0.00    +0.000 A 
ENDROOT
BRANCH   1   8
ATOM      7  O   UNL     1      48.670   6.203  14.269  0.00  0.00    +0.000 OA
ATOM      8  C   UNL     1      47.638   5.628  14.586  0.00  0.00    +0.000 C 
ATOM      9  N   UNL     1      47.387   5.180  15.866  0.00  0.00    +0.000 N 
ATOM     10  H   UNL     1      46.617   4.542  16.029  0.00  0.00    +0.000 HD
BRANCH   9  11
ATOM     11  CA  UNL     1      48.403   5.292  16.905  0.00  0.00    +0.000 C 
BRANCH  11  12
ATOM     12  C   UNL     1      49.248   4.034  17.017  0.00  0.00    +0.000 A 
ATOM     13  C   UNL     1      50.502   4.005  17.653  0.00  0.00    +0.000 A 
ATOM     14  C   UNL     1      51.256   2.844  17.649  0.00  0.00    +0.000 A 
ATOM     15  C   UNL     1      50.742   1.727  17.015  0.00  0.00    +0.000 A 
ATOM     16  N   UNL     1      49.544   1.706  16.399  0.00  0.00    +0.000 NA
ATOM     17  C   UNL     1      48.829   2.849  16.420  0.00  0.00    +0.000 A 
ENDBRANCH  11  12
BRANCH  11  18
ATOM     18  C   UNL     1      47.766   5.638  18.273  0.00  0.00    +0.000 C 
BRANCH  18  19
ATOM     19  O   UNL     1      46.486   5.021  18.460  0.00  0.00    +0.000 OA
ATOM     20  H   UNL     1      46.396   4.789  19.400  0.00  0.00    +0.000 HD
ENDBRANCH  18  19
ENDBRANCH  11  18
ENDBRANCH   9  11
ENDBRANCH   1   8
BRANCH   4  21
ATOM     21  C   UNL     1      43.603   4.650  10.508  0.00  0.00    +0.000 C 
BRANCH  21  22
ATOM     22  N   UNL     1      44.011   3.567   9.613  0.00  0.00    +0.000 NA
ATOM     23  H   UNL     1      43.176   3.082   9.286  0.00  0.00    +0.000 HD
BRANCH  22  24
ATOM     24  C   UNL     1      44.767   4.063   8.465  0.00  0.00    +0.000 C 
BRANCH  24  25
ATOM     25  C   UNL     1      45.761   3.044   7.997  0.00  0.00    +0.000 A 
ATOM     26  C   UNL     1      46.794   3.346   7.132  0.00  0.00    +0.000 A 
ATOM     27  N   UNL     1      47.696   2.446   6.690  0.00  0.00    +0.000 NA
ATOM     28  C   UNL     1      47.542   1.195   7.151  0.00  0.00    +0.000 A 
ATOM     29  N   UNL     1      46.591   0.780   8.000  0.00  0.00    +0.000 NA
ATOM     30  C   UNL     1      45.716   1.724   8.405  0.00  0.00    +0.000 A 
ENDBRANCH  24  25
ENDBRANCH  22  24
ENDBRANCH  21  22
ENDBRANCH   4  21
TORSDOF 9
ENDMDL
MODEL 2
REMARK VINA RESULT:    -7.604      1.930      2.422
REMARK INTER + INTRA:         -12.288
REMARK INTER:                 -11.203
REMARK INTRA:                  -1.085
REMARK UNBOUND:                -0.905
REMARK  Name = 
REMARK  9 active torsions:
REMARK  status: ('A' for Active; 'I' for Inactive)
REMARK    1  A    between atoms: C_2  and  C_13
REMARK    2  A    between atoms: N_3  and  CA_4
REMARK    3  A    between atoms: CA_4  and  C_5
REMARK    4  A    between atoms: CA_4  and  C_7
REMARK    5  A    between atoms: C_5  and  O_6
REMARK    6  A    between atoms: C_16  and  C_17
REMARK    7  A    between atoms: C_17  and  N_18
REMARK    8  A    between atoms: N_18  and  C_19
REMARK    9  A    between atoms: C_19  and  C_20
REMARK                            x       y       z     vdW  Elec       q    Type
REMARK                         _______ _______ _______ _____ _____    ______ ____
ROOT
ATOM      1  C   UNL     1      46.896   5.592  12.731  0.00  0.00    +0.000 A 
ATOM      2  C   UNL     1      46.394   4.382  13.212  0.00  0.00    +0.000 A 
ATOM      3  C   UNL     1      45.352   3.731  12.541  0.00  0.00    +0.000 A 
ATOM      4  C   UNL     1      44.797   4.288  11.377  0.00  0.00    +0.000 A 
ATOM      5  C   UNL     1      45.333   5.483  10.884  0.00  0.00    +0.000 A 
ATOM      6  C   UNL     1      46.374   6.139  11.554  0.00  0.00    +0.000 A 
ENDROOT
BRANCH   1   8
ATOM      7  O   UNL     1      49.065   6.476  12.926  0.00  0.00    +0.000 OA
ATOM      8  C   UNL     1      48.000   6.245  13.483  0.00  0.00    +0.000 C 
ATOM      9  N   UNL     1      47.768   6.524  14.814  0.00  0.00    +0.000 N 
ATOM     10  H   UNL     1      46.951   6.136  15.269  0.00  0.00    +0.000 HD
BRANCH   9  11
ATOM     11  CA  UNL     1      48.838   7.035  15.662  0.00  0.00    +0.000 C 
BRANCH  11  12
ATOM     12  C   UNL     1      49.157   6.092  16.810  0.00  0.00    +0.000 A 
ATOM     13  C   UNL     1      48.267   5.102  17.262  0.00  0.00    +0.000 A 
ATOM     14  C   UNL     1      48.588   4.330  18.365  0.00  0.00    +0.000 A 
ATOM     15  C   UNL     1      49.799   4.555  18.997  0.00  0.00    +0.000 A 
ATOM     16  N   UNL     1      50.685   5.487  18.596  0.00  0.00    +0.000 NA
ATOM     17  C   UNL     1      50.348   6.223  17.518  0.00  0.00    +0.000 A 
ENDBRANCH  11  12
BRANCH  11  18
ATOM     18  C   UNL     1      48.496   8.446  16.202  0.00  0.00    +0.000 C 
BRANCH  18  19
ATOM     19  O   UNL     1      47.413   9.062  15.494  0.00  0.00    +0.000 OA
ATOM     20  H   UNL     1      46.631   8.491  15.580  0.00  0.00    +0.000 HD
ENDBRANCH  18  19
ENDBRANCH  11  18
ENDBRANCH   9  11
ENDBRANCH   1   8
BRANCH   4  21
ATOM     21  C   UNL     1      43.659   3.592  10.657  0.00  0.00    +0.000 C 
BRANCH  21  22
ATOM     22  N   UNL     1      44.022   3.287   9.273  0.00  0.00    +0.000 NA
ATOM     23  H   UNL     1      44.610   4.039   8.917  0.00  0.00    +0.000 HD
BRANCH  22  24
ATOM     24  C   UNL     1      44.736   2.016   9.162  0.00  0.00    +0.000 C 
BRANCH  24  25
ATOM     25  C   UNL     1      45.897   2.135   8.223  0.00  0.00    +0.000 A 
ATOM     26  C   UNL     1      46.294   3.336   7.668  0.00  0.00    +0.000 A 
ATOM     27  N   UNL     1      47.329   3.468   6.815  0.00  0.00    +0.000 NA
ATOM     28  C   UNL     1      47.987   2.335   6.520  0.00  0.00    +0.000 A 
ATOM     29  N   UNL     1      47.708   1.114   7.000  0.00  0.00    +0.000 NA
ATOM     30  C   UNL     1      46.660   1.045   7.846  0.00  0.00    +0.000 A 
ENDBRANCH  24  25
ENDBRANCH  22  24
ENDBRANCH  21  22
ENDBRANCH   4  21
TORSDOF 9
ENDMDL
MODEL 3
REMARK VINA RESULT:    -7.193      1.496      2.763
REMARK INTER + INTRA:         -11.672
REMARK INTER:                 -11.353
REMARK INTRA:                  -0.319
REMARK UNBOUND:                -0.905
REMARK  Name = 
REMARK  9 active torsions:
REMARK  status: ('A' for Active; 'I' for Inactive)
REMARK    1  A    between atoms: C_2  and  C_13
REMARK    2  A    between atoms: N_3  and  CA_4
REMARK    3  A    between atoms: CA_4  and  C_5
REMARK    4  A    between atoms: CA_4  and  C_7
REMARK    5  A    between atoms: C_5  and  O_6
REMARK    6  A    between atoms: C_16  and  C_17
REMARK    7  A    between atoms: C_17  and  N_18
REMARK    8  A    between atoms: N_18  and  C_19
REMARK    9  A    between atoms: C_19  and  C_20
REMARK                            x       y       z     vdW  Elec       q    Type
REMARK                         _______ _______ _______ _____ _____    ______ ____
ROOT
ATOM      1  C   UNL     1      46.352   4.655  13.915  0.00  0.00    +0.000 A 
ATOM      2  C   UNL     1      45.945   3.463  13.314  0.00  0.00    +0.000 A 
ATOM      3  C   UNL     1      45.069   3.485  12.222  0.00  0.00    +0.000 A 
ATOM      4  C   UNL     1      44.588   4.706  11.719  0.00  0.00    +0.000 A 
ATOM      5  C   UNL     1      45.032   5.895  12.307  0.00  0.00    +0.000 A 
ATOM      6  C   UNL     1      45.907   5.878  13.402  0.00  0.00    +0.000 A 
ENDROOT
BRANCH   1   8
ATOM      7  O   UNL     1      48.299   5.254  15.088  0.00  0.00    +0.000 OA
ATOM      8  C   UNL     1      47.280   4.577  15.075  0.00  0.00    +0.000 C 
ATOM      9  N   UNL     1      46.950   3.691  16.079  0.00  0.00    +0.000 N 
ATOM     10  H   UNL     1      46.208   3.018  15.926  0.00  0.00    +0.000 HD
BRANCH   9  11
ATOM     11  CA  UNL     1      47.867   3.446  17.184  0.00  0.00    +0.000 C 
BRANCH  11  12
ATOM     12  C   UNL     1      48.113   4.696  18.013  0.00  0.00    +0.000 A 
ATOM     13  C   UNL     1      49.397   5.216  18.255  0.00  0.00    +0.000 A 
ATOM     14  C   UNL     1      49.556   6.312  19.086  0.00  0.00    +0.000 A 
ATOM     15  C   UNL     1      48.429   6.876  19.656  0.00  0.00    +0.000 A 
ATOM     16  N   UNL     1      47.180   6.416  19.447  0.00  0.00    +0.000 NA
ATOM     17  C   UNL     1      47.053   5.349  18.632  0.00  0.00    +0.000 A 
ENDBRANCH  11  12
BRANCH  11  18
ATOM     18  C   UNL     1      49.209   2.863  16.675  0.00  0.00    +0.000 C 
BRANCH  18  19
ATOM     19  O   UNL     1      49.034   1.688  15.875  0.00  0.00    +0.000 OA
ATOM     20  H   UNL     1      49.896   1.453  15.490  0.00  0.00    +0.000 HD
ENDBRANCH  18  19
ENDBRANCH  11  18
ENDBRANCH   9  11
ENDBRANCH   1   8
BRANCH   4  21
ATOM     21  C   UNL     1      43.629   4.730  10.546  0.00  0.00    +0.000 C 
BRANCH  21  22
ATOM     22  N   UNL     1      43.903   3.631   9.620  0.00  0.00    +0.000 NA
ATOM     23  H   UNL     1      43.017   3.212   9.339  0.00  0.00    +0.000 HD
BRANCH  22  24
ATOM     24  C   UNL     1      44.625   4.083   8.432  0.00  0.00    +0.000 C 
BRANCH  24  25
ATOM     25  C   UNL     1      45.637   3.067   8.001  0.00  0.00    +0.000 A 
ATOM     26  C   UNL     1      45.624   1.759   8.445  0.00  0.00    +0.000 A 
ATOM     27  N   UNL     1      46.528   0.828   8.078  0.00  0.00    +0.000 NA
ATOM     28  C   UNL     1      47.476   1.244   7.224  0.00  0.00    +0.000 A 
ATOM     29  N   UNL     1      47.590   2.479   6.714  0.00  0.00    +0.000 NA
ATOM     30  C   UNL     1      46.660   3.367   7.120  0.00  0.00    +0.000 A 
ENDBRANCH  24  25
ENDBRANCH  22  24
ENDBRANCH  21  22
ENDBRANCH   4  21
TORSDOF 9
ENDMDL
MODEL 4
REMARK VINA RESULT:    -7.123      2.378      8.569
REMARK INTER + INTRA:         -11.567
REMARK INTER:                 -10.838
REMARK INTRA:                  -0.729
REMARK UNBOUND:                -0.905
REMARK  Name = 
REMARK  9 active torsions:
REMARK  status: ('A' for Active; 'I' for Inactive)
REMARK    1  A    between atoms: C_2  and  C_13
REMARK    2  A    between atoms: N_3  and  CA_4
REMARK    3  A    between atoms: CA_4  and  C_5
REMARK    4  A    between atoms: CA_4  and  C_7
REMARK    5  A    between atoms: C_5  and  O_6
REMARK    6  A    between atoms: C_16  and  C_17
REMARK    7  A    between atoms: C_17  and  N_18
REMARK    8  A    between atoms: N_18  and  C_19
REMARK    9  A    between atoms: C_19  and  C_20
REMARK                            x       y       z     vdW  Elec       q    Type
REMARK                         _______ _______ _______ _____ _____    ______ ____
ROOT
ATOM      1  C   UNL     1      46.657   4.843  14.043  0.00  0.00    +0.000 A 
ATOM      2  C   UNL     1      47.366   5.968  13.618  0.00  0.00    +0.000 A 
ATOM      3  C   UNL     1      48.360   6.526  14.431  0.00  0.00    +0.000 A 
ATOM      4  C   UNL     1      48.654   5.964  15.684  0.00  0.00    +0.000 A 
ATOM      5  C   UNL     1      47.963   4.815  16.083  0.00  0.00    +0.000 A 
ATOM      6  C   UNL     1      46.966   4.253  15.274  0.00  0.00    +0.000 A 
ENDROOT
BRANCH   1   8
ATOM      7  O   UNL     1      45.517   3.081  12.986  0.00  0.00    +0.000 OA
ATOM      8  C   UNL     1      45.610   4.291  13.144  0.00  0.00    +0.000 C 
ATOM      9  N   UNL     1      44.805   5.201  12.491  0.00  0.00    +0.000 N 
ATOM     10  H   UNL     1      45.052   6.183  12.504  0.00  0.00    +0.000 HD
BRANCH   9  11
ATOM     11  CA  UNL     1      43.846   4.758  11.487  0.00  0.00    +0.000 C 
BRANCH  11  12
ATOM     12  C   UNL     1      44.518   4.394  10.174  0.00  0.00    +0.000 A 
ATOM     13  C   UNL     1      44.358   3.145   9.549  0.00  0.00    +0.000 A 
ATOM     14  C   UNL     1      45.064   2.850   8.396  0.00  0.00    +0.000 A 
ATOM     15  C   UNL     1      45.913   3.812   7.879  0.00  0.00    +0.000 A 
ATOM     16  N   UNL     1      46.093   5.024   8.439  0.00  0.00    +0.000 NA
ATOM     17  C   UNL     1      45.392   5.286   9.561  0.00  0.00    +0.000 A 
ENDBRANCH  11  12
BRANCH  11  18
ATOM     18  C   UNL     1      42.750   5.827  11.255  0.00  0.00    +0.000 C 
BRANCH  18  19
ATOM     19  O   UNL     1      43.267   7.163  11.266  0.00  0.00    +0.000 OA
ATOM     20  H   UNL     1      42.818   7.655  11.974  0.00  0.00    +0.000 HD
ENDBRANCH  18  19
ENDBRANCH  11  18
ENDBRANCH   9  11
ENDBRANCH   1   8
BRANCH   4  21
ATOM     21  C   UNL     1      49.720   6.576  16.571  0.00  0.00    +0.000 C 
BRANCH  21  22
ATOM     22  N   UNL     1      50.860   5.672  16.724  0.00  0.00    +0.000 NA
ATOM     23  H   UNL     1      51.720   6.215  16.643  0.00  0.00    +0.000 HD
BRANCH  22  24
ATOM     24  C   UNL     1      50.841   4.980  18.011  0.00  0.00    +0.000 C 
BRANCH  24  25
ATOM     25  C   UNL     1      51.323   3.569  17.868  0.00  0.00    +0.000 A 
ATOM     26  C   UNL     1      50.559   2.569  17.301  0.00  0.00    +0.000 A 
ATOM     27  N   UNL     1      50.966   1.290  17.169  0.00  0.00    +0.000 NA
ATOM     28  C   UNL     1      52.199   1.024  17.626  0.00  0.00    +0.000 A 
ATOM     29  N   UNL     1      53.041   1.906  18.184  0.00  0.00    +0.000 NA
ATOM     30  C   UNL     1      52.576   3.168  18.292  0.00  0.00    +0.000 A 
ENDBRANCH  24  25
ENDBRANCH  22  24
ENDBRANCH  21  22
ENDBRANCH   4  21
TORSDOF 9
ENDMDL
MODEL 5
REMARK VINA RESULT:    -6.798      1.408      2.062
REMARK INTER + INTRA:         -11.081
REMARK INTER:                 -10.547
REMARK INTRA:                  -0.534
REMARK UNBOUND:                -0.905
REMARK  Name = 
REMARK  9 active torsions:
REMARK  status: ('A' for Active; 'I' for Inactive)
REMARK    1  A    between atoms: C_2  and  C_13
REMARK    2  A    between atoms: N_3  and  CA_4
REMARK    3  A    between atoms: CA_4  and  C_5
REMARK    4  A    between atoms: CA_4  and  C_7
REMARK    5  A    between atoms: C_5  and  O_6
REMARK    6  A    between atoms: C_16  and  C_17
REMARK    7  A    between atoms: C_17  and  N_18
REMARK    8  A    between atoms: N_18  and  C_19
REMARK    9  A    between atoms: C_19  and  C_20
REMARK                            x       y       z     vdW  Elec       q    Type
REMARK                         _______ _______ _______ _____ _____    ______ ____
ROOT
ATOM      1  C   UNL     1      47.847   5.832  14.834  0.00  0.00    +0.000 A 
ATOM      2  C   UNL     1      47.065   4.716  14.535  0.00  0.00    +0.000 A 
ATOM      3  C   UNL     1      46.340   4.659  13.339  0.00  0.00    +0.000 A 
ATOM      4  C   UNL     1      46.388   5.726  12.426  0.00  0.00    +0.000 A 
ATOM      5  C   UNL     1      47.204   6.824  12.720  0.00  0.00    +0.000 A 
ATOM      6  C   UNL     1      47.930   6.886  13.917  0.00  0.00    +0.000 A 
ENDROOT
BRANCH   1   8
ATOM      7  O   UNL     1      49.080   6.889  16.533  0.00  0.00    +0.000 OA
ATOM      8  C   UNL     1      48.595   5.845  16.119  0.00  0.00    +0.000 C 
ATOM      9  N   UNL     1      48.737   4.637  16.769  0.00  0.00    +0.000 N 
ATOM     10  H   UNL     1      48.490   3.780  16.289  0.00  0.00    +0.000 HD
BRANCH   9  11
ATOM     11  CA  UNL     1      49.570   4.528  17.960  0.00  0.00    +0.000 C 
BRANCH  11  12
ATOM     12  C   UNL     1      50.573   3.391  17.856  0.00  0.00    +0.000 A 
ATOM     13  C   UNL     1      51.882   3.473  18.362  0.00  0.00    +0.000 A 
ATOM     14  C   UNL     1      52.770   2.430  18.161  0.00  0.00    +0.000 A 
ATOM     15  C   UNL     1      52.333   1.318  17.464  0.00  0.00    +0.000 A 
ATOM     16  N   UNL     1      51.087   1.193  16.967  0.00  0.00    +0.000 NA
ATOM     17  C   UNL     1      50.242   2.222  17.178  0.00  0.00    +0.000 A 
ENDBRANCH  11  12
BRANCH  11  18
ATOM     18  C   UNL     1      48.704   4.369  19.234  0.00  0.00    +0.000 C 
BRANCH  18  19
ATOM     19  O   UNL     1      48.256   3.023  19.435  0.00  0.00    +0.000 OA
ATOM     20  H   UNL     1      47.823   2.723  18.617  0.00  0.00    +0.000 HD
ENDBRANCH  18  19
ENDBRANCH  11  18
ENDBRANCH   9  11
ENDBRANCH   1   8
BRANCH   4  21
ATOM     21  C   UNL     1      45.592   5.672  11.137  0.00  0.00    +0.000 C 
BRANCH  21  22
ATOM     22  N   UNL     1      44.499   4.704  11.235  0.00  0.00    +0.000 NA
ATOM     23  H   UNL     1      43.777   5.087  11.844  0.00  0.00    +0.000 HD
BRANCH  22  24
ATOM     24  C   UNL     1      43.921   4.398   9.927  0.00  0.00    +0.000 C 
BRANCH  24  25
ATOM     25  C   UNL     1      44.842   3.532   9.124  0.00  0.00    +0.000 A 
ATOM     26  C   UNL     1      45.634   4.023   8.104  0.00  0.00    +0.000 A 
ATOM     27  N   UNL     1      46.463   3.264   7.360  0.00  0.00    +0.000 NA
ATOM     28  C   UNL     1      46.491   1.958   7.672  0.00  0.00    +0.000 A 
ATOM     29  N   UNL     1      45.783   1.364   8.643  0.00  0.00    +0.000 NA
ATOM     30  C   UNL     1      44.968   2.175   9.350  0.00  0.00    +0.000 A 
ENDBRANCH  24  25
ENDBRANCH  22  24
ENDBRANCH  21  22
ENDBRANCH   4  21
TORSDOF 9
ENDMDL
MODEL 6
REMARK VINA RESULT:    -6.731      3.533      5.525
REMARK INTER + INTRA:         -10.981
REMARK INTER:                  -9.854
REMARK INTRA:                  -1.127
REMARK UNBOUND:                -0.905
REMARK  Name = 
REMARK  9 active torsions:
REMARK  status: ('A' for Active; 'I' for Inactive)
REMARK    1  A    between atoms: C_2  and  C_13
REMARK    2  A    between atoms: N_3  and  CA_4
REMARK    3  A    between atoms: CA_4  and  C_5
REMARK    4  A    between atoms: CA_4  and  C_7
REMARK    5  A    between atoms: C_5  and  O_6
REMARK    6  A    between atoms: C_16  and  C_17
REMARK    7  A    between atoms: C_17  and  N_18
REMARK    8  A    between atoms: N_18  and  C_19
REMARK    9  A    between atoms: C_19  and  C_20
REMARK                            x       y       z     vdW  Elec       q    Type
REMARK                         _______ _______ _______ _____ _____    ______ ____
ROOT
ATOM      1  C   UNL     1      46.649   5.896  12.493  0.00  0.00    +0.000 A 
ATOM      2  C   UNL     1      46.157   4.778  13.167  0.00  0.00    +0.000 A 
ATOM      3  C   UNL     1      45.218   3.939  12.554  0.00  0.00    +0.000 A 
ATOM      4  C   UNL     1      44.758   4.213  11.255  0.00  0.00    +0.000 A 
ATOM      5  C   UNL     1      45.286   5.317  10.576  0.00  0.00    +0.000 A 
ATOM      6  C   UNL     1      46.224   6.160  11.186  0.00  0.00    +0.000 A 
ENDROOT
BRANCH   1   8
ATOM      7  O   UNL     1      48.110   6.403  14.262  0.00  0.00    +0.000 OA
ATOM      8  C   UNL     1      47.641   6.757  13.189  0.00  0.00    +0.000 C 
ATOM      9  N   UNL     1      47.955   7.958  12.587  0.00  0.00    +0.000 N 
ATOM     10  H   UNL     1      47.396   8.287  11.810  0.00  0.00    +0.000 HD
BRANCH   9  11
ATOM     11  CA  UNL     1      48.810   8.926  13.264  0.00  0.00    +0.000 C 
BRANCH  11  12
ATOM     12  C   UNL     1      48.391  10.358  12.977  0.00  0.00    +0.000 A 
ATOM     13  C   UNL     1      49.035  11.473  13.541  0.00  0.00    +0.000 A 
ATOM     14  C   UNL     1      48.552  12.748  13.302  0.00  0.00    +0.000 A 
ATOM     15  C   UNL     1      47.436  12.889  12.496  0.00  0.00    +0.000 A 
ATOM     16  N   UNL     1      46.791  11.851  11.930  0.00  0.00    +0.000 NA
ATOM     17  C   UNL     1      47.284  10.620  12.177  0.00  0.00    +0.000 A 
ENDBRANCH  11  12
BRANCH  11  18
ATOM     18  C   UNL     1      50.298   8.713  12.889  0.00  0.00    +0.000 C 
BRANCH  18  19
ATOM     19  O   UNL     1      50.925   7.689  13.672  0.00  0.00    +0.000 OA
ATOM     20  H   UNL     1      51.842   7.593  13.365  0.00  0.00    +0.000 HD
ENDBRANCH  18  19
ENDBRANCH  11  18
ENDBRANCH   9  11
ENDBRANCH   1   8
BRANCH   4  21
ATOM     21  C   UNL     1      43.731   3.314  10.597  0.00  0.00    +0.000 C 
BRANCH  21  22
ATOM     22  N   UNL     1      44.108   3.009   9.216  0.00  0.00    +0.000 NA
ATOM     23  H   UNL     1      44.526   3.841   8.801  0.00  0.00    +0.000 HD
BRANCH  22  24
ATOM     24  C   UNL     1      45.055   1.898   9.141  0.00  0.00    +0.000 C 
BRANCH  24  25
ATOM     25  C   UNL     1      46.002   2.079   7.994  0.00  0.00    +0.000 A 
ATOM     26  C   UNL     1      46.910   1.111   7.611  0.00  0.00    +0.000 A 
ATOM     27  N   UNL     1      47.778   1.252   6.589  0.00  0.00    +0.000 NA
ATOM     28  C   UNL     1      47.714   2.420   5.930  0.00  0.00    +0.000 A 
ATOM     29  N   UNL     1      46.873   3.430   6.196  0.00  0.00    +0.000 NA
ATOM     30  C   UNL     1      46.031   3.231   7.231  0.00  0.00    +0.000 A 
ENDBRANCH  24  25
ENDBRANCH  22  24
ENDBRANCH  21  22
ENDBRANCH   4  21
TORSDOF 9
ENDMDL
MODEL 7
REMARK VINA RESULT:    -6.406      2.871      3.751
REMARK INTER + INTRA:         -10.494
REMARK INTER:                  -9.638
REMARK INTRA:                  -0.856
REMARK UNBOUND:                -0.905
REMARK  Name = 
REMARK  9 active torsions:
REMARK  status: ('A' for Active; 'I' for Inactive)
REMARK    1  A    between atoms: C_2  and  C_13
REMARK    2  A    between atoms: N_3  and  CA_4
REMARK    3  A    between atoms: CA_4  and  C_5
REMARK    4  A    between atoms: CA_4  and  C_7
REMARK    5  A    between atoms: C_5  and  O_6
REMARK    6  A    between atoms: C_16  and  C_17
REMARK    7  A    between atoms: C_17  and  N_18
REMARK    8  A    between atoms: N_18  and  C_19
REMARK    9  A    between atoms: C_19  and  C_20
REMARK                            x       y       z     vdW  Elec       q    Type
REMARK                         _______ _______ _______ _____ _____    ______ ____
ROOT
ATOM      1  C   UNL     1      47.365   6.075  13.335  0.00  0.00    +0.000 A 
ATOM      2  C   UNL     1      46.969   4.918  14.006  0.00  0.00    +0.000 A 
ATOM      3  C   UNL     1      45.975   4.092  13.466  0.00  0.00    +0.000 A 
ATOM      4  C   UNL     1      45.362   4.420  12.246  0.00  0.00    +0.000 A 
ATOM      5  C   UNL     1      45.793   5.563  11.565  0.00  0.00    +0.000 A 
ATOM      6  C   UNL     1      46.786   6.394  12.101  0.00  0.00    +0.000 A 
ENDROOT
BRANCH   1   8
ATOM      7  O   UNL     1      49.557   6.908  13.494  0.00  0.00    +0.000 OA
ATOM      8  C   UNL     1      48.422   6.920  13.951  0.00  0.00    +0.000 C 
ATOM      9  N   UNL     1      48.062   7.659  15.059  0.00  0.00    +0.000 N 
ATOM     10  H   UNL     1      47.172   7.480  15.509  0.00  0.00    +0.000 HD
BRANCH   9  11
ATOM     11  CA  UNL     1      49.063   8.405  15.810  0.00  0.00    +0.000 C 
BRANCH  11  12
ATOM     12  C   UNL     1      48.841   8.312  17.310  0.00  0.00    +0.000 A 
ATOM     13  C   UNL     1      47.805   8.990  17.977  0.00  0.00    +0.000 A 
ATOM     14  C   UNL     1      47.708   8.926  19.356  0.00  0.00    +0.000 A 
ATOM     15  C   UNL     1      48.645   8.179  20.048  0.00  0.00    +0.000 A 
ATOM     16  N   UNL     1      49.650   7.508  19.452  0.00  0.00    +0.000 NA
ATOM     17  C   UNL     1      49.719   7.586  18.108  0.00  0.00    +0.000 A 
ENDBRANCH  11  12
BRANCH  11  18
ATOM     18  C   UNL     1      49.106   9.887  15.362  0.00  0.00    +0.000 C 
BRANCH  18  19
ATOM     19  O   UNL     1      50.398  10.286  14.888  0.00  0.00    +0.000 OA
ATOM     20  H   UNL     1      50.281  10.742  14.038  0.00  0.00    +0.000 HD
ENDBRANCH  18  19
ENDBRANCH  11  18
ENDBRANCH   9  11
ENDBRANCH   1   8
BRANCH   4  21
ATOM     21  C   UNL     1      44.275   3.534  11.668  0.00  0.00    +0.000 C 
BRANCH  21  22
ATOM     22  N   UNL     1      44.846   2.490  10.817  0.00  0.00    +0.000 NA
ATOM     23  H   UNL     1      44.625   1.581  11.224  0.00  0.00    +0.000 HD
BRANCH  22  24
ATOM     24  C   UNL     1      44.325   2.552   9.453  0.00  0.00    +0.000 C 
BRANCH  24  25
ATOM     25  C   UNL     1      45.442   2.598   8.455  0.00  0.00    +0.000 A 
ATOM     26  C   UNL     1      45.749   3.730   7.725  0.00  0.00    +0.000 A 
ATOM     27  N   UNL     1      46.742   3.795   6.816  0.00  0.00    +0.000 NA
ATOM     28  C   UNL     1      47.451   2.668   6.649  0.00  0.00    +0.000 A 
ATOM     29  N   UNL     1      47.261   1.513   7.302  0.00  0.00    +0.000 NA
ATOM     30  C   UNL     1      46.251   1.508   8.196  0.00  0.00    +0.000 A 
ENDBRANCH  24  25
ENDBRANCH  22  24
ENDBRANCH  21  22
ENDBRANCH   4  21
TORSDOF 9
ENDMDL
MODEL 8
REMARK VINA RESULT:    -6.280      2.701      3.588
REMARK INTER + INTRA:         -10.305
REMARK INTER:                  -9.298
REMARK INTRA:                  -1.007
REMARK UNBOUND:                -0.905
REMARK  Name = 
REMARK  9 active torsions:
REMARK  status: ('A' for Active; 'I' for Inactive)
REMARK    1  A    between atoms: C_2  and  C_13
REMARK    2  A    between atoms: N_3  and  CA_4
REMARK    3  A    between atoms: CA_4  and  C_5
REMARK    4  A    between atoms: CA_4  and  C_7
REMARK    5  A    between atoms: C_5  and  O_6
REMARK    6  A    between atoms: C_16  and  C_17
REMARK    7  A    between atoms: C_17  and  N_18
REMARK    8  A    between atoms: N_18  and  C_19
REMARK    9  A    between atoms: C_19  and  C_20
REMARK                            x       y       z     vdW  Elec       q    Type
REMARK                         _______ _______ _______ _____ _____    ______ ____
ROOT
ATOM      1  C   UNL     1      48.422   6.627  14.970  0.00  0.00    +0.000 A 
ATOM      2  C   UNL     1      48.229   7.924  14.491  0.00  0.00    +0.000 A 
ATOM      3  C   UNL     1      47.351   8.161  13.426  0.00  0.00    +0.000 A 
ATOM      4  C   UNL     1      46.657   7.099  12.825  0.00  0.00    +0.000 A 
ATOM      5  C   UNL     1      46.831   5.809  13.338  0.00  0.00    +0.000 A 
ATOM      6  C   UNL     1      47.709   5.565  14.402  0.00  0.00    +0.000 A 
ENDROOT
BRANCH   1   8
ATOM      7  O   UNL     1      50.444   7.008  16.104  0.00  0.00    +0.000 OA
ATOM      8  C   UNL     1      49.367   6.428  16.100  0.00  0.00    +0.000 C 
ATOM      9  N   UNL     1      48.982   5.544  17.086  0.00  0.00    +0.000 N 
ATOM     10  H   UNL     1      48.178   4.947  16.934  0.00  0.00    +0.000 HD
BRANCH   9  11
ATOM     11  CA  UNL     1      49.901   5.181  18.158  0.00  0.00    +0.000 C 
BRANCH  11  12
ATOM     12  C   UNL     1      50.555   3.830  17.919  0.00  0.00    +0.000 A 
ATOM     13  C   UNL     1      51.902   3.564  18.222  0.00  0.00    +0.000 A 
ATOM     14  C   UNL     1      52.456   2.336  17.904  0.00  0.00    +0.000 A 
ATOM     15  C   UNL     1      51.652   1.389  17.293  0.00  0.00    +0.000 A 
ATOM     16  N   UNL     1      50.356   1.598  16.990  0.00  0.00    +0.000 NA
ATOM     17  C   UNL     1      49.842   2.801  17.313  0.00  0.00    +0.000 A 
ENDBRANCH  11  12
BRANCH  11  18
ATOM     18  C   UNL     1      49.189   5.200  19.533  0.00  0.00    +0.000 C 
BRANCH  18  19
ATOM     19  O   UNL     1      47.832   4.745  19.460  0.00  0.00    +0.000 OA
ATOM     20  H   UNL     1      47.835   3.840  19.104  0.00  0.00    +0.000 HD
ENDBRANCH  18  19
ENDBRANCH  11  18
ENDBRANCH   9  11
ENDBRANCH   1   8
BRANCH   4  21
ATOM     21  C   UNL     1      45.717   7.353  11.663  0.00  0.00    +0.000 C 
BRANCH  21  22
ATOM     22  N   UNL     1      44.340   7.520  12.127  0.00  0.00    +0.000 NA
ATOM     23  H   UNL     1      44.108   8.513  12.109  0.00  0.00    +0.000 HD
BRANCH  22  24
ATOM     24  C   UNL     1      43.390   6.783  11.296  0.00  0.00    +0.000 C 
BRANCH  24  25
ATOM     25  C   UNL     1      43.442   5.317  11.595  0.00  0.00    +0.000 A 
ATOM     26  C   UNL     1      43.539   4.353  10.610  0.00  0.00    +0.000 A 
ATOM     27  N   UNL     1      43.579   3.027  10.853  0.00  0.00    +0.000 NA
ATOM     28  C   UNL     1      43.524   2.671  12.145  0.00  0.00    +0.000 A 
ATOM     29  N   UNL     1      43.440   3.508  13.190  0.00  0.00    +0.000 NA
ATOM     30  C   UNL     1      43.400   4.821  12.885  0.00  0.00    +0.000 A 
ENDBRANCH  24  25
ENDBRANCH  22  24
ENDBRANCH  21  22
ENDBRANCH   4  21
TORSDOF 9
ENDMDL
MODEL 9
REMARK VINA RESULT:    -6.192      4.203      5.633
REMARK INTER + INTRA:         -10.173
REMARK INTER:                  -8.999
REMARK INTRA:                  -1.174
REMARK UNBOUND:                -0.905
REMARK  Name = 
REMARK  9 active torsions:
REMARK  status: ('A' for Active; 'I' for Inactive)
REMARK    1  A    between atoms: C_2  and  C_13
REMARK    2  A    between atoms: N_3  and  CA_4
REMARK    3  A    between atoms: CA_4  and  C_5
REMARK    4  A    between atoms: CA_4  and  C_7
REMARK    5  A    between atoms: C_5  and  O_6
REMARK    6  A    between atoms: C_16  and  C_17
REMARK    7  A    between atoms: C_17  and  N_18
REMARK    8  A    between atoms: N_18  and  C_19
REMARK    9  A    between atoms: C_19  and  C_20
REMARK                            x       y       z     vdW  Elec       q    Type
REMARK                         _______ _______ _______ _____ _____    ______ ____
ROOT
ATOM      1  C   UNL     1      46.984   7.461  12.453  0.00  0.00    +0.000 A 
ATOM      2  C   UNL     1      47.455   6.159  12.632  0.00  0.00    +0.000 A 
ATOM      3  C   UNL     1      46.557   5.092  12.755  0.00  0.00    +0.000 A 
ATOM      4  C   UNL     1      45.171   5.318  12.703  0.00  0.00    +0.000 A 
ATOM      5  C   UNL     1      44.712   6.622  12.487  0.00  0.00    +0.000 A 
ATOM      6  C   UNL     1      45.607   7.693  12.364  0.00  0.00    +0.000 A 
ENDROOT
BRANCH   1   8
ATOM      7  O   UNL     1      47.630   9.655  11.914  0.00  0.00    +0.000 OA
ATOM      8  C   UNL     1      47.979   8.559  12.331  0.00  0.00    +0.000 C 
ATOM      9  N   UNL     1      49.283   8.259  12.667  0.00  0.00    +0.000 N 
ATOM     10  H   UNL     1      49.550   7.293  12.814  0.00  0.00    +0.000 HD
BRANCH   9  11
ATOM     11  CA  UNL     1      50.348   9.229  12.447  0.00  0.00    +0.000 C 
BRANCH  11  12
ATOM     12  C   UNL     1      51.172   8.905  11.213  0.00  0.00    +0.000 A 
ATOM     13  C   UNL     1      51.406   7.592  10.768  0.00  0.00    +0.000 A 
ATOM     14  C   UNL     1      52.233   7.363   9.682  0.00  0.00    +0.000 A 
ATOM     15  C   UNL     1      52.810   8.453   9.052  0.00  0.00    +0.000 A 
ATOM     16  N   UNL     1      52.609   9.727   9.439  0.00  0.00    +0.000 NA
ATOM     17  C   UNL     1      51.797   9.922  10.498  0.00  0.00    +0.000 A 
ENDBRANCH  11  12
BRANCH  11  18
ATOM     18  C   UNL     1      51.262   9.344  13.692  0.00  0.00    +0.000 C 
BRANCH  18  19
ATOM     19  O   UNL     1      51.519  10.702  14.068  0.00  0.00    +0.000 OA
ATOM     20  H   UNL     1      50.894  10.944  14.773  0.00  0.00    +0.000 HD
ENDBRANCH  18  19
ENDBRANCH  11  18
ENDBRANCH   9  11
ENDBRANCH   1   8
BRANCH   4  21
ATOM     21  C   UNL     1      44.197   4.166  12.850  0.00  0.00    +0.000 C 
BRANCH  21  22
ATOM     22  N   UNL     1      44.637   3.004  12.077  0.00  0.00    +0.000 NA
ATOM     23  H   UNL     1      44.526   2.169  12.651  0.00  0.00    +0.000 HD
BRANCH  22  24
ATOM     24  C   UNL     1      43.872   2.850  10.840  0.00  0.00    +0.000 C 
BRANCH  24  25
ATOM     25  C   UNL     1      44.735   3.102   9.642  0.00  0.00    +0.000 A 
ATOM     26  C   UNL     1      45.351   2.088   8.934  0.00  0.00    +0.000 A 
ATOM     27  N   UNL     1      46.138   2.288   7.859  0.00  0.00    +0.000 NA
ATOM     28  C   UNL     1      46.300   3.568   7.488  0.00  0.00    +0.000 A 
ATOM     29  N   UNL     1      45.749   4.636   8.082  0.00  0.00    +0.000 NA
ATOM     30  C   UNL     1      44.974   4.373   9.155  0.00  0.00    +0.000 A 
ENDBRANCH  24  25
ENDBRANCH  22  24
ENDBRANCH  21  22
ENDBRANCH   4  21
TORSDOF 9
ENDMDL
