MODEL 1
REMARK VINA RESULT:    -8.350      0.000      0.000
REMARK INTER + INTRA:         -11.935
REMARK INTER:                 -11.279
REMARK INTRA:                  -0.655
REMARK UNBOUND:                -0.655
REMARK  Name = 
REMARK  6 active torsions:
REMARK  status: ('A' for Active; 'I' for Inactive)
REMARK    1  A    between atoms: C_2  and  C_20
REMARK    2  A    between atoms: N_3  and  C_4
REMARK    3  A    between atoms: C_4  and  C_5
REMARK    4  A    between atoms: C_8  and  C_9
REMARK    5  A    between atoms: C_9  and  C_10
REMARK    6  A    between atoms: C_10  and  N_11
REMARK                            x       y       z     vdW  Elec       q    Type
REMARK                         _______ _______ _______ _____ _____    ______ ____
ROOT
ATOM      1  C   UNL     1      47.014   5.900  13.024  0.00  0.00    +0.000 A 
ATOM      2  C   UNL     1      46.806   6.536  11.797  0.00  0.00    +0.000 A 
ATOM      3  C   UNL     1      45.825   6.079  10.915  0.00  0.00    +0.000 A 
ATOM      4  C   UNL     1      45.017   4.981  11.241  0.00  0.00    +0.000 A 
ATOM      5  C   UNL     1      45.220   4.354  12.480  0.00  0.00    +0.000 A 
ATOM      6  C   UNL     1      46.203   4.812  13.364  0.00  0.00    +0.000 A 
ENDROOT
BRANCH   1   7
ATOM      7  C   UNL     1      48.082   6.393  13.956  0.00  0.00    +0.000 C 
BRANCH   7  10
ATOM      8  O   UNL     1      50.013   6.298  15.956  0.00  0.00    +0.000 OA
ATOM      9  C   UNL     1      48.853   6.001  16.241  0.00  0.00    +0.000 C 
ATOM     10  N   UNL     1      47.837   6.004  15.317  0.00  0.00    +0.000 N 
ATOM     11  H   UNL     1      46.911   5.742  15.641  0.00  0.00    +0.000 HD
BRANCH   9  12
ATOM     12  C   UNL     1      48.438   5.633  17.601  0.00  0.00    +0.000 A 
ATOM     13  N   UNL     1      48.220   4.348  17.966  0.00  0.00    +0.000 NA
ATOM     14  N   UNL     1      47.838   4.449  19.259  0.00  0.00    +0.000 N 
ATOM     15  C   UNL     1      47.788   5.728  19.728  0.00  0.00    +0.000 A 
ATOM     16  N   UNL     1      47.417   6.112  20.964  0.00  0.00    +0.000 NA
ATOM     17  C   UNL     1      47.457   7.457  21.124  0.00  0.00    +0.000 A 
ATOM     18  C   UNL     1      47.843   8.380  20.157  0.00  0.00    +0.000 A 
ATOM     19  C   UNL     1      48.223   7.920  18.896  0.00  0.00    +0.000 A 
ATOM     20  C   UNL     1      48.186   6.535  18.676  0.00  0.00    +0.000 A 
ATOM     21  H   UNL     1      47.614   3.610  19.778  0.00  0.00    +0.000 HD
ENDBRANCH   9  12
ENDBRANCH   7  10
ENDBRANCH   1   7
BRANCH   4  22
ATOM     22  C   UNL     1      43.941   4.441  10.317  0.00  0.00    +0.000 C 
BRANCH  22  23
ATOM     23  C   UNL     1      44.345   3.222   9.478  0.00  0.00    +0.000 C 
BRANCH  23  24
ATOM     24  N   UNL     1      44.899   3.624   8.194  0.00  0.00    +0.000 N 
ATOM     25  C   UNL     1      45.941   2.806   7.758  0.00  0.00    +0.000 A 
ATOM     26  N   UNL     1      45.963   1.516   8.090  0.00  0.00    +0.000 NA
ATOM     27  C   UNL     1      47.001   0.826   7.629  0.00  0.00    +0.000 A 
ATOM     28  N   UNL     1      47.991   1.308   6.888  0.00  0.00    +0.000 NA
ATOM     29  C   UNL     1      47.862   2.603   6.619  0.00  0.00    +0.000 A 
ATOM     30  N   UNL     1      46.877   3.401   7.029  0.00  0.00    +0.000 NA
ATOM     31  H   UNL     1      45.249   4.575   8.140  0.00  0.00    +0.000 HD
ENDBRANCH  23  24
ENDBRANCH  22  23
ENDBRANCH   4  22
TORSDOF 6
ENDMDL
MODEL 2
REMARK VINA RESULT:    -8.309      0.813      1.315
REMARK INTER + INTRA:         -11.878
REMARK INTER:                 -11.227
REMARK INTRA:                  -0.651
REMARK UNBOUND:                -0.655
REMARK  Name = 
REMARK  6 active torsions:
REMARK  status: ('A' for Active; 'I' for Inactive)
REMARK    1  A    between atoms: C_2  and  C_20
REMARK    2  A    between atoms: N_3  and  C_4
REMARK    3  A    between atoms: C_4  and  C_5
REMARK    4  A    between atoms: C_8  and  C_9
REMARK    5  A    between atoms: C_9  and  C_10
REMARK    6  A    between atoms: C_10  and  N_11
REMARK                            x       y       z     vdW  Elec       q    Type
REMARK                         _______ _______ _______ _____ _____    ______ ____
ROOT
ATOM      1  C   UNL     1      46.870   6.166  13.169  0.00  0.00    +0.000 A 
ATOM      2  C   UNL     1      46.097   5.068  13.556  0.00  0.00    +0.000 A 
ATOM      3  C   UNL     1      45.161   4.514  12.681  0.00  0.00    +0.000 A 
ATOM      4  C   UNL     1      44.980   5.034  11.393  0.00  0.00    +0.000 A 
ATOM      5  C   UNL     1      45.768   6.128  11.004  0.00  0.00    +0.000 A 
ATOM      6  C   UNL     1      46.707   6.685  11.880  0.00  0.00    +0.000 A 
ENDROOT
BRANCH   1   7
ATOM      7  C   UNL     1      47.862   6.762  14.125  0.00  0.00    +0.000 C 
BRANCH   7  10
ATOM      8  O   UNL     1      50.202   6.535  15.611  0.00  0.00    +0.000 OA
ATOM      9  C   UNL     1      49.200   5.935  15.995  0.00  0.00    +0.000 C 
ATOM     10  N   UNL     1      48.005   5.975  15.319  0.00  0.00    +0.000 N 
ATOM     11  H   UNL     1      47.230   5.447  15.709  0.00  0.00    +0.000 HD
BRANCH   9  12
ATOM     12  C   UNL     1      49.175   5.133  17.225  0.00  0.00    +0.000 A 
ATOM     13  N   UNL     1      49.541   3.830  17.245  0.00  0.00    +0.000 NA
ATOM     14  N   UNL     1      49.352   3.469  18.534  0.00  0.00    +0.000 N 
ATOM     15  C   UNL     1      48.874   4.468  19.329  0.00  0.00    +0.000 A 
ATOM     16  N   UNL     1      48.575   4.374  20.638  0.00  0.00    +0.000 NA
ATOM     17  C   UNL     1      48.105   5.538  21.148  0.00  0.00    +0.000 A 
ATOM     18  C   UNL     1      47.943   6.727  20.446  0.00  0.00    +0.000 A 
ATOM     19  C   UNL     1      48.277   6.765  19.093  0.00  0.00    +0.000 A 
ATOM     20  C   UNL     1      48.756   5.580  18.512  0.00  0.00    +0.000 A 
ATOM     21  H   UNL     1      49.558   2.521  18.820  0.00  0.00    +0.000 HD
ENDBRANCH   9  12
ENDBRANCH   7  10
ENDBRANCH   1   7
BRANCH   4  22
ATOM     22  C   UNL     1      43.974   4.472  10.405  0.00  0.00    +0.000 C 
BRANCH  22  23
ATOM     23  C   UNL     1      44.446   3.249   9.608  0.00  0.00    +0.000 C 
BRANCH  23  24
ATOM     24  N   UNL     1      44.917   3.629   8.285  0.00  0.00    +0.000 N 
ATOM     25  C   UNL     1      45.943   2.816   7.806  0.00  0.00    +0.000 A 
ATOM     26  N   UNL     1      46.005   1.535   8.164  0.00  0.00    +0.000 NA
ATOM     27  C   UNL     1      47.025   0.850   7.657  0.00  0.00    +0.000 A 
ATOM     28  N   UNL     1      47.961   1.329   6.847  0.00  0.00    +0.000 NA
ATOM     29  C   UNL     1      47.796   2.616   6.558  0.00  0.00    +0.000 A 
ATOM     30  N   UNL     1      46.825   3.408   7.009  0.00  0.00    +0.000 NA
ATOM     31  H   UNL     1      45.248   4.584   8.189  0.00  0.00    +0.000 HD
ENDBRANCH  23  24
ENDBRANCH  22  23
ENDBRANCH   4  22
TORSDOF 6
ENDMDL
MODEL 3
REMARK VINA RESULT:    -8.111      1.724      2.315
REMARK INTER + INTRA:         -11.611
REMARK INTER:                 -10.836
REMARK INTRA:                  -0.775
REMARK UNBOUND:                -0.655
REMARK  Name = 
REMARK  6 active torsions:
REMARK  status: ('A' for Active; 'I' for Inactive)
REMARK    1  A    between atoms: C_2  and  C_20
REMARK    2  A    between atoms: N_3  and  C_4
REMARK    3  A    between atoms: C_4  and  C_5
REMARK    4  A    between atoms: C_8  and  C_9
REMARK    5  A    between atoms: C_9  and  C_10
REMARK    6  A    between atoms: C_10  and  N_11
REMARK                            x       y       z     vdW  Elec       q    Type
REMARK                         _______ _______ _______ _____ _____    ______ ____
ROOT
ATOM      1  C   UNL     1      46.148   6.886  12.592  0.00  0.00    +0.000 A 
ATOM      2  C   UNL     1      45.084   7.323  11.798  0.00  0.00    +0.000 A 
ATOM      3  C   UNL     1      44.267   6.405  11.135  0.00  0.00    +0.000 A 
ATOM      4  C   UNL     1      44.484   5.026  11.256  0.00  0.00    +0.000 A 
ATOM      5  C   UNL     1      45.546   4.592  12.064  0.00  0.00    +0.000 A 
ATOM      6  C   UNL     1      46.366   5.510  12.729  0.00  0.00    +0.000 A 
ENDROOT
BRANCH   1   7
ATOM      7  C   UNL     1      47.028   7.884  13.286  0.00  0.00    +0.000 C 
BRANCH   7  10
ATOM      8  O   UNL     1      49.593   6.909  13.742  0.00  0.00    +0.000 OA
ATOM      9  C   UNL     1      48.801   6.945  14.682  0.00  0.00    +0.000 C 
ATOM     10  N   UNL     1      47.510   7.395  14.549  0.00  0.00    +0.000 N 
ATOM     11  H   UNL     1      46.925   7.387  15.379  0.00  0.00    +0.000 HD
BRANCH   9  12
ATOM     12  C   UNL     1      49.163   6.530  16.043  0.00  0.00    +0.000 A 
ATOM     13  N   UNL     1      50.034   7.233  16.805  0.00  0.00    +0.000 NA
ATOM     14  N   UNL     1      50.106   6.512  17.947  0.00  0.00    +0.000 N 
ATOM     15  C   UNL     1      49.339   5.385  17.945  0.00  0.00    +0.000 A 
ATOM     16  N   UNL     1      49.245   4.481  18.938  0.00  0.00    +0.000 NA
ATOM     17  C   UNL     1      48.410   3.459  18.632  0.00  0.00    +0.000 A 
ATOM     18  C   UNL     1      47.696   3.319  17.446  0.00  0.00    +0.000 A 
ATOM     19  C   UNL     1      47.829   4.293  16.457  0.00  0.00    +0.000 A 
ATOM     20  C   UNL     1      48.695   5.366  16.720  0.00  0.00    +0.000 A 
ATOM     21  H   UNL     1      50.703   6.831  18.699  0.00  0.00    +0.000 HD
ENDBRANCH   9  12
ENDBRANCH   7  10
ENDBRANCH   1   7
BRANCH   4  22
ATOM     22  C   UNL     1      43.630   3.987  10.553  0.00  0.00    +0.000 C 
BRANCH  22  23
ATOM     23  C   UNL     1      44.404   2.927   9.758  0.00  0.00    +0.000 C 
BRANCH  23  24
ATOM     24  N   UNL     1      44.883   3.461   8.492  0.00  0.00    +0.000 N 
ATOM     25  C   UNL     1      45.928   2.722   7.938  0.00  0.00    +0.000 A 
ATOM     26  N   UNL     1      46.006   1.410   8.151  0.00  0.00    +0.000 NA
ATOM     27  C   UNL     1      47.043   0.801   7.583  0.00  0.00    +0.000 A 
ATOM     28  N   UNL     1      47.980   1.382   6.844  0.00  0.00    +0.000 NA
ATOM     29  C   UNL     1      47.798   2.690   6.699  0.00  0.00    +0.000 A 
ATOM     30  N   UNL     1      46.809   3.413   7.224  0.00  0.00    +0.000 NA
ATOM     31  H   UNL     1      45.200   4.425   8.508  0.00  0.00    +0.000 HD
ENDBRANCH  23  24
ENDBRANCH  22  23
ENDBRANCH   4  22
TORSDOF 6
ENDMDL
MODEL 4
REMARK VINA RESULT:    -7.936      2.500      9.487
REMARK INTER + INTRA:         -11.375
REMARK INTER:                 -10.625
REMARK INTRA:                  -0.750
REMARK UNBOUND:                -0.655
REMARK  Name = 
REMARK  6 active torsions:
REMARK  status: ('A' for Active; 'I' for Inactive)
REMARK    1  A    between atoms: C_2  and  C_20
REMARK    2  A    between atoms: N_3  and  C_4
REMARK    3  A    between atoms: C_4  and  C_5
REMARK    4  A    between atoms: C_8  and  C_9
REMARK    5  A    between atoms: C_9  and  C_10
REMARK    6  A    between atoms: C_10  and  N_11
REMARK                            x       y       z     vdW  Elec       q    Type
REMARK                         _______ _______ _______ _____ _____    ______ ____
ROOT
ATOM      1  C   UNL     1      46.189   7.314  12.229  0.00  0.00    +0.000 A 
ATOM      2  C   UNL     1      46.119   8.511  12.948  0.00  0.00    +0.000 A 
ATOM      3  C   UNL     1      47.117   8.851  13.864  0.00  0.00    +0.000 A 
ATOM      4  C   UNL     1      48.216   8.010  14.078  0.00  0.00    +0.000 A 
ATOM      5  C   UNL     1      48.289   6.815  13.345  0.00  0.00    +0.000 A 
ATOM      6  C   UNL     1      47.290   6.474  12.427  0.00  0.00    +0.000 A 
ENDROOT
BRANCH   1   7
ATOM      7  C   UNL     1      45.102   6.954  11.259  0.00  0.00    +0.000 C 
BRANCH   7  10
ATOM      8  O   UNL     1      43.044   5.277  10.430  0.00  0.00    +0.000 OA
ATOM      9  C   UNL     1      44.206   4.890  10.307  0.00  0.00    +0.000 C 
ATOM     10  N   UNL     1      45.285   5.642  10.702  0.00  0.00    +0.000 N 
ATOM     11  H   UNL     1      46.208   5.242  10.565  0.00  0.00    +0.000 HD
BRANCH   9  12
ATOM     12  C   UNL     1      44.554   3.596   9.707  0.00  0.00    +0.000 A 
ATOM     13  N   UNL     1      44.005   2.433  10.131  0.00  0.00    +0.000 NA
ATOM     14  N   UNL     1      44.601   1.502   9.353  0.00  0.00    +0.000 N 
ATOM     15  C   UNL     1      45.506   2.009   8.469  0.00  0.00    +0.000 A 
ATOM     16  N   UNL     1      46.255   1.305   7.599  0.00  0.00    +0.000 NA
ATOM     17  C   UNL     1      47.073   2.094   6.862  0.00  0.00    +0.000 A 
ATOM     18  C   UNL     1      47.160   3.480   6.946  0.00  0.00    +0.000 A 
ATOM     19  C   UNL     1      46.353   4.154   7.862  0.00  0.00    +0.000 A 
ATOM     20  C   UNL     1      45.496   3.380   8.660  0.00  0.00    +0.000 A 
ATOM     21  H   UNL     1      44.359   0.527   9.471  0.00  0.00    +0.000 HD
ENDBRANCH   9  12
ENDBRANCH   7  10
ENDBRANCH   1   7
BRANCH   4  22
ATOM     22  C   UNL     1      49.325   8.329  15.065  0.00  0.00    +0.000 C 
BRANCH  22  23
ATOM     23  C   UNL     1      50.145   7.124  15.545  0.00  0.00    +0.000 C 
BRANCH  23  24
ATOM     24  N   UNL     1      49.871   6.819  16.940  0.00  0.00    +0.000 N 
ATOM     25  C   UNL     1      48.861   5.873  17.113  0.00  0.00    +0.000 A 
ATOM     26  N   UNL     1      48.671   4.922  16.200  0.00  0.00    +0.000 NA
ATOM     27  C   UNL     1      47.680   4.074  16.458  0.00  0.00    +0.000 A 
ATOM     28  N   UNL     1      46.887   4.102  17.521  0.00  0.00    +0.000 NA
ATOM     29  C   UNL     1      47.171   5.091  18.363  0.00  0.00    +0.000 A 
ATOM     30  N   UNL     1      48.128   6.005  18.212  0.00  0.00    +0.000 NA
ATOM     31  H   UNL     1      49.618   7.609  17.526  0.00  0.00    +0.000 HD
ENDBRANCH  23  24
ENDBRANCH  22  23
ENDBRANCH   4  22
TORSDOF 6
ENDMDL
MODEL 5
REMARK VINA RESULT:    -7.576      1.475      2.216
REMARK INTER + INTRA:         -10.889
REMARK INTER:                 -10.073
REMARK INTRA:                  -0.817
REMARK UNBOUND:                -0.655
REMARK  Name = 
REMARK  6 active torsions:
REMARK  status: ('A' for Active; 'I' for Inactive)
REMARK    1  A    between atoms: C_2  and  C_20
REMARK    2  A    between atoms: N_3  and  C_4
REMARK    3  A    between atoms: C_4  and  C_5
REMARK    4  A    between atoms: C_8  and  C_9
REMARK    5  A    between atoms: C_9  and  C_10
REMARK    6  A    between atoms: C_10  and  N_11
REMARK                            x       y       z     vdW  Elec       q    Type
REMARK                         _______ _______ _______ _____ _____    ______ ____
ROOT
ATOM      1  C   UNL     1      47.250   6.051  12.734  0.00  0.00    +0.000 A 
ATOM      2  C   UNL     1      46.700   4.951  13.399  0.00  0.00    +0.000 A 
ATOM      3  C   UNL     1      45.586   4.290  12.879  0.00  0.00    +0.000 A 
ATOM      4  C   UNL     1      44.998   4.701  11.676  0.00  0.00    +0.000 A 
ATOM      5  C   UNL     1      45.562   5.798  11.005  0.00  0.00    +0.000 A 
ATOM      6  C   UNL     1      46.678   6.462  11.525  0.00  0.00    +0.000 A 
ENDROOT
BRANCH   1   7
ATOM      7  C   UNL     1      48.438   6.763  13.313  0.00  0.00    +0.000 C 
BRANCH   7  10
ATOM      8  O   UNL     1      50.053   6.529  15.565  0.00  0.00    +0.000 OA
ATOM      9  C   UNL     1      49.017   7.187  15.648  0.00  0.00    +0.000 C 
ATOM     10  N   UNL     1      48.150   7.346  14.594  0.00  0.00    +0.000 N 
ATOM     11  H   UNL     1      47.318   7.904  14.755  0.00  0.00    +0.000 HD
BRANCH   9  12
ATOM     12  C   UNL     1      48.615   7.885  16.876  0.00  0.00    +0.000 A 
ATOM     13  N   UNL     1      48.574   9.236  16.958  0.00  0.00    +0.000 NA
ATOM     14  N   UNL     1      48.188   9.462  18.234  0.00  0.00    +0.000 N 
ATOM     15  C   UNL     1      47.997   8.330  18.968  0.00  0.00    +0.000 A 
ATOM     16  N   UNL     1      47.637   8.269  20.265  0.00  0.00    +0.000 NA
ATOM     17  C   UNL     1      47.541   6.995  20.717  0.00  0.00    +0.000 A 
ATOM     18  C   UNL     1      47.764   5.846  19.966  0.00  0.00    +0.000 A 
ATOM     19  C   UNL     1      48.126   5.973  18.625  0.00  0.00    +0.000 A 
ATOM     20  C   UNL     1      48.254   7.273  18.112  0.00  0.00    +0.000 A 
ATOM     21  H   UNL     1      48.077  10.414  18.559  0.00  0.00    +0.000 HD
ENDBRANCH   9  12
ENDBRANCH   7  10
ENDBRANCH   1   7
BRANCH   4  22
ATOM     22  C   UNL     1      43.785   4.021  11.070  0.00  0.00    +0.000 C 
BRANCH  22  23
ATOM     23  C   UNL     1      44.004   3.395   9.686  0.00  0.00    +0.000 C 
BRANCH  23  24
ATOM     24  N   UNL     1      44.967   2.305   9.745  0.00  0.00    +0.000 N 
ATOM     25  C   UNL     1      45.830   2.268   8.650  0.00  0.00    +0.000 A 
ATOM     26  N   UNL     1      46.175   3.395   8.031  0.00  0.00    +0.000 NA
ATOM     27  C   UNL     1      46.997   3.249   6.997  0.00  0.00    +0.000 A 
ATOM     28  N   UNL     1      47.485   2.101   6.545  0.00  0.00    +0.000 NA
ATOM     29  C   UNL     1      47.074   1.046   7.240  0.00  0.00    +0.000 A 
ATOM     30  N   UNL     1      46.248   1.062   8.285  0.00  0.00    +0.000 NA
ATOM     31  H   UNL     1      44.576   1.372   9.826  0.00  0.00    +0.000 HD
ENDBRANCH  23  24
ENDBRANCH  22  23
ENDBRANCH   4  22
TORSDOF 6
ENDMDL
MODEL 6
REMARK VINA RESULT:    -7.293      3.773      6.191
REMARK INTER + INTRA:         -10.506
REMARK INTER:                  -9.798
REMARK INTRA:                  -0.709
REMARK UNBOUND:                -0.655
REMARK  Name = 
REMARK  6 active torsions:
REMARK  status: ('A' for Active; 'I' for Inactive)
REMARK    1  A    between atoms: C_2  and  C_20
REMARK    2  A    between atoms: N_3  and  C_4
REMARK    3  A    between atoms: C_4  and  C_5
REMARK    4  A    between atoms: C_8  and  C_9
REMARK    5  A    between atoms: C_9  and  C_10
REMARK    6  A    between atoms: C_10  and  N_11
REMARK                            x       y       z     vdW  Elec       q    Type
REMARK                         _______ _______ _______ _____ _____    ______ ____
ROOT
ATOM      1  C   UNL     1      47.073   6.110  12.926  0.00  0.00    +0.000 A 
ATOM      2  C   UNL     1      46.557   4.923  13.456  0.00  0.00    +0.000 A 
ATOM      3  C   UNL     1      45.571   4.209  12.773  0.00  0.00    +0.000 A 
ATOM      4  C   UNL     1      45.082   4.653  11.538  0.00  0.00    +0.000 A 
ATOM      5  C   UNL     1      45.611   5.838  11.004  0.00  0.00    +0.000 A 
ATOM      6  C   UNL     1      46.600   6.555  11.687  0.00  0.00    +0.000 A 
ENDROOT
BRANCH   1   7
ATOM      7  C   UNL     1      48.121   6.876  13.678  0.00  0.00    +0.000 C 
BRANCH   7  10
ATOM      8  O   UNL     1      50.521   8.096  14.380  0.00  0.00    +0.000 OA
ATOM      9  C   UNL     1      50.078   8.275  13.246  0.00  0.00    +0.000 C 
ATOM     10  N   UNL     1      48.894   7.727  12.815  0.00  0.00    +0.000 N 
ATOM     11  H   UNL     1      48.605   7.930  11.863  0.00  0.00    +0.000 HD
BRANCH   9  12
ATOM     12  C   UNL     1      50.780   9.076  12.235  0.00  0.00    +0.000 A 
ATOM     13  N   UNL     1      50.837  10.427  12.296  0.00  0.00    +0.000 NA
ATOM     14  N   UNL     1      51.537  10.763  11.189  0.00  0.00    +0.000 N 
ATOM     15  C   UNL     1      51.915   9.700  10.424  0.00  0.00    +0.000 A 
ATOM     16  N   UNL     1      52.596   9.752   9.263  0.00  0.00    +0.000 NA
ATOM     17  C   UNL     1      52.810   8.525   8.731  0.00  0.00    +0.000 A 
ATOM     18  C   UNL     1      52.405   7.315   9.286  0.00  0.00    +0.000 A 
ATOM     19  C   UNL     1      51.709   7.325  10.495  0.00  0.00    +0.000 A 
ATOM     20  C   UNL     1      51.450   8.574  11.081  0.00  0.00    +0.000 A 
ATOM     21  H   UNL     1      51.724  11.738  10.996  0.00  0.00    +0.000 HD
ENDBRANCH   9  12
ENDBRANCH   7  10
ENDBRANCH   1   7
BRANCH   4  22
ATOM     22  C   UNL     1      44.008   3.918  10.758  0.00  0.00    +0.000 C 
BRANCH  22  23
ATOM     23  C   UNL     1      44.512   2.788   9.849  0.00  0.00    +0.000 C 
BRANCH  23  24
ATOM     24  N   UNL     1      44.878   3.291   8.534  0.00  0.00    +0.000 N 
ATOM     25  C   UNL     1      45.933   2.594   7.947  0.00  0.00    +0.000 A 
ATOM     26  N   UNL     1      46.110   1.301   8.211  0.00  0.00    +0.000 NA
ATOM     27  C   UNL     1      47.148   0.732   7.605  0.00  0.00    +0.000 A 
ATOM     28  N   UNL     1      47.998   1.336   6.784  0.00  0.00    +0.000 NA
ATOM     29  C   UNL     1      47.722   2.622   6.595  0.00  0.00    +0.000 A 
ATOM     30  N   UNL     1      46.722   3.304   7.149  0.00  0.00    +0.000 NA
ATOM     31  H   UNL     1      45.131   4.273   8.489  0.00  0.00    +0.000 HD
ENDBRANCH  23  24
ENDBRANCH  22  23
ENDBRANCH   4  22
TORSDOF 6
ENDMDL
MODEL 7
REMARK VINA RESULT:    -7.206      2.814      4.306
REMARK INTER + INTRA:         -10.389
REMARK INTER:                  -9.870
REMARK INTRA:                  -0.518
REMARK UNBOUND:                -0.655
REMARK  Name = 
REMARK  6 active torsions:
REMARK  status: ('A' for Active; 'I' for Inactive)
REMARK    1  A    between atoms: C_2  and  C_20
REMARK    2  A    between atoms: N_3  and  C_4
REMARK    3  A    between atoms: C_4  and  C_5
REMARK    4  A    between atoms: C_8  and  C_9
REMARK    5  A    between atoms: C_9  and  C_10
REMARK    6  A    between atoms: C_10  and  N_11
REMARK                            x       y       z     vdW  Elec       q    Type
REMARK                         _______ _______ _______ _____ _____    ______ ____
ROOT
ATOM      1  C   UNL     1      46.594   5.227  13.415  0.00  0.00    +0.000 A 
ATOM      2  C   UNL     1      46.050   3.956  13.209  0.00  0.00    +0.000 A 
ATOM      3  C   UNL     1      45.168   3.722  12.153  0.00  0.00    +0.000 A 
ATOM      4  C   UNL     1      44.815   4.748  11.266  0.00  0.00    +0.000 A 
ATOM      5  C   UNL     1      45.374   6.019  11.468  0.00  0.00    +0.000 A 
ATOM      6  C   UNL     1      46.258   6.255  12.527  0.00  0.00    +0.000 A 
ENDROOT
BRANCH   1   7
ATOM      7  C   UNL     1      47.529   5.469  14.564  0.00  0.00    +0.000 C 
BRANCH   7  10
ATOM      8  O   UNL     1      49.982   6.502  15.373  0.00  0.00    +0.000 OA
ATOM      9  C   UNL     1      49.061   7.284  15.138  0.00  0.00    +0.000 C 
ATOM     10  N   UNL     1      47.812   6.866  14.748  0.00  0.00    +0.000 N 
ATOM     11  H   UNL     1      47.113   7.581  14.578  0.00  0.00    +0.000 HD
BRANCH   9  12
ATOM     12  C   UNL     1      49.213   8.741  15.230  0.00  0.00    +0.000 A 
ATOM     13  N   UNL     1      49.640   9.352  16.360  0.00  0.00    +0.000 NA
ATOM     14  N   UNL     1      49.614  10.665  16.038  0.00  0.00    +0.000 N 
ATOM     15  C   UNL     1      49.181  10.920  14.771  0.00  0.00    +0.000 A 
ATOM     16  N   UNL     1      49.036  12.133  14.205  0.00  0.00    +0.000 NA
ATOM     17  C   UNL     1      48.571  12.060  12.934  0.00  0.00    +0.000 A 
ATOM     18  C   UNL     1      48.275  10.890  12.241  0.00  0.00    +0.000 A 
ATOM     19  C   UNL     1      48.453   9.663  12.879  0.00  0.00    +0.000 A 
ATOM     20  C   UNL     1      48.919   9.685  14.203  0.00  0.00    +0.000 A 
ATOM     21  H   UNL     1      49.896  11.352  16.725  0.00  0.00    +0.000 HD
ENDBRANCH   9  12
ENDBRANCH   7  10
ENDBRANCH   1   7
BRANCH   4  22
ATOM     22  C   UNL     1      43.858   4.548  10.105  0.00  0.00    +0.000 C 
BRANCH  22  23
ATOM     23  C   UNL     1      44.459   3.869   8.867  0.00  0.00    +0.000 C 
BRANCH  23  24
ATOM     24  N   UNL     1      45.089   2.604   9.210  0.00  0.00    +0.000 N 
ATOM     25  C   UNL     1      46.055   2.197   8.291  0.00  0.00    +0.000 A 
ATOM     26  N   UNL     1      46.762   3.103   7.619  0.00  0.00    +0.000 NA
ATOM     27  C   UNL     1      47.653   2.610   6.764  0.00  0.00    +0.000 A 
ATOM     28  N   UNL     1      47.884   1.324   6.533  0.00  0.00    +0.000 NA
ATOM     29  C   UNL     1      47.122   0.515   7.260  0.00  0.00    +0.000 A 
ATOM     30  N   UNL     1      46.192   0.885   8.140  0.00  0.00    +0.000 NA
ATOM     31  H   UNL     1      44.462   1.813   9.326  0.00  0.00    +0.000 HD
ENDBRANCH  23  24
ENDBRANCH  22  23
ENDBRANCH   4  22
TORSDOF 6
ENDMDL
MODEL 8
REMARK VINA RESULT:    -7.061      4.417      8.593
REMARK INTER + INTRA:         -10.194
REMARK INTER:                  -9.105
REMARK INTRA:                  -1.089
REMARK UNBOUND:                -0.655
REMARK  Name = 
REMARK  6 active torsions:
REMARK  status: ('A' for Active; 'I' for Inactive)
REMARK    1  A    between atoms: C_2  and  C_20
REMARK    2  A    between atoms: N_3  and  C_4
REMARK    3  A    between atoms: C_4  and  C_5
REMARK    4  A    between atoms: C_8  and  C_9
REMARK    5  A    between atoms: C_9  and  C_10
REMARK    6  A    between atoms: C_10  and  N_11
REMARK                            x       y       z     vdW  Elec       q    Type
REMARK                         _______ _______ _______ _____ _____    ______ ____
ROOT
ATOM      1  C   UNL     1      47.494   7.525  13.059  0.00  0.00    +0.000 A 
ATOM      2  C   UNL     1      46.560   8.543  13.272  0.00  0.00    +0.000 A 
ATOM      3  C   UNL     1      46.701   9.782  12.643  0.00  0.00    +0.000 A 
ATOM      4  C   UNL     1      47.771  10.033  11.775  0.00  0.00    +0.000 A 
ATOM      5  C   UNL     1      48.700   9.004  11.554  0.00  0.00    +0.000 A 
ATOM      6  C   UNL     1      48.560   7.762  12.184  0.00  0.00    +0.000 A 
ENDROOT
BRANCH   1   7
ATOM      7  C   UNL     1      47.340   6.204  13.754  0.00  0.00    +0.000 C 
BRANCH   7  10
ATOM      8  O   UNL     1      44.598   5.748  13.639  0.00  0.00    +0.000 OA
ATOM      9  C   UNL     1      45.338   5.079  12.919  0.00  0.00    +0.000 C 
ATOM     10  N   UNL     1      46.704   5.223  12.918  0.00  0.00    +0.000 N 
ATOM     11  H   UNL     1      47.236   4.627  12.293  0.00  0.00    +0.000 HD
BRANCH   9  12
ATOM     12  C   UNL     1      44.833   4.075  11.974  0.00  0.00    +0.000 A 
ATOM     13  N   UNL     1      44.135   2.988  12.380  0.00  0.00    +0.000 NA
ATOM     14  N   UNL     1      43.887   2.324  11.228  0.00  0.00    +0.000 N 
ATOM     15  C   UNL     1      44.401   2.924  10.117  0.00  0.00    +0.000 A 
ATOM     16  N   UNL     1      44.322   2.467   8.853  0.00  0.00    +0.000 NA
ATOM     17  C   UNL     1      44.944   3.281   7.967  0.00  0.00    +0.000 A 
ATOM     18  C   UNL     1      45.594   4.472   8.273  0.00  0.00    +0.000 A 
ATOM     19  C   UNL     1      45.636   4.898   9.601  0.00  0.00    +0.000 A 
ATOM     20  C   UNL     1      45.018   4.082  10.560  0.00  0.00    +0.000 A 
ATOM     21  H   UNL     1      43.367   1.458  11.256  0.00  0.00    +0.000 HD
ENDBRANCH   9  12
ENDBRANCH   7  10
ENDBRANCH   1   7
BRANCH   4  22
ATOM     22  C   UNL     1      47.973  11.362  11.070  0.00  0.00    +0.000 C 
BRANCH  22  23
ATOM     23  C   UNL     1      46.812  12.357  11.197  0.00  0.00    +0.000 C 
BRANCH  23  24
ATOM     24  N   UNL     1      45.969  12.341  10.011  0.00  0.00    +0.000 N 
ATOM     25  C   UNL     1      44.721  11.758  10.225  0.00  0.00    +0.000 A 
ATOM     26  N   UNL     1      44.142  11.835  11.422  0.00  0.00    +0.000 NA
ATOM     27  C   UNL     1      42.957  11.241  11.521  0.00  0.00    +0.000 A 
ATOM     28  N   UNL     1      42.325  10.594  10.550  0.00  0.00    +0.000 NA
ATOM     29  C   UNL     1      42.997  10.583   9.403  0.00  0.00    +0.000 A 
ATOM     30  N   UNL     1      44.190  11.131   9.182  0.00  0.00    +0.000 NA
ATOM     31  H   UNL     1      46.359  11.879   9.196  0.00  0.00    +0.000 HD
ENDBRANCH  23  24
ENDBRANCH  22  23
ENDBRANCH   4  22
TORSDOF 6
ENDMDL
MODEL 9
REMARK VINA RESULT:    -7.023      3.971      5.607
REMARK INTER + INTRA:         -10.142
REMARK INTER:                  -9.424
REMARK INTRA:                  -0.717
REMARK UNBOUND:                -0.655
REMARK  Name = 
REMARK  6 active torsions:
REMARK  status: ('A' for Active; 'I' for Inactive)
REMARK    1  A    between atoms: C_2  and  C_20
REMARK    2  A    between atoms: N_3  and  C_4
REMARK    3  A    between atoms: C_4  and  C_5
REMARK    4  A    between atoms: C_8  and  C_9
REMARK    5  A    between atoms: C_9  and  C_10
REMARK    6  A    between atoms: C_10  and  N_11
REMARK                            x       y       z     vdW  Elec       q    Type
REMARK                         _______ _______ _______ _____ _____    ______ ____
ROOT
ATOM      1  C   UNL     1      47.688   4.351  15.885  0.00  0.00    +0.000 A 
ATOM      2  C   UNL     1      47.060   3.756  14.787  0.00  0.00    +0.000 A 
ATOM      3  C   UNL     1      46.885   4.466  13.597  0.00  0.00    +0.000 A 
ATOM      4  C   UNL     1      47.342   5.784  13.469  0.00  0.00    +0.000 A 
ATOM      5  C   UNL     1      47.985   6.372  14.569  0.00  0.00    +0.000 A 
ATOM      6  C   UNL     1      48.161   5.662  15.762  0.00  0.00    +0.000 A 
ENDROOT
BRANCH   1   7
ATOM      7  C   UNL     1      47.856   3.582  17.163  0.00  0.00    +0.000 C 
BRANCH   7  10
ATOM      8  O   UNL     1      49.895   1.914  16.268  0.00  0.00    +0.000 OA
ATOM      9  C   UNL     1      50.156   2.756  17.127  0.00  0.00    +0.000 C 
ATOM     10  N   UNL     1      49.211   3.612  17.640  0.00  0.00    +0.000 N 
ATOM     11  H   UNL     1      49.516   4.273  18.347  0.00  0.00    +0.000 HD
BRANCH   9  12
ATOM     12  C   UNL     1      51.506   2.943  17.673  0.00  0.00    +0.000 A 
ATOM     13  N   UNL     1      51.986   4.163  18.010  0.00  0.00    +0.000 NA
ATOM     14  N   UNL     1      53.242   3.901  18.437  0.00  0.00    +0.000 N 
ATOM     15  C   UNL     1      53.588   2.584  18.376  0.00  0.00    +0.000 A 
ATOM     16  N   UNL     1      54.779   2.054  18.714  0.00  0.00    +0.000 NA
ATOM     17  C   UNL     1      54.821   0.712  18.528  0.00  0.00    +0.000 A 
ATOM     18  C   UNL     1      53.778  -0.078  18.058  0.00  0.00    +0.000 A 
ATOM     19  C   UNL     1      52.565   0.528  17.731  0.00  0.00    +0.000 A 
ATOM     20  C   UNL     1      52.474   1.920  17.892  0.00  0.00    +0.000 A 
ATOM     21  H   UNL     1      53.828   4.661  18.754  0.00  0.00    +0.000 HD
ENDBRANCH   9  12
ENDBRANCH   7  10
ENDBRANCH   1   7
BRANCH   4  22
ATOM     22  C   UNL     1      47.173   6.601  12.201  0.00  0.00    +0.000 C 
BRANCH  22  23
ATOM     23  C   UNL     1      45.729   6.984  11.853  0.00  0.00    +0.000 C 
BRANCH  23  24
ATOM     24  N   UNL     1      45.290   6.337  10.626  0.00  0.00    +0.000 N 
ATOM     25  C   UNL     1      44.614   5.137  10.842  0.00  0.00    +0.000 A 
ATOM     26  N   UNL     1      43.896   4.964  11.950  0.00  0.00    +0.000 NA
ATOM     27  C   UNL     1      43.296   3.782  12.061  0.00  0.00    +0.000 A 
ATOM     28  N   UNL     1      43.358   2.791  11.181  0.00  0.00    +0.000 NA
ATOM     29  C   UNL     1      44.100   3.078  10.117  0.00  0.00    +0.000 A 
ATOM     30  N   UNL     1      44.756   4.216   9.896  0.00  0.00    +0.000 NA
ATOM     31  H   UNL     1      46.018   6.131   9.948  0.00  0.00    +0.000 HD
ENDBRANCH  23  24
ENDBRANCH  22  23
ENDBRANCH   4  22
TORSDOF 6
ENDMDL
