MODEL 1
REMARK VINA RESULT:    -8.562      0.000      0.000
REMARK INTER + INTRA:         -12.621
REMARK INTER:                 -11.565
REMARK INTRA:                  -1.056
REMARK UNBOUND:                -1.056
REMARK  Name = 
REMARK  8 active torsions:
REMARK  status: ('A' for Active; 'I' for Inactive)
REMARK    1  A    between atoms: C_1  and  C_2
REMARK    2  A    between atoms: C_2  and  N_3
REMARK    3  A    between atoms: C_2  and  C_25
REMARK    4  A    between atoms: N_3  and  C_4
REMARK    5  A    between atoms: C_7  and  C_8
REMARK    6  A    between atoms: C_8  and  C_9
REMARK    7  A    between atoms: C_8  and  N_10
REMARK    8  A    between atoms: C_11  and  C_13
REMARK                            x       y       z     vdW  Elec       q    Type
REMARK                         _______ _______ _______ _____ _____    ______ ____
ROOT
ATOM      1  C   UNL     1      46.776   8.021  12.875  0.00  0.00    +0.000 C 
ATOM      2  C   UNL     1      45.872   9.219  13.211  0.00  0.00    +0.000 C 
ENDROOT
BRANCH   1   6
ATOM      3  C   UNL     1      44.717   5.301  10.213  0.00  0.00    +0.000 A 
ATOM      4  C   UNL     1      44.080   5.754  11.368  0.00  0.00    +0.000 A 
ATOM      5  C   UNL     1      44.715   6.675  12.222  0.00  0.00    +0.000 A 
ATOM      6  C   UNL     1      46.025   7.049  11.958  0.00  0.00    +0.000 A 
ATOM      7  N   UNL     1      46.701   6.543  10.899  0.00  0.00    +0.000 NA
ATOM      8  C   UNL     1      46.046   5.690  10.079  0.00  0.00    +0.000 A 
BRANCH   3   9
ATOM      9  N   UNL     1      44.051   4.442   9.328  0.00  0.00    +0.000 N 
ATOM     10  H   UNL     1      43.047   4.618   9.388  0.00  0.00    +0.000 HD
BRANCH   9  12
ATOM     11  C   UNL     1      44.869   2.579  10.797  0.00  0.00    +0.000 C 
ATOM     12  C   UNL     1      44.304   2.981   9.428  0.00  0.00    +0.000 C 
BRANCH  12  13
ATOM     13  C   UNL     1      45.311   2.597   8.353  0.00  0.00    +0.000 A 
ATOM     14  C   UNL     1      45.619   3.470   7.298  0.00  0.00    +0.000 A 
ATOM     15  C   UNL     1      46.631   3.143   6.390  0.00  0.00    +0.000 A 
ATOM     16  C   UNL     1      47.338   1.949   6.526  0.00  0.00    +0.000 A 
ATOM     17  C   UNL     1      46.999   1.051   7.534  0.00  0.00    +0.000 A 
ATOM     18  C   UNL     1      45.978   1.362   8.427  0.00  0.00    +0.000 A 
ENDBRANCH  12  13
ENDBRANCH   9  12
ENDBRANCH   3   9
ENDBRANCH   1   6
BRANCH   1  19
ATOM     19  N   UNL     1      47.237   7.384  14.103  0.00  0.00    +0.000 N 
ATOM     20  C   UNL     1      48.480   6.837  14.261  0.00  0.00    +0.000 C 
ATOM     21  O   UNL     1      49.329   6.828  13.372  0.00  0.00    +0.000 OA
ATOM     22  H   UNL     1      46.497   7.049  14.712  0.00  0.00    +0.000 HD
BRANCH  20  23
ATOM     23  C   UNL     1      48.773   6.306  15.608  0.00  0.00    +0.000 A 
ATOM     24  C   UNL     1      49.709   6.932  16.421  0.00  0.00    +0.000 A 
ATOM     25  S   UNL     1      49.909   6.172  17.936  0.00  0.00    +0.000 S 
ATOM     26  C   UNL     1      48.777   4.964  17.545  0.00  0.00    +0.000 A 
ATOM     27  N   UNL     1      48.504   3.946  18.404  0.00  0.00    +0.000 NA
ATOM     28  C   UNL     1      47.648   3.087  17.956  0.00  0.00    +0.000 A 
ATOM     29  N   UNL     1      47.029   3.159  16.742  0.00  0.00    +0.000 N 
ATOM     30  C   UNL     1      47.215   4.205  15.868  0.00  0.00    +0.000 A 
ATOM     31  O   UNL     1      46.554   4.299  14.849  0.00  0.00    +0.000 OA
ATOM     32  C   UNL     1      48.217   5.163  16.296  0.00  0.00    +0.000 A 
ATOM     33  H   UNL     1      46.340   2.474  16.462  0.00  0.00    +0.000 HD
ENDBRANCH  20  23
ENDBRANCH   1  19
TORSDOF 6
ENDMDL
MODEL 2
REMARK VINA RESULT:    -7.776      2.064      2.624
REMARK INTER + INTRA:         -11.560
REMARK INTER:                 -11.363
REMARK INTRA:                  -0.196
REMARK UNBOUND:                -1.056
REMARK  Name = 
REMARK  8 active torsions:
REMARK  status: ('A' for Active; 'I' for Inactive)
REMARK    1  A    between atoms: C_1  and  C_2
REMARK    2  A    between atoms: C_2  and  N_3
REMARK    3  A    between atoms: C_2  and  C_25
REMARK    4  A    between atoms: N_3  and  C_4
REMARK    5  A    between atoms: C_7  and  C_8
REMARK    6  A    between atoms: C_8  and  C_9
REMARK    7  A    between atoms: C_8  and  N_10
REMARK    8  A    between atoms: C_11  and  C_13
REMARK                            x       y       z     vdW  Elec       q    Type
REMARK                         _______ _______ _______ _____ _____    ______ ____
ROOT
ATOM      1  C   UNL     1      48.620   6.536  13.933  0.00  0.00    +0.000 C 
ATOM      2  C   UNL     1      49.348   7.784  13.408  0.00  0.00    +0.000 C 
ENDROOT
BRANCH   1   6
ATOM      3  C   UNL     1      45.116   5.666  11.547  0.00  0.00    +0.000 A 
ATOM      4  C   UNL     1      46.087   6.539  11.058  0.00  0.00    +0.000 A 
ATOM      5  C   UNL     1      47.256   6.799  11.799  0.00  0.00    +0.000 A 
ATOM      6  C   UNL     1      47.385   6.257  13.070  0.00  0.00    +0.000 A 
ATOM      7  N   UNL     1      46.407   5.488  13.609  0.00  0.00    +0.000 NA
ATOM      8  C   UNL     1      45.317   5.230  12.852  0.00  0.00    +0.000 A 
BRANCH   3   9
ATOM      9  N   UNL     1      43.990   5.354  10.773  0.00  0.00    +0.000 N 
ATOM     10  H   UNL     1      43.175   5.825  11.169  0.00  0.00    +0.000 HD
BRANCH   9  12
ATOM     11  C   UNL     1      43.857   3.063  11.787  0.00  0.00    +0.000 C 
ATOM     12  C   UNL     1      43.666   3.924  10.531  0.00  0.00    +0.000 C 
BRANCH  12  13
ATOM     13  C   UNL     1      44.589   3.404   9.439  0.00  0.00    +0.000 A 
ATOM     14  C   UNL     1      45.176   4.273   8.506  0.00  0.00    +0.000 A 
ATOM     15  C   UNL     1      46.110   3.788   7.585  0.00  0.00    +0.000 A 
ATOM     16  C   UNL     1      46.463   2.440   7.588  0.00  0.00    +0.000 A 
ATOM     17  C   UNL     1      45.842   1.560   8.470  0.00  0.00    +0.000 A 
ATOM     18  C   UNL     1      44.896   2.034   9.373  0.00  0.00    +0.000 A 
ENDBRANCH  12  13
ENDBRANCH   9  12
ENDBRANCH   3   9
ENDBRANCH   1   6
BRANCH   1  19
ATOM     19  N   UNL     1      48.286   6.709  15.342  0.00  0.00    +0.000 N 
ATOM     20  C   UNL     1      49.110   6.349  16.373  0.00  0.00    +0.000 C 
ATOM     21  O   UNL     1      50.215   5.838  16.204  0.00  0.00    +0.000 OA
ATOM     22  H   UNL     1      47.293   6.778  15.539  0.00  0.00    +0.000 HD
BRANCH  20  23
ATOM     23  C   UNL     1      48.613   6.678  17.725  0.00  0.00    +0.000 A 
ATOM     24  C   UNL     1      48.217   7.973  18.032  0.00  0.00    +0.000 A 
ATOM     25  S   UNL     1      47.676   8.156  19.640  0.00  0.00    +0.000 S 
ATOM     26  C   UNL     1      47.983   6.518  19.990  0.00  0.00    +0.000 A 
ATOM     27  N   UNL     1      47.779   6.012  21.236  0.00  0.00    +0.000 NA
ATOM     28  C   UNL     1      48.087   4.762  21.357  0.00  0.00    +0.000 A 
ATOM     29  N   UNL     1      48.560   3.971  20.351  0.00  0.00    +0.000 N 
ATOM     30  C   UNL     1      48.715   4.415  19.059  0.00  0.00    +0.000 A 
ATOM     31  O   UNL     1      49.022   3.650  18.162  0.00  0.00    +0.000 OA
ATOM     32  C   UNL     1      48.445   5.830  18.883  0.00  0.00    +0.000 A 
ATOM     33  H   UNL     1      48.750   2.989  20.501  0.00  0.00    +0.000 HD
ENDBRANCH  20  23
ENDBRANCH   1  19
TORSDOF 6
ENDMDL
MODEL 3
REMARK VINA RESULT:    -7.665      3.121      8.079
REMARK INTER + INTRA:         -11.410
REMARK INTER:                 -10.168
REMARK INTRA:                  -1.242
REMARK UNBOUND:                -1.056
REMARK  Name = 
REMARK  8 active torsions:
REMARK  status: ('A' for Active; 'I' for Inactive)
REMARK    1  A    between atoms: C_1  and  C_2
REMARK    2  A    between atoms: C_2  and  N_3
REMARK    3  A    between atoms: C_2  and  C_25
REMARK    4  A    between atoms: N_3  and  C_4
REMARK    5  A    between atoms: C_7  and  C_8
REMARK    6  A    between atoms: C_8  and  C_9
REMARK    7  A    between atoms: C_8  and  N_10
REMARK    8  A    between atoms: C_11  and  C_13
REMARK                            x       y       z     vdW  Elec       q    Type
REMARK                         _______ _______ _______ _____ _____    ______ ____
ROOT
ATOM      1  C   UNL     1      48.563   7.653  12.451  0.00  0.00    +0.000 C 
ATOM      2  C   UNL     1      49.772   7.964  11.553  0.00  0.00    +0.000 C 
ENDROOT
BRANCH   1   6
ATOM      3  C   UNL     1      49.839   6.454  16.408  0.00  0.00    +0.000 A 
ATOM      4  C   UNL     1      50.668   7.259  15.628  0.00  0.00    +0.000 A 
ATOM      5  C   UNL     1      50.251   7.698  14.357  0.00  0.00    +0.000 A 
ATOM      6  C   UNL     1      49.047   7.235  13.844  0.00  0.00    +0.000 A 
ATOM      7  N   UNL     1      48.272   6.370  14.541  0.00  0.00    +0.000 NA
ATOM      8  C   UNL     1      48.687   6.001  15.774  0.00  0.00    +0.000 A 
BRANCH   3   9
ATOM      9  N   UNL     1      50.228   6.081  17.702  0.00  0.00    +0.000 N 
ATOM     10  H   UNL     1      51.248   6.070  17.751  0.00  0.00    +0.000 HD
BRANCH   9  12
ATOM     11  C   UNL     1      49.447   4.916  19.782  0.00  0.00    +0.000 C 
ATOM     12  C   UNL     1      49.693   4.817  18.271  0.00  0.00    +0.000 C 
BRANCH  12  13
ATOM     13  C   UNL     1      50.707   3.712  18.014  0.00  0.00    +0.000 A 
ATOM     14  C   UNL     1      52.040   3.832  18.439  0.00  0.00    +0.000 A 
ATOM     15  C   UNL     1      52.922   2.758  18.294  0.00  0.00    +0.000 A 
ATOM     16  C   UNL     1      52.485   1.562  17.726  0.00  0.00    +0.000 A 
ATOM     17  C   UNL     1      51.182   1.454  17.249  0.00  0.00    +0.000 A 
ATOM     18  C   UNL     1      50.307   2.529  17.371  0.00  0.00    +0.000 A 
ENDBRANCH  12  13
ENDBRANCH   9  12
ENDBRANCH   3   9
ENDBRANCH   1   6
BRANCH   1  19
ATOM     19  N   UNL     1      47.725   6.637  11.826  0.00  0.00    +0.000 N 
ATOM     20  C   UNL     1      46.396   6.803  11.551  0.00  0.00    +0.000 C 
ATOM     21  O   UNL     1      45.779   7.834  11.813  0.00  0.00    +0.000 OA
ATOM     22  H   UNL     1      48.068   5.686  11.919  0.00  0.00    +0.000 HD
BRANCH  20  23
ATOM     23  C   UNL     1      45.748   5.678  10.848  0.00  0.00    +0.000 A 
ATOM     24  C   UNL     1      45.839   5.567   9.466  0.00  0.00    +0.000 A 
ATOM     25  S   UNL     1      45.027   4.204   8.838  0.00  0.00    +0.000 S 
ATOM     26  C   UNL     1      44.498   3.734  10.386  0.00  0.00    +0.000 A 
ATOM     27  N   UNL     1      43.698   2.648  10.560  0.00  0.00    +0.000 NA
ATOM     28  C   UNL     1      43.352   2.435  11.787  0.00  0.00    +0.000 A 
ATOM     29  N   UNL     1      43.743   3.191  12.854  0.00  0.00    +0.000 N 
ATOM     30  C   UNL     1      44.608   4.254  12.740  0.00  0.00    +0.000 A 
ATOM     31  O   UNL     1      45.031   4.829  13.727  0.00  0.00    +0.000 OA
ATOM     32  C   UNL     1      44.975   4.576  11.374  0.00  0.00    +0.000 A 
ATOM     33  H   UNL     1      43.467   2.951  13.796  0.00  0.00    +0.000 HD
ENDBRANCH  20  23
ENDBRANCH   1  19
TORSDOF 6
ENDMDL
MODEL 4
REMARK VINA RESULT:    -7.657      2.536      3.384
REMARK INTER + INTRA:         -11.399
REMARK INTER:                 -10.734
REMARK INTRA:                  -0.665
REMARK UNBOUND:                -1.056
REMARK  Name = 
REMARK  8 active torsions:
REMARK  status: ('A' for Active; 'I' for Inactive)
REMARK    1  A    between atoms: C_1  and  C_2
REMARK    2  A    between atoms: C_2  and  N_3
REMARK    3  A    between atoms: C_2  and  C_25
REMARK    4  A    between atoms: N_3  and  C_4
REMARK    5  A    between atoms: C_7  and  C_8
REMARK    6  A    between atoms: C_8  and  C_9
REMARK    7  A    between atoms: C_8  and  N_10
REMARK    8  A    between atoms: C_11  and  C_13
REMARK                            x       y       z     vdW  Elec       q    Type
REMARK                         _______ _______ _______ _____ _____    ______ ____
ROOT
ATOM      1  C   UNL     1      48.520   6.528  13.971  0.00  0.00    +0.000 C 
ATOM      2  C   UNL     1      49.266   7.769  13.452  0.00  0.00    +0.000 C 
ENDROOT
BRANCH   1   6
ATOM      3  C   UNL     1      45.055   5.668  11.525  0.00  0.00    +0.000 A 
ATOM      4  C   UNL     1      46.119   6.392  10.988  0.00  0.00    +0.000 A 
ATOM      5  C   UNL     1      47.274   6.642  11.752  0.00  0.00    +0.000 A 
ATOM      6  C   UNL     1      47.302   6.249  13.083  0.00  0.00    +0.000 A 
ATOM      7  N   UNL     1      46.239   5.636  13.657  0.00  0.00    +0.000 NA
ATOM      8  C   UNL     1      45.162   5.378  12.881  0.00  0.00    +0.000 A 
BRANCH   3   9
ATOM      9  N   UNL     1      43.939   5.359  10.735  0.00  0.00    +0.000 N 
ATOM     10  H   UNL     1      43.117   5.819  11.129  0.00  0.00    +0.000 HD
BRANCH   9  12
ATOM     11  C   UNL     1      43.805   3.055  11.719  0.00  0.00    +0.000 C 
ATOM     12  C   UNL     1      43.627   3.930  10.472  0.00  0.00    +0.000 C 
BRANCH  12  13
ATOM     13  C   UNL     1      44.571   3.429   9.387  0.00  0.00    +0.000 A 
ATOM     14  C   UNL     1      45.099   4.300   8.422  0.00  0.00    +0.000 A 
ATOM     15  C   UNL     1      46.052   3.840   7.508  0.00  0.00    +0.000 A 
ATOM     16  C   UNL     1      46.482   2.514   7.549  0.00  0.00    +0.000 A 
ATOM     17  C   UNL     1      45.920   1.630   8.465  0.00  0.00    +0.000 A 
ATOM     18  C   UNL     1      44.955   2.078   9.362  0.00  0.00    +0.000 A 
ENDBRANCH  12  13
ENDBRANCH   9  12
ENDBRANCH   3   9
ENDBRANCH   1   6
BRANCH   1  19
ATOM     19  N   UNL     1      48.158   6.713  15.371  0.00  0.00    +0.000 N 
ATOM     20  C   UNL     1      48.917   6.277  16.422  0.00  0.00    +0.000 C 
ATOM     21  O   UNL     1      49.982   5.679  16.280  0.00  0.00    +0.000 OA
ATOM     22  H   UNL     1      47.167   6.861  15.538  0.00  0.00    +0.000 HD
BRANCH  20  23
ATOM     23  C   UNL     1      48.406   6.630  17.762  0.00  0.00    +0.000 A 
ATOM     24  C   UNL     1      48.184   5.641  18.712  0.00  0.00    +0.000 A 
ATOM     25  S   UNL     1      47.593   6.244  20.195  0.00  0.00    +0.000 S 
ATOM     26  C   UNL     1      47.583   7.841  19.608  0.00  0.00    +0.000 A 
ATOM     27  N   UNL     1      47.132   8.872  20.372  0.00  0.00    +0.000 NA
ATOM     28  C   UNL     1      47.155  10.021  19.780  0.00  0.00    +0.000 A 
ATOM     29  N   UNL     1      47.600  10.238  18.509  0.00  0.00    +0.000 N 
ATOM     30  C   UNL     1      48.132   9.244  17.722  0.00  0.00    +0.000 A 
ATOM     31  O   UNL     1      48.632   9.496  16.640  0.00  0.00    +0.000 OA
ATOM     32  C   UNL     1      48.070   7.922  18.316  0.00  0.00    +0.000 A 
ATOM     33  H   UNL     1      47.625  11.169  18.113  0.00  0.00    +0.000 HD
ENDBRANCH  20  23
ENDBRANCH   1  19
TORSDOF 6
ENDMDL
MODEL 5
REMARK VINA RESULT:    -7.569      2.429      3.556
REMARK INTER + INTRA:         -11.280
REMARK INTER:                  -9.849
REMARK INTRA:                  -1.431
REMARK UNBOUND:                -1.056
REMARK  Name = 
REMARK  8 active torsions:
REMARK  status: ('A' for Active; 'I' for Inactive)
REMARK    1  A    between atoms: C_1  and  C_2
REMARK    2  A    between atoms: C_2  and  N_3
REMARK    3  A    between atoms: C_2  and  C_25
REMARK    4  A    between atoms: N_3  and  C_4
REMARK    5  A    between atoms: C_7  and  C_8
REMARK    6  A    between atoms: C_8  and  C_9
REMARK    7  A    between atoms: C_8  and  N_10
REMARK    8  A    between atoms: C_11  and  C_13
REMARK                            x       y       z     vdW  Elec       q    Type
REMARK                         _______ _______ _______ _____ _____    ______ ____
ROOT
ATOM      1  C   UNL     1      49.435   7.027  14.825  0.00  0.00    +0.000 C 
ATOM      2  C   UNL     1      49.678   8.419  14.217  0.00  0.00    +0.000 C 
ENDROOT
BRANCH   1   6
ATOM      3  C   UNL     1      45.787   5.286  13.283  0.00  0.00    +0.000 A 
ATOM      4  C   UNL     1      46.136   6.588  12.927  0.00  0.00    +0.000 A 
ATOM      5  C   UNL     1      47.341   7.156  13.381  0.00  0.00    +0.000 A 
ATOM      6  C   UNL     1      48.131   6.442  14.272  0.00  0.00    +0.000 A 
ATOM      7  N   UNL     1      47.761   5.216  14.713  0.00  0.00    +0.000 NA
ATOM      8  C   UNL     1      46.616   4.687  14.226  0.00  0.00    +0.000 A 
BRANCH   3   9
ATOM      9  N   UNL     1      44.622   4.700  12.768  0.00  0.00    +0.000 N 
ATOM     10  H   UNL     1      44.763   3.691  12.697  0.00  0.00    +0.000 HD
BRANCH   9  12
ATOM     11  C   UNL     1      42.539   5.182  11.456  0.00  0.00    +0.000 C 
ATOM     12  C   UNL     1      44.073   5.213  11.487  0.00  0.00    +0.000 C 
BRANCH  12  13
ATOM     13  C   UNL     1      44.600   4.339  10.358  0.00  0.00    +0.000 A 
ATOM     14  C   UNL     1      44.275   2.976  10.279  0.00  0.00    +0.000 A 
ATOM     15  C   UNL     1      44.676   2.222   9.172  0.00  0.00    +0.000 A 
ATOM     16  C   UNL     1      45.401   2.818   8.141  0.00  0.00    +0.000 A 
ATOM     17  C   UNL     1      45.778   4.155   8.239  0.00  0.00    +0.000 A 
ATOM     18  C   UNL     1      45.400   4.904   9.349  0.00  0.00    +0.000 A 
ENDBRANCH  12  13
ENDBRANCH   9  12
ENDBRANCH   3   9
ENDBRANCH   1   6
BRANCH   1  19
ATOM     19  N   UNL     1      49.434   7.112  16.280  0.00  0.00    +0.000 N 
ATOM     20  C   UNL     1      50.200   6.323  17.094  0.00  0.00    +0.000 C 
ATOM     21  O   UNL     1      50.964   5.459  16.667  0.00  0.00    +0.000 OA
ATOM     22  H   UNL     1      48.598   7.526  16.682  0.00  0.00    +0.000 HD
BRANCH  20  23
ATOM     23  C   UNL     1      50.105   6.620  18.538  0.00  0.00    +0.000 A 
ATOM     24  C   UNL     1      51.160   7.236  19.199  0.00  0.00    +0.000 A 
ATOM     25  S   UNL     1      50.863   7.494  20.860  0.00  0.00    +0.000 S 
ATOM     26  C   UNL     1      49.329   6.763  20.758  0.00  0.00    +0.000 A 
ATOM     27  N   UNL     1      48.545   6.609  21.859  0.00  0.00    +0.000 NA
ATOM     28  C   UNL     1      47.423   6.008  21.632  0.00  0.00    +0.000 A 
ATOM     29  N   UNL     1      47.006   5.564  20.411  0.00  0.00    +0.000 N 
ATOM     30  C   UNL     1      47.728   5.759  19.257  0.00  0.00    +0.000 A 
ATOM     31  O   UNL     1      47.269   5.458  18.169  0.00  0.00    +0.000 OA
ATOM     32  C   UNL     1      49.026   6.371  19.466  0.00  0.00    +0.000 A 
ATOM     33  H   UNL     1      46.100   5.131  20.292  0.00  0.00    +0.000 HD
ENDBRANCH  20  23
ENDBRANCH   1  19
TORSDOF 6
ENDMDL
MODEL 6
REMARK VINA RESULT:    -7.449      2.555      3.315
REMARK INTER + INTRA:         -11.118
REMARK INTER:                 -10.881
REMARK INTRA:                  -0.237
REMARK UNBOUND:                -1.056
REMARK  Name = 
REMARK  8 active torsions:
REMARK  status: ('A' for Active; 'I' for Inactive)
REMARK    1  A    between atoms: C_1  and  C_2
REMARK    2  A    between atoms: C_2  and  N_3
REMARK    3  A    between atoms: C_2  and  C_25
REMARK    4  A    between atoms: N_3  and  C_4
REMARK    5  A    between atoms: C_7  and  C_8
REMARK    6  A    between atoms: C_8  and  C_9
REMARK    7  A    between atoms: C_8  and  N_10
REMARK    8  A    between atoms: C_11  and  C_13
REMARK                            x       y       z     vdW  Elec       q    Type
REMARK                         _______ _______ _______ _____ _____    ______ ____
ROOT
ATOM      1  C   UNL     1      49.174   7.473  15.086  0.00  0.00    +0.000 C 
ATOM      2  C   UNL     1      48.479   8.388  16.108  0.00  0.00    +0.000 C 
ENDROOT
BRANCH   1   6
ATOM      3  C   UNL     1      46.252   5.116  12.934  0.00  0.00    +0.000 A 
ATOM      4  C   UNL     1      46.386   6.475  12.654  0.00  0.00    +0.000 A 
ATOM      5  C   UNL     1      47.362   7.249  13.310  0.00  0.00    +0.000 A 
ATOM      6  C   UNL     1      48.122   6.667  14.315  0.00  0.00    +0.000 A 
ATOM      7  N   UNL     1      47.938   5.374  14.677  0.00  0.00    +0.000 NA
ATOM      8  C   UNL     1      47.018   4.652  13.998  0.00  0.00    +0.000 A 
BRANCH   3   9
ATOM      9  N   UNL     1      45.329   4.334  12.225  0.00  0.00    +0.000 N 
ATOM     10  H   UNL     1      45.763   3.441  11.988  0.00  0.00    +0.000 HD
BRANCH   9  12
ATOM     11  C   UNL     1      43.160   4.891  11.094  0.00  0.00    +0.000 C 
ATOM     12  C   UNL     1      44.692   4.910  11.012  0.00  0.00    +0.000 C 
BRANCH  12  13
ATOM     13  C   UNL     1      45.126   4.085   9.809  0.00  0.00    +0.000 A 
ATOM     14  C   UNL     1      45.746   4.683   8.701  0.00  0.00    +0.000 A 
ATOM     15  C   UNL     1      46.239   3.891   7.660  0.00  0.00    +0.000 A 
ATOM     16  C   UNL     1      46.117   2.503   7.716  0.00  0.00    +0.000 A 
ATOM     17  C   UNL     1      45.452   1.906   8.783  0.00  0.00    +0.000 A 
ATOM     18  C   UNL     1      44.940   2.692   9.810  0.00  0.00    +0.000 A 
ENDBRANCH  12  13
ENDBRANCH   9  12
ENDBRANCH   3   9
ENDBRANCH   1   6
BRANCH   1  19
ATOM     19  N   UNL     1      50.145   6.620  15.759  0.00  0.00    +0.000 N 
ATOM     20  C   UNL     1      49.950   6.065  16.995  0.00  0.00    +0.000 C 
ATOM     21  O   UNL     1      48.929   6.242  17.657  0.00  0.00    +0.000 OA
ATOM     22  H   UNL     1      51.103   6.733  15.443  0.00  0.00    +0.000 HD
BRANCH  20  23
ATOM     23  C   UNL     1      51.028   5.172  17.466  0.00  0.00    +0.000 A 
ATOM     24  C   UNL     1      52.197   5.702  17.997  0.00  0.00    +0.000 A 
ATOM     25  S   UNL     1      53.322   4.515  18.484  0.00  0.00    +0.000 S 
ATOM     26  C   UNL     1      52.300   3.254  17.971  0.00  0.00    +0.000 A 
ATOM     27  N   UNL     1      52.685   1.953  18.059  0.00  0.00    +0.000 NA
ATOM     28  C   UNL     1      51.817   1.110  17.601  0.00  0.00    +0.000 A 
ATOM     29  N   UNL     1      50.599   1.444  17.083  0.00  0.00    +0.000 N 
ATOM     30  C   UNL     1      50.134   2.737  17.040  0.00  0.00    +0.000 A 
ATOM     31  O   UNL     1      48.995   2.985  16.685  0.00  0.00    +0.000 OA
ATOM     32  C   UNL     1      51.096   3.729  17.481  0.00  0.00    +0.000 A 
ATOM     33  H   UNL     1      49.949   0.735  16.773  0.00  0.00    +0.000 HD
ENDBRANCH  20  23
ENDBRANCH   1  19
TORSDOF 6
ENDMDL
MODEL 7
REMARK VINA RESULT:    -7.266      2.904      3.383
REMARK INTER + INTRA:         -10.871
REMARK INTER:                  -9.734
REMARK INTRA:                  -1.137
REMARK UNBOUND:                -1.056
REMARK  Name = 
REMARK  8 active torsions:
REMARK  status: ('A' for Active; 'I' for Inactive)
REMARK    1  A    between atoms: C_1  and  C_2
REMARK    2  A    between atoms: C_2  and  N_3
REMARK    3  A    between atoms: C_2  and  C_25
REMARK    4  A    between atoms: N_3  and  C_4
REMARK    5  A    between atoms: C_7  and  C_8
REMARK    6  A    between atoms: C_8  and  C_9
REMARK    7  A    between atoms: C_8  and  N_10
REMARK    8  A    between atoms: C_11  and  C_13
REMARK                            x       y       z     vdW  Elec       q    Type
REMARK                         _______ _______ _______ _____ _____    ______ ____
ROOT
ATOM      1  C   UNL     1      47.748   8.781  13.771  0.00  0.00    +0.000 C 
ATOM      2  C   UNL     1      47.178   9.899  12.884  0.00  0.00    +0.000 C 
ENDROOT
BRANCH   1   6
ATOM      3  C   UNL     1      45.962   5.022  12.585  0.00  0.00    +0.000 A 
ATOM      4  C   UNL     1      47.157   5.024  13.305  0.00  0.00    +0.000 A 
ATOM      5  C   UNL     1      47.729   6.234  13.740  0.00  0.00    +0.000 A 
ATOM      6  C   UNL     1      47.147   7.434  13.355  0.00  0.00    +0.000 A 
ATOM      7  N   UNL     1      46.043   7.459  12.569  0.00  0.00    +0.000 NA
ATOM      8  C   UNL     1      45.500   6.276  12.203  0.00  0.00    +0.000 A 
BRANCH   3   9
ATOM      9  N   UNL     1      45.359   3.811  12.219  0.00  0.00    +0.000 N 
ATOM     10  H   UNL     1      46.086   3.145  11.955  0.00  0.00    +0.000 HD
BRANCH   9  12
ATOM     11  C   UNL     1      43.181   2.822  11.461  0.00  0.00    +0.000 C 
ATOM     12  C   UNL     1      44.303   3.829  11.174  0.00  0.00    +0.000 C 
BRANCH  12  13
ATOM     13  C   UNL     1      44.946   3.475   9.840  0.00  0.00    +0.000 A 
ATOM     14  C   UNL     1      45.403   4.472   8.964  0.00  0.00    +0.000 A 
ATOM     15  C   UNL     1      46.094   4.121   7.801  0.00  0.00    +0.000 A 
ATOM     16  C   UNL     1      46.331   2.780   7.503  0.00  0.00    +0.000 A 
ATOM     17  C   UNL     1      45.830   1.783   8.336  0.00  0.00    +0.000 A 
ATOM     18  C   UNL     1      45.124   2.127   9.483  0.00  0.00    +0.000 A 
ENDBRANCH  12  13
ENDBRANCH   9  12
ENDBRANCH   3   9
ENDBRANCH   1   6
BRANCH   1  19
ATOM     19  N   UNL     1      47.508   9.087  15.176  0.00  0.00    +0.000 N 
ATOM     20  C   UNL     1      48.435   8.915  16.167  0.00  0.00    +0.000 C 
ATOM     21  O   UNL     1      49.566   8.477  15.961  0.00  0.00    +0.000 OA
ATOM     22  H   UNL     1      46.530   9.099  15.447  0.00  0.00    +0.000 HD
BRANCH  20  23
ATOM     23  C   UNL     1      48.015   9.355  17.512  0.00  0.00    +0.000 A 
ATOM     24  C   UNL     1      47.778  10.700  17.769  0.00  0.00    +0.000 A 
ATOM     25  S   UNL     1      47.303  11.012  19.378  0.00  0.00    +0.000 S 
ATOM     26  C   UNL     1      47.430   9.367  19.795  0.00  0.00    +0.000 A 
ATOM     27  N   UNL     1      47.202   8.940  21.066  0.00  0.00    +0.000 NA
ATOM     28  C   UNL     1      47.368   7.669  21.238  0.00  0.00    +0.000 A 
ATOM     29  N   UNL     1      47.722   6.787  20.259  0.00  0.00    +0.000 N 
ATOM     30  C   UNL     1      47.892   7.155  18.945  0.00  0.00    +0.000 A 
ATOM     31  O   UNL     1      48.087   6.322  18.078  0.00  0.00    +0.000 OA
ATOM     32  C   UNL     1      47.782   8.582  18.711  0.00  0.00    +0.000 A 
ATOM     33  H   UNL     1      47.802   5.797  20.449  0.00  0.00    +0.000 HD
ENDBRANCH  20  23
ENDBRANCH   1  19
TORSDOF 6
ENDMDL
MODEL 8
REMARK VINA RESULT:    -7.020      1.376      2.116
REMARK INTER + INTRA:         -10.539
REMARK INTER:                  -9.702
REMARK INTRA:                  -0.836
REMARK UNBOUND:                -1.056
REMARK  Name = 
REMARK  8 active torsions:
REMARK  status: ('A' for Active; 'I' for Inactive)
REMARK    1  A    between atoms: C_1  and  C_2
REMARK    2  A    between atoms: C_2  and  N_3
REMARK    3  A    between atoms: C_2  and  C_25
REMARK    4  A    between atoms: N_3  and  C_4
REMARK    5  A    between atoms: C_7  and  C_8
REMARK    6  A    between atoms: C_8  and  C_9
REMARK    7  A    between atoms: C_8  and  N_10
REMARK    8  A    between atoms: C_11  and  C_13
REMARK                            x       y       z     vdW  Elec       q    Type
REMARK                         _______ _______ _______ _____ _____    ______ ____
ROOT
ATOM      1  C   UNL     1      48.490   8.259  14.139  0.00  0.00    +0.000 C 
ATOM      2  C   UNL     1      48.203   9.706  14.573  0.00  0.00    +0.000 C 
ENDROOT
BRANCH   1   6
ATOM      3  C   UNL     1      45.426   6.844  11.430  0.00  0.00    +0.000 A 
ATOM      4  C   UNL     1      45.144   7.890  12.308  0.00  0.00    +0.000 A 
ATOM      5  C   UNL     1      46.140   8.395  13.164  0.00  0.00    +0.000 A 
ATOM      6  C   UNL     1      47.380   7.772  13.200  0.00  0.00    +0.000 A 
ATOM      7  N   UNL     1      47.645   6.688  12.431  0.00  0.00    +0.000 NA
ATOM      8  C   UNL     1      46.675   6.255  11.593  0.00  0.00    +0.000 A 
BRANCH   3   9
ATOM      9  N   UNL     1      44.451   6.394  10.528  0.00  0.00    +0.000 N 
ATOM     10  H   UNL     1      43.675   7.058  10.522  0.00  0.00    +0.000 HD
BRANCH   9  12
ATOM     11  C   UNL     1      44.059   4.494  12.118  0.00  0.00    +0.000 C 
ATOM     12  C   UNL     1      43.921   5.015  10.682  0.00  0.00    +0.000 C 
BRANCH  12  13
ATOM     13  C   UNL     1      44.703   4.097   9.753  0.00  0.00    +0.000 A 
ATOM     14  C   UNL     1      44.650   2.702   9.892  0.00  0.00    +0.000 A 
ATOM     15  C   UNL     1      45.283   1.878   8.957  0.00  0.00    +0.000 A 
ATOM     16  C   UNL     1      45.972   2.437   7.882  0.00  0.00    +0.000 A 
ATOM     17  C   UNL     1      46.079   3.821   7.769  0.00  0.00    +0.000 A 
ATOM     18  C   UNL     1      45.469   4.644   8.709  0.00  0.00    +0.000 A 
ENDBRANCH  12  13
ENDBRANCH   9  12
ENDBRANCH   3   9
ENDBRANCH   1   6
BRANCH   1  19
ATOM     19  N   UNL     1      48.639   7.407  15.312  0.00  0.00    +0.000 N 
ATOM     20  C   UNL     1      49.841   6.952  15.779  0.00  0.00    +0.000 C 
ATOM     21  O   UNL     1      50.916   7.219  15.244  0.00  0.00    +0.000 OA
ATOM     22  H   UNL     1      47.809   6.879  15.563  0.00  0.00    +0.000 HD
BRANCH  20  23
ATOM     23  C   UNL     1      49.779   6.160  17.025  0.00  0.00    +0.000 A 
ATOM     24  C   UNL     1      50.555   6.515  18.122  0.00  0.00    +0.000 A 
ATOM     25  S   UNL     1      50.347   5.482  19.464  0.00  0.00    +0.000 S 
ATOM     26  C   UNL     1      49.239   4.508  18.615  0.00  0.00    +0.000 A 
ATOM     27  N   UNL     1      48.699   3.395  19.181  0.00  0.00    +0.000 NA
ATOM     28  C   UNL     1      47.901   2.739  18.404  0.00  0.00    +0.000 A 
ATOM     29  N   UNL     1      47.579   3.098  17.127  0.00  0.00    +0.000 N 
ATOM     30  C   UNL     1      48.041   4.251  16.536  0.00  0.00    +0.000 A 
ATOM     31  O   UNL     1      47.636   4.602  15.442  0.00  0.00    +0.000 OA
ATOM     32  C   UNL     1      48.993   4.990  17.342  0.00  0.00    +0.000 A 
ATOM     33  H   UNL     1      46.919   2.561  16.581  0.00  0.00    +0.000 HD
ENDBRANCH  20  23
ENDBRANCH   1  19
TORSDOF 6
ENDMDL
MODEL 9
REMARK VINA RESULT:    -6.927      2.516      3.454
REMARK INTER + INTRA:         -10.413
REMARK INTER:                  -9.143
REMARK INTRA:                  -1.270
REMARK UNBOUND:                -1.056
REMARK  Name = 
REMARK  8 active torsions:
REMARK  status: ('A' for Active; 'I' for Inactive)
REMARK    1  A    between atoms: C_1  and  C_2
REMARK    2  A    between atoms: C_2  and  N_3
REMARK    3  A    between atoms: C_2  and  C_25
REMARK    4  A    between atoms: N_3  and  C_4
REMARK    5  A    between atoms: C_7  and  C_8
REMARK    6  A    between atoms: C_8  and  C_9
REMARK    7  A    between atoms: C_8  and  N_10
REMARK    8  A    between atoms: C_11  and  C_13
REMARK                            x       y       z     vdW  Elec       q    Type
REMARK                         _______ _______ _______ _____ _____    ______ ____
ROOT
ATOM      1  C   UNL     1      49.555   7.598  14.453  0.00  0.00    +0.000 C 
ATOM      2  C   UNL     1      49.032   8.944  14.982  0.00  0.00    +0.000 C 
ENDROOT
BRANCH   1   6
ATOM      3  C   UNL     1      46.337   5.307  12.688  0.00  0.00    +0.000 A 
ATOM      4  C   UNL     1      46.794   6.460  12.052  0.00  0.00    +0.000 A 
ATOM      5  C   UNL     1      47.870   7.194  12.586  0.00  0.00    +0.000 A 
ATOM      6  C   UNL     1      48.406   6.814  13.809  0.00  0.00    +0.000 A 
ATOM      7  N   UNL     1      47.910   5.757  14.496  0.00  0.00    +0.000 NA
ATOM      8  C   UNL     1      46.901   5.054  13.933  0.00  0.00    +0.000 A 
BRANCH   3   9
ATOM      9  N   UNL     1      45.314   4.540  12.112  0.00  0.00    +0.000 N 
ATOM     10  H   UNL     1      45.655   3.588  11.967  0.00  0.00    +0.000 HD
BRANCH   9  12
ATOM     11  C   UNL     1      43.140   5.013  10.953  0.00  0.00    +0.000 C 
ATOM     12  C   UNL     1      44.671   5.030  10.865  0.00  0.00    +0.000 C 
BRANCH  12  13
ATOM     13  C   UNL     1      45.104   4.125   9.720  0.00  0.00    +0.000 A 
ATOM     14  C   UNL     1      45.756   4.642   8.589  0.00  0.00    +0.000 A 
ATOM     15  C   UNL     1      46.245   3.778   7.605  0.00  0.00    +0.000 A 
ATOM     16  C   UNL     1      46.088   2.400   7.740  0.00  0.00    +0.000 A 
ATOM     17  C   UNL     1      45.391   1.882   8.829  0.00  0.00    +0.000 A 
ATOM     18  C   UNL     1      44.883   2.740   9.799  0.00  0.00    +0.000 A 
ENDBRANCH  12  13
ENDBRANCH   9  12
ENDBRANCH   3   9
ENDBRANCH   1   6
BRANCH   1  19
ATOM     19  N   UNL     1      50.200   6.856  15.529  0.00  0.00    +0.000 N 
ATOM     20  C   UNL     1      51.501   7.037  15.911  0.00  0.00    +0.000 C 
ATOM     21  O   UNL     1      52.253   7.848  15.373  0.00  0.00    +0.000 OA
ATOM     22  H   UNL     1      49.767   5.965  15.751  0.00  0.00    +0.000 HD
BRANCH  20  23
ATOM     23  C   UNL     1      51.938   6.236  17.072  0.00  0.00    +0.000 A 
ATOM     24  C   UNL     1      53.136   5.533  17.029  0.00  0.00    +0.000 A 
ATOM     25  S   UNL     1      53.468   4.667  18.462  0.00  0.00    +0.000 S 
ATOM     26  C   UNL     1      52.008   5.175  19.175  0.00  0.00    +0.000 A 
ATOM     27  N   UNL     1      51.640   4.747  20.412  0.00  0.00    +0.000 NA
ATOM     28  C   UNL     1      50.492   5.191  20.808  0.00  0.00    +0.000 A 
ATOM     29  N   UNL     1      49.690   6.033  20.094  0.00  0.00    +0.000 N 
ATOM     30  C   UNL     1      50.049   6.551  18.872  0.00  0.00    +0.000 A 
ATOM     31  O   UNL     1      49.365   7.395  18.320  0.00  0.00    +0.000 OA
ATOM     32  C   UNL     1      51.300   6.033  18.352  0.00  0.00    +0.000 A 
ATOM     33  H   UNL     1      48.817   6.374  20.473  0.00  0.00    +0.000 HD
ENDBRANCH  20  23
ENDBRANCH   1  19
TORSDOF 6
ENDMDL
