MODEL 1
REMARK VINA RESULT:    -8.594      0.000      0.000
REMARK INTER + INTRA:         -13.457
REMARK INTER:                 -12.613
REMARK INTRA:                  -0.843
REMARK UNBOUND:                -0.843
REMARK  Name = 
REMARK  10 active torsions:
REMARK  status: ('A' for Active; 'I' for Inactive)
REMARK    1  A    between atoms: C_1  and  C_2
REMARK    2  A    between atoms: C_2  and  C_3
REMARK    3  A    between atoms: C_2  and  C_4
REMARK    4  A    between atoms: C_4  and  C_5
REMARK    5  A    between atoms: C_5  and  N_6
REMARK    6  A    between atoms: C_7  and  C_9
REMARK    7  A    between atoms: C_13  and  O_14
REMARK    8  A    between atoms: O_14  and  C_15
REMARK    9  A    between atoms: C_15  and  C_16
REMARK   10  A    between atoms: C_20  and  C_21
REMARK                            x       y       z     vdW  Elec       q    Type
REMARK                         _______ _______ _______ _____ _____    ______ ____
ROOT
ATOM      1  C   UNL     1      47.267   5.496  14.048  0.00  0.00    +0.000 A 
ATOM      2  C   UNL     1      48.143   6.546  14.328  0.00  0.00    +0.000 A 
ATOM      3  C   UNL     1      48.142   7.635  13.481  0.00  0.00    +0.000 A 
ATOM      4  N   UNL     1      47.350   7.731  12.394  0.00  0.00    +0.000 NA
ATOM      5  C   UNL     1      46.500   6.708  12.160  0.00  0.00    +0.000 A 
ATOM      6  C   UNL     1      46.400   5.588  12.961  0.00  0.00    +0.000 A 
ENDROOT
BRANCH   1   8
ATOM      7  N   UNL     1      47.220   4.550  16.289  0.00  0.00    +0.000 N 
ATOM      8  C   UNL     1      47.296   4.306  14.934  0.00  0.00    +0.000 C 
ATOM      9  O   UNL     1      47.342   3.184  14.444  0.00  0.00    +0.000 OA
ATOM     10  H   UNL     1      47.088   5.491  16.633  0.00  0.00    +0.000 HD
BRANCH   7  11
ATOM     11  C   UNL     1      47.204   3.472  17.257  0.00  0.00    +0.000 C 
BRANCH  11  12
ATOM     12  C   UNL     1      48.482   3.421  18.097  0.00  0.00    +0.000 C 
BRANCH  12  14
ATOM     13  C   UNL     1      50.822   4.397  17.811  0.00  0.00    +0.000 C 
ATOM     14  C   UNL     1      49.789   3.403  17.279  0.00  0.00    +0.000 C 
ATOM     15  C   UNL     1      50.389   1.994  17.280  0.00  0.00    +0.000 C 
ENDBRANCH  12  14
ENDBRANCH  11  12
ENDBRANCH   7  11
ENDBRANCH   1   8
BRANCH   5  16
ATOM     16  O   UNL     1      45.653   6.770  11.073  0.00  0.00    +0.000 OA
BRANCH  16  17
ATOM     17  C   UNL     1      44.380   6.180  11.356  0.00  0.00    +0.000 C 
BRANCH  17  18
ATOM     18  C   UNL     1      44.300   4.807  10.748  0.00  0.00    +0.000 A 
ATOM     19  C   UNL     1      43.477   3.838  11.305  0.00  0.00    +0.000 A 
ATOM     20  N   UNL     1      43.407   2.565  10.864  0.00  0.00    +0.000 NA
ATOM     21  C   UNL     1      44.214   2.236   9.823  0.00  0.00    +0.000 A 
ATOM     22  C   UNL     1      45.090   3.107   9.175  0.00  0.00    +0.000 A 
ATOM     23  C   UNL     1      45.113   4.420   9.674  0.00  0.00    +0.000 A 
BRANCH  22  24
ATOM     24  C   UNL     1      45.943   2.690   8.046  0.00  0.00    +0.000 A 
ATOM     25  C   UNL     1      46.223   3.544   6.967  0.00  0.00    +0.000 A 
ATOM     26  C   UNL     1      47.011   3.114   5.899  0.00  0.00    +0.000 A 
ATOM     27  C   UNL     1      47.521   1.830   5.937  0.00  0.00    +0.000 A 
ATOM     28  N   UNL     1      47.295   0.971   6.950  0.00  0.00    +0.000 NA
ATOM     29  C   UNL     1      46.516   1.418   7.968  0.00  0.00    +0.000 A 
ENDBRANCH  22  24
ENDBRANCH  17  18
ENDBRANCH  16  17
ENDBRANCH   5  16
TORSDOF 8
ENDMDL
MODEL 2
REMARK VINA RESULT:    -7.792      1.597      2.188
REMARK INTER + INTRA:         -12.280
REMARK INTER:                 -11.181
REMARK INTRA:                  -1.099
REMARK UNBOUND:                -0.843
REMARK  Name = 
REMARK  10 active torsions:
REMARK  status: ('A' for Active; 'I' for Inactive)
REMARK    1  A    between atoms: C_1  and  C_2
REMARK    2  A    between atoms: C_2  and  C_3
REMARK    3  A    between atoms: C_2  and  C_4
REMARK    4  A    between atoms: C_4  and  C_5
REMARK    5  A    between atoms: C_5  and  N_6
REMARK    6  A    between atoms: C_7  and  C_9
REMARK    7  A    between atoms: C_13  and  O_14
REMARK    8  A    between atoms: O_14  and  C_15
REMARK    9  A    between atoms: C_15  and  C_16
REMARK   10  A    between atoms: C_20  and  C_21
REMARK                            x       y       z     vdW  Elec       q    Type
REMARK                         _______ _______ _______ _____ _____    ______ ____
ROOT
ATOM      1  C   UNL     1      47.309   7.414  13.421  0.00  0.00    +0.000 A 
ATOM      2  C   UNL     1      47.290   8.692  12.859  0.00  0.00    +0.000 A 
ATOM      3  C   UNL     1      46.161   9.081  12.169  0.00  0.00    +0.000 A 
ATOM      4  N   UNL     1      45.082   8.289  12.000  0.00  0.00    +0.000 NA
ATOM      5  C   UNL     1      45.122   7.067  12.571  0.00  0.00    +0.000 A 
ATOM      6  C   UNL     1      46.190   6.591  13.307  0.00  0.00    +0.000 A 
ENDROOT
BRANCH   1   8
ATOM      7  N   UNL     1      48.395   6.651  15.459  0.00  0.00    +0.000 N 
ATOM      8  C   UNL     1      48.539   6.978  14.127  0.00  0.00    +0.000 C 
ATOM      9  O   UNL     1      49.593   6.886  13.510  0.00  0.00    +0.000 OA
ATOM     10  H   UNL     1      47.483   6.655  15.892  0.00  0.00    +0.000 HD
BRANCH   7  11
ATOM     11  C   UNL     1      49.513   6.178  16.251  0.00  0.00    +0.000 C 
BRANCH  11  12
ATOM     12  C   UNL     1      49.102   5.106  17.262  0.00  0.00    +0.000 C 
BRANCH  12  14
ATOM     13  C   UNL     1      47.252   3.350  17.337  0.00  0.00    +0.000 C 
ATOM     14  C   UNL     1      47.585   4.843  17.339  0.00  0.00    +0.000 C 
ATOM     15  C   UNL     1      47.004   5.493  18.599  0.00  0.00    +0.000 C 
ENDBRANCH  12  14
ENDBRANCH  11  12
ENDBRANCH   7  11
ENDBRANCH   1   8
BRANCH   5  16
ATOM     16  O   UNL     1      44.033   6.228  12.447  0.00  0.00    +0.000 OA
BRANCH  16  17
ATOM     17  C   UNL     1      43.622   6.088  11.084  0.00  0.00    +0.000 C 
BRANCH  17  18
ATOM     18  C   UNL     1      43.824   4.670  10.626  0.00  0.00    +0.000 A 
ATOM     19  C   UNL     1      43.233   3.617  11.311  0.00  0.00    +0.000 A 
ATOM     20  N   UNL     1      43.426   2.317  11.007  0.00  0.00    +0.000 NA
ATOM     21  C   UNL     1      44.268   2.052   9.976  0.00  0.00    +0.000 A 
ATOM     22  C   UNL     1      44.931   3.010   9.208  0.00  0.00    +0.000 A 
ATOM     23  C   UNL     1      44.684   4.345   9.567  0.00  0.00    +0.000 A 
BRANCH  22  24
ATOM     24  C   UNL     1      45.835   2.658   8.097  0.00  0.00    +0.000 A 
ATOM     25  C   UNL     1      46.102   3.546   7.043  0.00  0.00    +0.000 A 
ATOM     26  C   UNL     1      46.940   3.177   5.990  0.00  0.00    +0.000 A 
ATOM     27  C   UNL     1      47.513   1.920   6.019  0.00  0.00    +0.000 A 
ATOM     28  N   UNL     1      47.302   1.031   7.009  0.00  0.00    +0.000 NA
ATOM     29  C   UNL     1      46.473   1.418   8.012  0.00  0.00    +0.000 A 
ENDBRANCH  22  24
ENDBRANCH  17  18
ENDBRANCH  16  17
ENDBRANCH   5  16
TORSDOF 8
ENDMDL
MODEL 3
REMARK VINA RESULT:    -7.692      1.250      1.638
REMARK INTER + INTRA:         -12.133
REMARK INTER:                 -11.218
REMARK INTRA:                  -0.915
REMARK UNBOUND:                -0.843
REMARK  Name = 
REMARK  10 active torsions:
REMARK  status: ('A' for Active; 'I' for Inactive)
REMARK    1  A    between atoms: C_1  and  C_2
REMARK    2  A    between atoms: C_2  and  C_3
REMARK    3  A    between atoms: C_2  and  C_4
REMARK    4  A    between atoms: C_4  and  C_5
REMARK    5  A    between atoms: C_5  and  N_6
REMARK    6  A    between atoms: C_7  and  C_9
REMARK    7  A    between atoms: C_13  and  O_14
REMARK    8  A    between atoms: O_14  and  C_15
REMARK    9  A    between atoms: C_15  and  C_16
REMARK   10  A    between atoms: C_20  and  C_21
REMARK                            x       y       z     vdW  Elec       q    Type
REMARK                         _______ _______ _______ _____ _____    ______ ____
ROOT
ATOM      1  C   UNL     1      48.071   6.602  13.864  0.00  0.00    +0.000 A 
ATOM      2  C   UNL     1      49.099   7.267  13.193  0.00  0.00    +0.000 A 
ATOM      3  C   UNL     1      48.818   7.820  11.960  0.00  0.00    +0.000 A 
ATOM      4  N   UNL     1      47.608   7.740  11.368  0.00  0.00    +0.000 NA
ATOM      5  C   UNL     1      46.630   7.107  12.050  0.00  0.00    +0.000 A 
ATOM      6  C   UNL     1      46.798   6.546  13.301  0.00  0.00    +0.000 A 
ENDROOT
BRANCH   1   8
ATOM      7  N   UNL     1      47.478   5.039  15.631  0.00  0.00    +0.000 N 
ATOM      8  C   UNL     1      48.383   5.971  15.170  0.00  0.00    +0.000 C 
ATOM      9  O   UNL     1      49.422   6.260  15.752  0.00  0.00    +0.000 OA
ATOM     10  H   UNL     1      46.686   4.770  15.064  0.00  0.00    +0.000 HD
BRANCH   7  11
ATOM     11  C   UNL     1      47.685   4.327  16.876  0.00  0.00    +0.000 C 
BRANCH  11  12
ATOM     12  C   UNL     1      48.401   2.990  16.673  0.00  0.00    +0.000 C 
BRANCH  12  14
ATOM     13  C   UNL     1      50.608   1.768  17.057  0.00  0.00    +0.000 C 
ATOM     14  C   UNL     1      49.579   2.739  17.636  0.00  0.00    +0.000 C 
ATOM     15  C   UNL     1      50.267   4.064  17.980  0.00  0.00    +0.000 C 
ENDBRANCH  12  14
ENDBRANCH  11  12
ENDBRANCH   7  11
ENDBRANCH   1   8
BRANCH   5  16
ATOM     16  O   UNL     1      45.369   7.019  11.496  0.00  0.00    +0.000 OA
BRANCH  16  17
ATOM     17  C   UNL     1      44.519   6.145  12.243  0.00  0.00    +0.000 C 
BRANCH  17  18
ATOM     18  C   UNL     1      44.306   4.860  11.490  0.00  0.00    +0.000 A 
ATOM     19  C   UNL     1      43.432   3.897  11.973  0.00  0.00    +0.000 A 
ATOM     20  N   UNL     1      43.244   2.692  11.395  0.00  0.00    +0.000 NA
ATOM     21  C   UNL     1      43.982   2.427  10.287  0.00  0.00    +0.000 A 
ATOM     22  C   UNL     1      44.898   3.300   9.700  0.00  0.00    +0.000 A 
ATOM     23  C   UNL     1      45.044   4.541  10.341  0.00  0.00    +0.000 A 
BRANCH  22  24
ATOM     24  C   UNL     1      45.671   2.955   8.491  0.00  0.00    +0.000 A 
ATOM     25  C   UNL     1      46.185   1.667   8.277  0.00  0.00    +0.000 A 
ATOM     26  C   UNL     1      46.935   1.375   7.138  0.00  0.00    +0.000 A 
ATOM     27  C   UNL     1      47.148   2.385   6.217  0.00  0.00    +0.000 A 
ATOM     28  N   UNL     1      46.670   3.636   6.365  0.00  0.00    +0.000 NA
ATOM     29  C   UNL     1      45.953   3.888   7.489  0.00  0.00    +0.000 A 
ENDBRANCH  22  24
ENDBRANCH  17  18
ENDBRANCH  16  17
ENDBRANCH   5  16
TORSDOF 8
ENDMDL
MODEL 4
REMARK VINA RESULT:    -7.635      2.632      4.554
REMARK INTER + INTRA:         -12.049
REMARK INTER:                 -11.028
REMARK INTRA:                  -1.020
REMARK UNBOUND:                -0.843
REMARK  Name = 
REMARK  10 active torsions:
REMARK  status: ('A' for Active; 'I' for Inactive)
REMARK    1  A    between atoms: C_1  and  C_2
REMARK    2  A    between atoms: C_2  and  C_3
REMARK    3  A    between atoms: C_2  and  C_4
REMARK    4  A    between atoms: C_4  and  C_5
REMARK    5  A    between atoms: C_5  and  N_6
REMARK    6  A    between atoms: C_7  and  C_9
REMARK    7  A    between atoms: C_13  and  O_14
REMARK    8  A    between atoms: O_14  and  C_15
REMARK    9  A    between atoms: C_15  and  C_16
REMARK   10  A    between atoms: C_20  and  C_21
REMARK                            x       y       z     vdW  Elec       q    Type
REMARK                         _______ _______ _______ _____ _____    ______ ____
ROOT
ATOM      1  C   UNL     1      47.413   6.808  12.651  0.00  0.00    +0.000 A 
ATOM      2  C   UNL     1      47.803   5.787  13.520  0.00  0.00    +0.000 A 
ATOM      3  C   UNL     1      46.827   4.949  14.017  0.00  0.00    +0.000 A 
ATOM      4  N   UNL     1      45.517   5.071  13.715  0.00  0.00    +0.000 NA
ATOM      5  C   UNL     1      45.174   6.055  12.858  0.00  0.00    +0.000 A 
ATOM      6  C   UNL     1      46.075   6.929  12.282  0.00  0.00    +0.000 A 
ENDROOT
BRANCH   1   8
ATOM      7  N   UNL     1      49.739   7.237  12.083  0.00  0.00    +0.000 N 
ATOM      8  C   UNL     1      48.456   7.737  12.149  0.00  0.00    +0.000 C 
ATOM      9  O   UNL     1      48.141   8.862  11.783  0.00  0.00    +0.000 OA
ATOM     10  H   UNL     1      49.924   6.270  12.310  0.00  0.00    +0.000 HD
BRANCH   7  11
ATOM     11  C   UNL     1      50.840   8.031  11.578  0.00  0.00    +0.000 C 
BRANCH  11  12
ATOM     12  C   UNL     1      51.534   7.377  10.382  0.00  0.00    +0.000 C 
BRANCH  12  14
ATOM     13  C   UNL     1      53.281   7.708   8.551  0.00  0.00    +0.000 C 
ATOM     14  C   UNL     1      52.887   8.010   9.998  0.00  0.00    +0.000 C 
ATOM     15  C   UNL     1      52.835   9.526  10.207  0.00  0.00    +0.000 C 
ENDBRANCH  12  14
ENDBRANCH  11  12
ENDBRANCH   7  11
ENDBRANCH   1   8
BRANCH   5  16
ATOM     16  O   UNL     1      43.849   6.207  12.501  0.00  0.00    +0.000 OA
BRANCH  16  17
ATOM     17  C   UNL     1      43.668   6.138  11.084  0.00  0.00    +0.000 C 
BRANCH  17  18
ATOM     18  C   UNL     1      43.851   4.723  10.607  0.00  0.00    +0.000 A 
ATOM     19  C   UNL     1      43.228   3.672  11.264  0.00  0.00    +0.000 A 
ATOM     20  N   UNL     1      43.401   2.373  10.944  0.00  0.00    +0.000 NA
ATOM     21  C   UNL     1      44.257   2.107   9.924  0.00  0.00    +0.000 A 
ATOM     22  C   UNL     1      44.952   3.064   9.184  0.00  0.00    +0.000 A 
ATOM     23  C   UNL     1      44.724   4.398   9.559  0.00  0.00    +0.000 A 
BRANCH  22  24
ATOM     24  C   UNL     1      45.870   2.712   8.084  0.00  0.00    +0.000 A 
ATOM     25  C   UNL     1      46.175   3.612   7.050  0.00  0.00    +0.000 A 
ATOM     26  C   UNL     1      47.025   3.243   6.008  0.00  0.00    +0.000 A 
ATOM     27  C   UNL     1      47.571   1.973   6.026  0.00  0.00    +0.000 A 
ATOM     28  N   UNL     1      47.323   1.072   6.996  0.00  0.00    +0.000 NA
ATOM     29  C   UNL     1      46.483   1.460   7.990  0.00  0.00    +0.000 A 
ENDBRANCH  22  24
ENDBRANCH  17  18
ENDBRANCH  16  17
ENDBRANCH   5  16
TORSDOF 8
ENDMDL
MODEL 5
REMARK VINA RESULT:    -7.379      2.270      8.982
REMARK INTER + INTRA:         -11.674
REMARK INTER:                 -10.803
REMARK INTRA:                  -0.871
REMARK UNBOUND:                -0.843
REMARK  Name = 
REMARK  10 active torsions:
REMARK  status: ('A' for Active; 'I' for Inactive)
REMARK    1  A    between atoms: C_1  and  C_2
REMARK    2  A    between atoms: C_2  and  C_3
REMARK    3  A    between atoms: C_2  and  C_4
REMARK    4  A    between atoms: C_4  and  C_5
REMARK    5  A    between atoms: C_5  and  N_6
REMARK    6  A    between atoms: C_7  and  C_9
REMARK    7  A    between atoms: C_13  and  O_14
REMARK    8  A    between atoms: O_14  and  C_15
REMARK    9  A    between atoms: C_15  and  C_16
REMARK   10  A    between atoms: C_20  and  C_21
REMARK                            x       y       z     vdW  Elec       q    Type
REMARK                         _______ _______ _______ _____ _____    ______ ____
ROOT
ATOM      1  C   UNL     1      45.993   4.685  12.409  0.00  0.00    +0.000 A 
ATOM      2  C   UNL     1      46.433   6.005  12.526  0.00  0.00    +0.000 A 
ATOM      3  C   UNL     1      47.242   6.327  13.597  0.00  0.00    +0.000 A 
ATOM      4  N   UNL     1      47.617   5.438  14.539  0.00  0.00    +0.000 NA
ATOM      5  C   UNL     1      47.191   4.166  14.388  0.00  0.00    +0.000 A 
ATOM      6  C   UNL     1      46.405   3.733  13.338  0.00  0.00    +0.000 A 
ENDROOT
BRANCH   1   8
ATOM      7  N   UNL     1      45.122   3.039  10.844  0.00  0.00    +0.000 N 
ATOM      8  C   UNL     1      45.090   4.347  11.281  0.00  0.00    +0.000 C 
ATOM      9  O   UNL     1      44.342   5.202  10.824  0.00  0.00    +0.000 OA
ATOM     10  H   UNL     1      45.690   2.353  11.321  0.00  0.00    +0.000 HD
BRANCH   7  11
ATOM     11  C   UNL     1      44.263   2.574   9.773  0.00  0.00    +0.000 C 
BRANCH  11  12
ATOM     12  C   UNL     1      44.977   1.605   8.829  0.00  0.00    +0.000 C 
BRANCH  12  14
ATOM     13  C   UNL     1      47.027   1.099   7.396  0.00  0.00    +0.000 C 
ATOM     14  C   UNL     1      46.265   2.161   8.190  0.00  0.00    +0.000 C 
ATOM     15  C   UNL     1      45.928   3.340   7.272  0.00  0.00    +0.000 C 
ENDBRANCH  12  14
ENDBRANCH  11  12
ENDBRANCH   7  11
ENDBRANCH   1   8
BRANCH   5  16
ATOM     16  O   UNL     1      47.568   3.214  15.314  0.00  0.00    +0.000 OA
BRANCH  16  17
ATOM     17  C   UNL     1      47.252   3.616  16.650  0.00  0.00    +0.000 C 
BRANCH  17  18
ATOM     18  C   UNL     1      48.513   3.922  17.410  0.00  0.00    +0.000 A 
ATOM     19  C   UNL     1      48.610   5.073  18.179  0.00  0.00    +0.000 A 
ATOM     20  N   UNL     1      49.730   5.453  18.829  0.00  0.00    +0.000 NA
ATOM     21  C   UNL     1      50.817   4.652  18.689  0.00  0.00    +0.000 A 
ATOM     22  C   UNL     1      50.859   3.473  17.944  0.00  0.00    +0.000 A 
ATOM     23  C   UNL     1      49.661   3.125  17.298  0.00  0.00    +0.000 A 
BRANCH  22  24
ATOM     24  C   UNL     1      52.072   2.641  17.831  0.00  0.00    +0.000 A 
ATOM     25  C   UNL     1      52.011   1.262  17.578  0.00  0.00    +0.000 A 
ATOM     26  C   UNL     1      53.174   0.495  17.503  0.00  0.00    +0.000 A 
ATOM     27  C   UNL     1      54.390   1.132  17.669  0.00  0.00    +0.000 A 
ATOM     28  N   UNL     1      54.510   2.453  17.903  0.00  0.00    +0.000 NA
ATOM     29  C   UNL     1      53.359   3.167  17.980  0.00  0.00    +0.000 A 
ENDBRANCH  22  24
ENDBRANCH  17  18
ENDBRANCH  16  17
ENDBRANCH   5  16
TORSDOF 8
ENDMDL
MODEL 6
REMARK VINA RESULT:    -7.134      2.872      5.900
REMARK INTER + INTRA:         -11.314
REMARK INTER:                 -10.261
REMARK INTRA:                  -1.053
REMARK UNBOUND:                -0.843
REMARK  Name = 
REMARK  10 active torsions:
REMARK  status: ('A' for Active; 'I' for Inactive)
REMARK    1  A    between atoms: C_1  and  C_2
REMARK    2  A    between atoms: C_2  and  C_3
REMARK    3  A    between atoms: C_2  and  C_4
REMARK    4  A    between atoms: C_4  and  C_5
REMARK    5  A    between atoms: C_5  and  N_6
REMARK    6  A    between atoms: C_7  and  C_9
REMARK    7  A    between atoms: C_13  and  O_14
REMARK    8  A    between atoms: O_14  and  C_15
REMARK    9  A    between atoms: C_15  and  C_16
REMARK   10  A    between atoms: C_20  and  C_21
REMARK                            x       y       z     vdW  Elec       q    Type
REMARK                         _______ _______ _______ _____ _____    ______ ____
ROOT
ATOM      1  C   UNL     1      47.228   8.575  12.480  0.00  0.00    +0.000 A 
ATOM      2  C   UNL     1      48.570   8.197  12.538  0.00  0.00    +0.000 A 
ATOM      3  C   UNL     1      48.864   6.903  12.918  0.00  0.00    +0.000 A 
ATOM      4  N   UNL     1      47.925   5.992  13.245  0.00  0.00    +0.000 NA
ATOM      5  C   UNL     1      46.635   6.382  13.161  0.00  0.00    +0.000 A 
ATOM      6  C   UNL     1      46.233   7.642  12.763  0.00  0.00    +0.000 A 
ENDROOT
BRANCH   1   8
ATOM      7  N   UNL     1      45.747  10.175  11.400  0.00  0.00    +0.000 N 
ATOM      8  C   UNL     1      46.911   9.977  12.113  0.00  0.00    +0.000 C 
ATOM      9  O   UNL     1      47.649  10.883  12.481  0.00  0.00    +0.000 OA
ATOM     10  H   UNL     1      45.128   9.401  11.205  0.00  0.00    +0.000 HD
BRANCH   7  11
ATOM     11  C   UNL     1      45.309  11.501  11.011  0.00  0.00    +0.000 C 
BRANCH  11  12
ATOM     12  C   UNL     1      43.821  11.728  11.282  0.00  0.00    +0.000 C 
BRANCH  12  14
ATOM     13  C   UNL     1      43.670  11.010   8.838  0.00  0.00    +0.000 C 
ATOM     14  C   UNL     1      42.892  11.384  10.101  0.00  0.00    +0.000 C 
ATOM     15  C   UNL     1      41.959  10.231  10.485  0.00  0.00    +0.000 C 
ENDBRANCH  12  14
ENDBRANCH  11  12
ENDBRANCH   7  11
ENDBRANCH   1   8
BRANCH   5  16
ATOM     16  O   UNL     1      45.636   5.479  13.463  0.00  0.00    +0.000 OA
BRANCH  16  17
ATOM     17  C   UNL     1      44.477   5.674  12.646  0.00  0.00    +0.000 C 
BRANCH  17  18
ATOM     18  C   UNL     1      44.242   4.464  11.785  0.00  0.00    +0.000 A 
ATOM     19  C   UNL     1      43.334   3.489  12.173  0.00  0.00    +0.000 A 
ATOM     20  N   UNL     1      43.121   2.343  11.494  0.00  0.00    +0.000 NA
ATOM     21  C   UNL     1      43.870   2.150  10.377  0.00  0.00    +0.000 A 
ATOM     22  C   UNL     1      44.820   3.042   9.879  0.00  0.00    +0.000 A 
ATOM     23  C   UNL     1      44.989   4.220  10.624  0.00  0.00    +0.000 A 
BRANCH  22  24
ATOM     24  C   UNL     1      45.603   2.776   8.657  0.00  0.00    +0.000 A 
ATOM     25  C   UNL     1      45.889   3.782   7.721  0.00  0.00    +0.000 A 
ATOM     26  C   UNL     1      46.609   3.496   6.560  0.00  0.00    +0.000 A 
ATOM     27  C   UNL     1      47.045   2.199   6.362  0.00  0.00    +0.000 A 
ATOM     28  N   UNL     1      46.809   1.197   7.231  0.00  0.00    +0.000 NA
ATOM     29  C   UNL     1      46.098   1.507   8.344  0.00  0.00    +0.000 A 
ENDBRANCH  22  24
ENDBRANCH  17  18
ENDBRANCH  16  17
ENDBRANCH   5  16
TORSDOF 8
ENDMDL
MODEL 7
REMARK VINA RESULT:    -6.968      4.133      7.314
REMARK INTER + INTRA:         -11.070
REMARK INTER:                 -10.308
REMARK INTRA:                  -0.762
REMARK UNBOUND:                -0.843
REMARK  Name = 
REMARK  10 active torsions:
REMARK  status: ('A' for Active; 'I' for Inactive)
REMARK    1  A    between atoms: C_1  and  C_2
REMARK    2  A    between atoms: C_2  and  C_3
REMARK    3  A    between atoms: C_2  and  C_4
REMARK    4  A    between atoms: C_4  and  C_5
REMARK    5  A    between atoms: C_5  and  N_6
REMARK    6  A    between atoms: C_7  and  C_9
REMARK    7  A    between atoms: C_13  and  O_14
REMARK    8  A    between atoms: O_14  and  C_15
REMARK    9  A    between atoms: C_15  and  C_16
REMARK   10  A    between atoms: C_20  and  C_21
REMARK                            x       y       z     vdW  Elec       q    Type
REMARK                         _______ _______ _______ _____ _____    ______ ____
ROOT
ATOM      1  C   UNL     1      44.215  10.568  11.432  0.00  0.00    +0.000 A 
ATOM      2  C   UNL     1      45.156  11.595  11.529  0.00  0.00    +0.000 A 
ATOM      3  C   UNL     1      46.458  11.256  11.835  0.00  0.00    +0.000 A 
ATOM      4  N   UNL     1      46.864   9.988  12.055  0.00  0.00    +0.000 NA
ATOM      5  C   UNL     1      45.935   9.016  11.935  0.00  0.00    +0.000 A 
ATOM      6  C   UNL     1      44.614   9.245  11.604  0.00  0.00    +0.000 A 
ENDROOT
BRANCH   1   8
ATOM      7  N   UNL     1      41.962  11.019  12.232  0.00  0.00    +0.000 N 
ATOM      8  C   UNL     1      42.806  10.936  11.144  0.00  0.00    +0.000 C 
ATOM      9  O   UNL     1      42.466  11.185   9.994  0.00  0.00    +0.000 OA
ATOM     10  H   UNL     1      42.319  10.895  13.168  0.00  0.00    +0.000 HD
BRANCH   7  11
ATOM     11  C   UNL     1      40.572  11.403  12.088  0.00  0.00    +0.000 C 
BRANCH  11  12
ATOM     12  C   UNL     1      39.723  10.297  11.456  0.00  0.00    +0.000 C 
BRANCH  12  14
ATOM     13  C   UNL     1      37.406   9.256  11.700  0.00  0.00    +0.000 C 
ATOM     14  C   UNL     1      38.202  10.547  11.506  0.00  0.00    +0.000 C 
ATOM     15  C   UNL     1      37.868  11.526  12.636  0.00  0.00    +0.000 C 
ENDBRANCH  12  14
ENDBRANCH  11  12
ENDBRANCH   7  11
ENDBRANCH   1   8
BRANCH   5  16
ATOM     16  O   UNL     1      46.307   7.701  12.128  0.00  0.00    +0.000 OA
BRANCH  16  17
ATOM     17  C   UNL     1      45.356   6.991  12.927  0.00  0.00    +0.000 C 
BRANCH  17  18
ATOM     18  C   UNL     1      44.710   5.901  12.117  0.00  0.00    +0.000 A 
ATOM     19  C   UNL     1      43.501   5.349  12.515  0.00  0.00    +0.000 A 
ATOM     20  N   UNL     1      42.896   4.321  11.884  0.00  0.00    +0.000 NA
ATOM     21  C   UNL     1      43.542   3.804  10.808  0.00  0.00    +0.000 A 
ATOM     22  C   UNL     1      44.762   4.258  10.304  0.00  0.00    +0.000 A 
ATOM     23  C   UNL     1      45.337   5.334  10.998  0.00  0.00    +0.000 A 
BRANCH  22  24
ATOM     24  C   UNL     1      45.415   3.654   9.127  0.00  0.00    +0.000 A 
ATOM     25  C   UNL     1      45.601   2.268   9.005  0.00  0.00    +0.000 A 
ATOM     26  C   UNL     1      46.246   1.727   7.894  0.00  0.00    +0.000 A 
ATOM     27  C   UNL     1      46.686   2.590   6.907  0.00  0.00    +0.000 A 
ATOM     28  N   UNL     1      46.526   3.926   6.965  0.00  0.00    +0.000 NA
ATOM     29  C   UNL     1      45.903   4.420   8.065  0.00  0.00    +0.000 A 
ENDBRANCH  22  24
ENDBRANCH  17  18
ENDBRANCH  16  17
ENDBRANCH   5  16
TORSDOF 8
ENDMDL
MODEL 8
REMARK VINA RESULT:    -6.936      3.196      4.579
REMARK INTER + INTRA:         -11.024
REMARK INTER:                 -10.255
REMARK INTRA:                  -0.769
REMARK UNBOUND:                -0.843
REMARK  Name = 
REMARK  10 active torsions:
REMARK  status: ('A' for Active; 'I' for Inactive)
REMARK    1  A    between atoms: C_1  and  C_2
REMARK    2  A    between atoms: C_2  and  C_3
REMARK    3  A    between atoms: C_2  and  C_4
REMARK    4  A    between atoms: C_4  and  C_5
REMARK    5  A    between atoms: C_5  and  N_6
REMARK    6  A    between atoms: C_7  and  C_9
REMARK    7  A    between atoms: C_13  and  O_14
REMARK    8  A    between atoms: O_14  and  C_15
REMARK    9  A    between atoms: C_15  and  C_16
REMARK   10  A    between atoms: C_20  and  C_21
REMARK                            x       y       z     vdW  Elec       q    Type
REMARK                         _______ _______ _______ _____ _____    ______ ____
ROOT
ATOM      1  C   UNL     1      48.162   4.327  17.629  0.00  0.00    +0.000 A 
ATOM      2  C   UNL     1      49.072   3.289  17.835  0.00  0.00    +0.000 A 
ATOM      3  C   UNL     1      49.219   2.347  16.838  0.00  0.00    +0.000 A 
ATOM      4  N   UNL     1      48.524   2.372  15.682  0.00  0.00    +0.000 NA
ATOM      5  C   UNL     1      47.667   3.399  15.503  0.00  0.00    +0.000 A 
ATOM      6  C   UNL     1      47.466   4.409  16.424  0.00  0.00    +0.000 A 
ENDROOT
BRANCH   1   8
ATOM      7  N   UNL     1      47.498   6.557  18.341  0.00  0.00    +0.000 N 
ATOM      8  C   UNL     1      47.971   5.317  18.717  0.00  0.00    +0.000 C 
ATOM      9  O   UNL     1      48.193   4.994  19.878  0.00  0.00    +0.000 OA
ATOM     10  H   UNL     1      47.243   6.737  17.380  0.00  0.00    +0.000 HD
BRANCH   7  11
ATOM     11  C   UNL     1      47.237   7.599  19.313  0.00  0.00    +0.000 C 
BRANCH  11  12
ATOM     12  C   UNL     1      47.638   8.986  18.807  0.00  0.00    +0.000 C 
BRANCH  12  14
ATOM     13  C   UNL     1      46.781  11.306  19.434  0.00  0.00    +0.000 C 
ATOM     14  C   UNL     1      47.604  10.095  19.877  0.00  0.00    +0.000 C 
ATOM     15  C   UNL     1      47.035   9.544  21.187  0.00  0.00    +0.000 C 
ENDBRANCH  12  14
ENDBRANCH  11  12
ENDBRANCH   7  11
ENDBRANCH   1   8
BRANCH   5  16
ATOM     16  O   UNL     1      46.949   3.482  14.327  0.00  0.00    +0.000 OA
BRANCH  16  17
ATOM     17  C   UNL     1      46.052   4.597  14.328  0.00  0.00    +0.000 C 
BRANCH  17  18
ATOM     18  C   UNL     1      45.186   4.565  13.099  0.00  0.00    +0.000 A 
ATOM     19  C   UNL     1      43.830   4.843  13.186  0.00  0.00    +0.000 A 
ATOM     20  N   UNL     1      42.975   4.763  12.145  0.00  0.00    +0.000 NA
ATOM     21  C   UNL     1      43.499   4.366  10.957  0.00  0.00    +0.000 A 
ATOM     22  C   UNL     1      44.839   4.051  10.731  0.00  0.00    +0.000 A 
ATOM     23  C   UNL     1      45.680   4.161  11.850  0.00  0.00    +0.000 A 
BRANCH  22  24
ATOM     24  C   UNL     1      45.350   3.626   9.414  0.00  0.00    +0.000 A 
ATOM     25  C   UNL     1      45.477   2.272   9.064  0.00  0.00    +0.000 A 
ATOM     26  C   UNL     1      45.988   1.899   7.822  0.00  0.00    +0.000 A 
ATOM     27  C   UNL     1      46.354   2.896   6.937  0.00  0.00    +0.000 A 
ATOM     28  N   UNL     1      46.244   4.210   7.214  0.00  0.00    +0.000 NA
ATOM     29  C   UNL     1      45.753   4.538   8.436  0.00  0.00    +0.000 A 
ENDBRANCH  22  24
ENDBRANCH  17  18
ENDBRANCH  16  17
ENDBRANCH   5  16
TORSDOF 8
ENDMDL
MODEL 9
REMARK VINA RESULT:    -6.914      4.775      8.669
REMARK INTER + INTRA:         -10.991
REMARK INTER:                 -10.042
REMARK INTRA:                  -0.948
REMARK UNBOUND:                -0.843
REMARK  Name = 
REMARK  10 active torsions:
REMARK  status: ('A' for Active; 'I' for Inactive)
REMARK    1  A    between atoms: C_1  and  C_2
REMARK    2  A    between atoms: C_2  and  C_3
REMARK    3  A    between atoms: C_2  and  C_4
REMARK    4  A    between atoms: C_4  and  C_5
REMARK    5  A    between atoms: C_5  and  N_6
REMARK    6  A    between atoms: C_7  and  C_9
REMARK    7  A    between atoms: C_13  and  O_14
REMARK    8  A    between atoms: O_14  and  C_15
REMARK    9  A    between atoms: C_15  and  C_16
REMARK   10  A    between atoms: C_20  and  C_21
REMARK                            x       y       z     vdW  Elec       q    Type
REMARK                         _______ _______ _______ _____ _____    ______ ____
ROOT
ATOM      1  C   UNL     1      45.706   6.283  11.674  0.00  0.00    +0.000 A 
ATOM      2  C   UNL     1      46.788   6.138  12.544  0.00  0.00    +0.000 A 
ATOM      3  C   UNL     1      47.132   7.213  13.337  0.00  0.00    +0.000 A 
ATOM      4  N   UNL     1      46.486   8.397  13.307  0.00  0.00    +0.000 NA
ATOM      5  C   UNL     1      45.432   8.500  12.470  0.00  0.00    +0.000 A 
ATOM      6  C   UNL     1      44.987   7.476  11.656  0.00  0.00    +0.000 A 
ENDROOT
BRANCH   1   8
ATOM      7  N   UNL     1      45.531   5.344   9.436  0.00  0.00    +0.000 N 
ATOM      8  C   UNL     1      45.361   5.142  10.790  0.00  0.00    +0.000 C 
ATOM      9  O   UNL     1      44.992   4.083  11.281  0.00  0.00    +0.000 OA
ATOM     10  H   UNL     1      45.929   6.207   9.093  0.00  0.00    +0.000 HD
BRANCH   7  11
ATOM     11  C   UNL     1      45.263   4.297   8.471  0.00  0.00    +0.000 C 
BRANCH  11  12
ATOM     12  C   UNL     1      46.483   3.970   7.608  0.00  0.00    +0.000 C 
BRANCH  12  14
ATOM     13  C   UNL     1      46.987   2.870   5.361  0.00  0.00    +0.000 C 
ATOM     14  C   UNL     1      46.333   2.709   6.734  0.00  0.00    +0.000 C 
ATOM     15  C   UNL     1      46.941   1.499   7.450  0.00  0.00    +0.000 C 
ENDBRANCH  12  14
ENDBRANCH  11  12
ENDBRANCH   7  11
ENDBRANCH   1   8
BRANCH   5  16
ATOM     16  O   UNL     1      44.723   9.683  12.420  0.00  0.00    +0.000 OA
BRANCH  16  17
ATOM     17  C   UNL     1      45.220  10.559  11.403  0.00  0.00    +0.000 C 
BRANCH  17  18
ATOM     18  C   UNL     1      44.110  10.942  10.463  0.00  0.00    +0.000 A 
ATOM     19  C   UNL     1      44.393  11.568   9.258  0.00  0.00    +0.000 A 
ATOM     20  N   UNL     1      43.451  12.008   8.397  0.00  0.00    +0.000 NA
ATOM     21  C   UNL     1      42.158  11.831   8.769  0.00  0.00    +0.000 A 
ATOM     22  C   UNL     1      41.733  11.224   9.951  0.00  0.00    +0.000 A 
ATOM     23  C   UNL     1      42.759  10.780  10.801  0.00  0.00    +0.000 A 
BRANCH  22  24
ATOM     24  C   UNL     1      40.309  11.059  10.300  0.00  0.00    +0.000 A 
ATOM     25  C   UNL     1      39.891  10.246  11.364  0.00  0.00    +0.000 A 
ATOM     26  C   UNL     1      38.536  10.086  11.654  0.00  0.00    +0.000 A 
ATOM     27  C   UNL     1      37.616  10.761  10.875  0.00  0.00    +0.000 A 
ATOM     28  N   UNL     1      37.959  11.563   9.848  0.00  0.00    +0.000 NA
ATOM     29  C   UNL     1      39.285  11.687   9.587  0.00  0.00    +0.000 A 
ENDBRANCH  22  24
ENDBRANCH  17  18
ENDBRANCH  16  17
ENDBRANCH   5  16
TORSDOF 8
ENDMDL
