MODEL 1
REMARK VINA RESULT:    -8.166      0.000      0.000
REMARK INTER + INTRA:         -13.065
REMARK INTER:                 -11.986
REMARK INTRA:                  -1.080
REMARK UNBOUND:                -1.080
REMARK  Name = 
REMARK  10 active torsions:
REMARK  status: ('A' for Active; 'I' for Inactive)
REMARK    1  A    between atoms: C_1  and  C_2
REMARK    2  A    between atoms: C_2  and  C_3
REMARK    3  A    between atoms: C_2  and  C_4
REMARK    4  A    between atoms: C_4  and  O_5
REMARK    5  A    between atoms: O_5  and  C_6
REMARK    6  A    between atoms: C_8  and  C_9
REMARK    7  A    between atoms: C_13  and  C_14
REMARK    8  A    between atoms: C_14  and  O_15
REMARK    9  A    between atoms: O_15  and  C_16
REMARK   10  A    between atoms: C_19  and  C_20
REMARK                            x       y       z     vdW  Elec       q    Type
REMARK                         _______ _______ _______ _____ _____    ______ ____
ROOT
ATOM      1  C   UNL     1      46.185   6.079  12.581  0.00  0.00    +0.000 A 
ATOM      2  C   UNL     1      47.028   5.360  13.450  0.00  0.00    +0.000 A 
ATOM      3  C   UNL     1      46.900   3.979  13.615  0.00  0.00    +0.000 A 
ATOM      4  C   UNL     1      45.904   3.284  12.938  0.00  0.00    +0.000 A 
ATOM      5  C   UNL     1      45.026   3.965  12.090  0.00  0.00    +0.000 A 
ATOM      6  C   UNL     1      45.195   5.348  11.896  0.00  0.00    +0.000 A 
ENDROOT
BRANCH   1   9
ATOM      7  C   UNL     1      45.407   9.757  12.172  0.00  0.00    +0.000 A 
ATOM      8  C   UNL     1      45.216   8.400  12.385  0.00  0.00    +0.000 A 
ATOM      9  C   UNL     1      46.328   7.544  12.402  0.00  0.00    +0.000 A 
ATOM     10  C   UNL     1      47.588   8.140  12.240  0.00  0.00    +0.000 A 
ATOM     11  C   UNL     1      47.680   9.513  12.070  0.00  0.00    +0.000 A 
ATOM     12  N   UNL     1      46.616  10.331  12.024  0.00  0.00    +0.000 NA
BRANCH   7  13
ATOM     13  O   UNL     1      44.276  10.553  12.133  0.00  0.00    +0.000 OA
BRANCH  13  14
ATOM     14  C   UNL     1      44.194  11.277  10.902  0.00  0.00    +0.000 C 
BRANCH  14  16
ATOM     15  C   UNL     1      42.127   9.907  10.573  0.00  0.00    +0.000 C 
ATOM     16  C   UNL     1      43.354  10.501   9.880  0.00  0.00    +0.000 C 
ATOM     17  C   UNL     1      42.931  11.373   8.699  0.00  0.00    +0.000 C 
ENDBRANCH  14  16
ENDBRANCH  13  14
ENDBRANCH   7  13
ENDBRANCH   1   9
BRANCH   5  18
ATOM     18  C   UNL     1      43.882   3.237  11.425  0.00  0.00    +0.000 C 
BRANCH  18  19
ATOM     19  O   UNL     1      43.654   3.768  10.118  0.00  0.00    +0.000 OA
BRANCH  19  20
ATOM     20  C   UNL     1      44.619   3.352   9.224  0.00  0.00    +0.000 A 
ATOM     21  C   UNL     1      45.217   4.303   8.402  0.00  0.00    +0.000 A 
ATOM     22  N   UNL     1      46.198   4.002   7.509  0.00  0.00    +0.000 NA
ATOM     23  C   UNL     1      46.550   2.684   7.480  0.00  0.00    +0.000 A 
ATOM     24  C   UNL     1      45.948   1.732   8.290  0.00  0.00    +0.000 A 
ATOM     25  N   UNL     1      44.971   2.045   9.176  0.00  0.00    +0.000 NA
BRANCH  23  26
ATOM     26  C   UNL     1      47.635   2.262   6.554  0.00  0.00    +0.000 C 
ATOM     27  N   UNL     1      47.742   2.966   5.386  0.00  0.00    +0.000 N 
ATOM     28  O   UNL     1      48.398   1.342   6.821  0.00  0.00    +0.000 OA
ATOM     29  H   UNL     1      47.106   3.734   5.193  0.00  0.00    +0.000 HD
ATOM     30  H   UNL     1      48.476   2.732   4.734  0.00  0.00    +0.000 HD
ENDBRANCH  23  26
ENDBRANCH  19  20
ENDBRANCH  18  19
ENDBRANCH   5  18
TORSDOF 8
ENDMDL
MODEL 2
REMARK VINA RESULT:    -7.796      2.793      5.341
REMARK INTER + INTRA:         -12.523
REMARK INTER:                 -11.447
REMARK INTRA:                  -1.076
REMARK UNBOUND:                -1.080
REMARK  Name = 
REMARK  10 active torsions:
REMARK  status: ('A' for Active; 'I' for Inactive)
REMARK    1  A    between atoms: C_1  and  C_2
REMARK    2  A    between atoms: C_2  and  C_3
REMARK    3  A    between atoms: C_2  and  C_4
REMARK    4  A    between atoms: C_4  and  O_5
REMARK    5  A    between atoms: O_5  and  C_6
REMARK    6  A    between atoms: C_8  and  C_9
REMARK    7  A    between atoms: C_13  and  C_14
REMARK    8  A    between atoms: C_14  and  O_15
REMARK    9  A    between atoms: O_15  and  C_16
REMARK   10  A    between atoms: C_19  and  C_20
REMARK                            x       y       z     vdW  Elec       q    Type
REMARK                         _______ _______ _______ _____ _____    ______ ____
ROOT
ATOM      1  C   UNL     1      46.294   6.188  12.954  0.00  0.00    +0.000 A 
ATOM      2  C   UNL     1      45.518   7.261  12.475  0.00  0.00    +0.000 A 
ATOM      3  C   UNL     1      44.325   7.048  11.780  0.00  0.00    +0.000 A 
ATOM      4  C   UNL     1      43.892   5.753  11.517  0.00  0.00    +0.000 A 
ATOM      5  C   UNL     1      44.650   4.659  11.946  0.00  0.00    +0.000 A 
ATOM      6  C   UNL     1      45.824   4.888  12.687  0.00  0.00    +0.000 A 
ENDROOT
BRANCH   1   9
ATOM      7  C   UNL     1      48.937   6.197  15.659  0.00  0.00    +0.000 A 
ATOM      8  C   UNL     1      47.752   5.915  14.994  0.00  0.00    +0.000 A 
ATOM      9  C   UNL     1      47.555   6.417  13.698  0.00  0.00    +0.000 A 
ATOM     10  C   UNL     1      48.611   7.150  13.136  0.00  0.00    +0.000 A 
ATOM     11  C   UNL     1      49.774   7.347  13.866  0.00  0.00    +0.000 A 
ATOM     12  N   UNL     1      49.954   6.894  15.117  0.00  0.00    +0.000 NA
BRANCH   7  13
ATOM     13  O   UNL     1      49.068   5.706  16.945  0.00  0.00    +0.000 OA
BRANCH  13  14
ATOM     14  C   UNL     1      48.082   4.707  17.222  0.00  0.00    +0.000 C 
BRANCH  14  16
ATOM     15  C   UNL     1      48.787   2.398  16.567  0.00  0.00    +0.000 C 
ATOM     16  C   UNL     1      48.752   3.415  17.709  0.00  0.00    +0.000 C 
ATOM     17  C   UNL     1      50.161   3.664  18.246  0.00  0.00    +0.000 C 
ENDBRANCH  14  16
ENDBRANCH  13  14
ENDBRANCH   7  13
ENDBRANCH   1   9
BRANCH   5  18
ATOM     18  C   UNL     1      44.239   3.252  11.584  0.00  0.00    +0.000 C 
BRANCH  18  19
ATOM     19  O   UNL     1      43.662   3.228  10.278  0.00  0.00    +0.000 OA
BRANCH  19  20
ATOM     20  C   UNL     1      44.608   2.973   9.307  0.00  0.00    +0.000 A 
ATOM     21  C   UNL     1      44.995   4.015   8.467  0.00  0.00    +0.000 A 
ATOM     22  N   UNL     1      45.941   3.876   7.499  0.00  0.00    +0.000 NA
ATOM     23  C   UNL     1      46.482   2.626   7.413  0.00  0.00    +0.000 A 
ATOM     24  C   UNL     1      46.090   1.584   8.241  0.00  0.00    +0.000 A 
ATOM     25  N   UNL     1      45.146   1.735   9.203  0.00  0.00    +0.000 NA
BRANCH  23  26
ATOM     26  C   UNL     1      47.546   2.384   6.402  0.00  0.00    +0.000 C 
ATOM     27  N   UNL     1      47.428   3.070   5.225  0.00  0.00    +0.000 N 
ATOM     28  O   UNL     1      48.479   1.619   6.609  0.00  0.00    +0.000 OA
ATOM     29  H   UNL     1      46.652   3.708   5.080  0.00  0.00    +0.000 HD
ATOM     30  H   UNL     1      48.137   2.956   4.515  0.00  0.00    +0.000 HD
ENDBRANCH  23  26
ENDBRANCH  19  20
ENDBRANCH  18  19
ENDBRANCH   5  18
TORSDOF 8
ENDMDL
MODEL 3
REMARK VINA RESULT:    -7.762      3.579      5.711
REMARK INTER + INTRA:         -12.472
REMARK INTER:                 -11.515
REMARK INTRA:                  -0.958
REMARK UNBOUND:                -1.080
REMARK  Name = 
REMARK  10 active torsions:
REMARK  status: ('A' for Active; 'I' for Inactive)
REMARK    1  A    between atoms: C_1  and  C_2
REMARK    2  A    between atoms: C_2  and  C_3
REMARK    3  A    between atoms: C_2  and  C_4
REMARK    4  A    between atoms: C_4  and  O_5
REMARK    5  A    between atoms: O_5  and  C_6
REMARK    6  A    between atoms: C_8  and  C_9
REMARK    7  A    between atoms: C_13  and  C_14
REMARK    8  A    between atoms: C_14  and  O_15
REMARK    9  A    between atoms: O_15  and  C_16
REMARK   10  A    between atoms: C_19  and  C_20
REMARK                            x       y       z     vdW  Elec       q    Type
REMARK                         _______ _______ _______ _____ _____    ______ ____
ROOT
ATOM      1  C   UNL     1      46.613   5.459  13.659  0.00  0.00    +0.000 A 
ATOM      2  C   UNL     1      46.962   6.681  13.055  0.00  0.00    +0.000 A 
ATOM      3  C   UNL     1      46.264   7.177  11.950  0.00  0.00    +0.000 A 
ATOM      4  C   UNL     1      45.217   6.445  11.401  0.00  0.00    +0.000 A 
ATOM      5  C   UNL     1      44.859   5.211  11.952  0.00  0.00    +0.000 A 
ATOM      6  C   UNL     1      45.538   4.747  13.092  0.00  0.00    +0.000 A 
ENDROOT
BRANCH   1   9
ATOM      7  C   UNL     1      48.786   5.238  16.746  0.00  0.00    +0.000 A 
ATOM      8  C   UNL     1      48.082   5.785  15.684  0.00  0.00    +0.000 A 
ATOM      9  C   UNL     1      47.350   4.940  14.836  0.00  0.00    +0.000 A 
ATOM     10  C   UNL     1      47.348   3.573  15.153  0.00  0.00    +0.000 A 
ATOM     11  C   UNL     1      48.053   3.125  16.259  0.00  0.00    +0.000 A 
ATOM     12  N   UNL     1      48.779   3.927  17.056  0.00  0.00    +0.000 NA
BRANCH   7  13
ATOM     13  O   UNL     1      49.517   6.110  17.532  0.00  0.00    +0.000 OA
BRANCH  13  14
ATOM     14  C   UNL     1      49.182   5.965  18.915  0.00  0.00    +0.000 C 
BRANCH  14  16
ATOM     15  C   UNL     1      47.347   6.156  20.605  0.00  0.00    +0.000 C 
ATOM     16  C   UNL     1      47.786   6.538  19.190  0.00  0.00    +0.000 C 
ATOM     17  C   UNL     1      47.739   8.054  19.007  0.00  0.00    +0.000 C 
ENDBRANCH  14  16
ENDBRANCH  13  14
ENDBRANCH   7  13
ENDBRANCH   1   9
BRANCH   5  18
ATOM     18  C   UNL     1      43.787   4.366  11.306  0.00  0.00    +0.000 C 
BRANCH  18  19
ATOM     19  O   UNL     1      43.707   4.653   9.909  0.00  0.00    +0.000 OA
BRANCH  19  20
ATOM     20  C   UNL     1      44.664   3.965   9.192  0.00  0.00    +0.000 A 
ATOM     21  C   UNL     1      44.755   2.586   9.360  0.00  0.00    +0.000 A 
ATOM     22  N   UNL     1      45.642   1.811   8.679  0.00  0.00    +0.000 NA
ATOM     23  C   UNL     1      46.444   2.498   7.815  0.00  0.00    +0.000 A 
ATOM     24  C   UNL     1      46.364   3.874   7.654  0.00  0.00    +0.000 A 
ATOM     25  N   UNL     1      45.474   4.635   8.339  0.00  0.00    +0.000 NA
BRANCH  23  26
ATOM     26  C   UNL     1      47.429   1.733   7.004  0.00  0.00    +0.000 C 
ATOM     27  N   UNL     1      48.475   2.449   6.489  0.00  0.00    +0.000 N 
ATOM     28  O   UNL     1      47.317   0.529   6.810  0.00  0.00    +0.000 OA
ATOM     29  H   UNL     1      48.552   3.444   6.674  0.00  0.00    +0.000 HD
ATOM     30  H   UNL     1      49.181   1.970   5.950  0.00  0.00    +0.000 HD
ENDBRANCH  23  26
ENDBRANCH  19  20
ENDBRANCH  18  19
ENDBRANCH   5  18
TORSDOF 8
ENDMDL
MODEL 4
REMARK VINA RESULT:    -7.747      2.428      4.146
REMARK INTER + INTRA:         -12.450
REMARK INTER:                 -11.583
REMARK INTRA:                  -0.867
REMARK UNBOUND:                -1.080
REMARK  Name = 
REMARK  10 active torsions:
REMARK  status: ('A' for Active; 'I' for Inactive)
REMARK    1  A    between atoms: C_1  and  C_2
REMARK    2  A    between atoms: C_2  and  C_3
REMARK    3  A    between atoms: C_2  and  C_4
REMARK    4  A    between atoms: C_4  and  O_5
REMARK    5  A    between atoms: O_5  and  C_6
REMARK    6  A    between atoms: C_8  and  C_9
REMARK    7  A    between atoms: C_13  and  C_14
REMARK    8  A    between atoms: C_14  and  O_15
REMARK    9  A    between atoms: O_15  and  C_16
REMARK   10  A    between atoms: C_19  and  C_20
REMARK                            x       y       z     vdW  Elec       q    Type
REMARK                         _______ _______ _______ _____ _____    ______ ____
ROOT
ATOM      1  C   UNL     1      46.671   6.366  12.397  0.00  0.00    +0.000 A 
ATOM      2  C   UNL     1      47.247   5.496  13.342  0.00  0.00    +0.000 A 
ATOM      3  C   UNL     1      46.737   4.214  13.563  0.00  0.00    +0.000 A 
ATOM      4  C   UNL     1      45.615   3.779  12.866  0.00  0.00    +0.000 A 
ATOM      5  C   UNL     1      44.994   4.624  11.941  0.00  0.00    +0.000 A 
ATOM      6  C   UNL     1      45.546   5.893  11.693  0.00  0.00    +0.000 A 
ENDROOT
BRANCH   1   9
ATOM      7  C   UNL     1      49.044   9.230  11.719  0.00  0.00    +0.000 A 
ATOM      8  C   UNL     1      48.580   7.935  11.893  0.00  0.00    +0.000 A 
ATOM      9  C   UNL     1      47.219   7.722  12.159  0.00  0.00    +0.000 A 
ATOM     10  C   UNL     1      46.395   8.858  12.191  0.00  0.00    +0.000 A 
ATOM     11  C   UNL     1      46.947  10.110  11.967  0.00  0.00    +0.000 A 
ATOM     12  N   UNL     1      48.253  10.320  11.742  0.00  0.00    +0.000 NA
BRANCH   7  13
ATOM     13  O   UNL     1      50.399   9.388  11.491  0.00  0.00    +0.000 OA
BRANCH  13  14
ATOM     14  C   UNL     1      51.037   8.128  11.265  0.00  0.00    +0.000 C 
BRANCH  14  16
ATOM     15  C   UNL     1      53.278   9.093  10.716  0.00  0.00    +0.000 C 
ATOM     16  C   UNL     1      52.113   8.260  10.179  0.00  0.00    +0.000 C 
ATOM     17  C   UNL     1      52.609   6.901   9.690  0.00  0.00    +0.000 C 
ENDBRANCH  14  16
ENDBRANCH  13  14
ENDBRANCH   7  13
ENDBRANCH   1   9
BRANCH   5  18
ATOM     18  C   UNL     1      43.721   4.198  11.248  0.00  0.00    +0.000 C 
BRANCH  18  19
ATOM     19  O   UNL     1      43.740   4.617   9.882  0.00  0.00    +0.000 OA
BRANCH  19  20
ATOM     20  C   UNL     1      44.684   3.928   9.151  0.00  0.00    +0.000 A 
ATOM     21  C   UNL     1      44.744   2.543   9.281  0.00  0.00    +0.000 A 
ATOM     22  N   UNL     1      45.617   1.768   8.583  0.00  0.00    +0.000 NA
ATOM     23  C   UNL     1      46.438   2.460   7.740  0.00  0.00    +0.000 A 
ATOM     24  C   UNL     1      46.389   3.841   7.618  0.00  0.00    +0.000 A 
ATOM     25  N   UNL     1      45.513   4.602   8.319  0.00  0.00    +0.000 NA
BRANCH  23  26
ATOM     26  C   UNL     1      47.409   1.696   6.913  0.00  0.00    +0.000 C 
ATOM     27  N   UNL     1      48.474   2.401   6.423  0.00  0.00    +0.000 N 
ATOM     28  O   UNL     1      47.272   0.500   6.685  0.00  0.00    +0.000 OA
ATOM     29  H   UNL     1      48.573   3.389   6.635  0.00  0.00    +0.000 HD
ATOM     30  H   UNL     1      49.172   1.923   5.873  0.00  0.00    +0.000 HD
ENDBRANCH  23  26
ENDBRANCH  19  20
ENDBRANCH  18  19
ENDBRANCH   5  18
TORSDOF 8
ENDMDL
MODEL 5
REMARK VINA RESULT:    -7.744      4.962      7.947
REMARK INTER + INTRA:         -12.445
REMARK INTER:                 -11.370
REMARK INTRA:                  -1.075
REMARK UNBOUND:                -1.080
REMARK  Name = 
REMARK  10 active torsions:
REMARK  status: ('A' for Active; 'I' for Inactive)
REMARK    1  A    between atoms: C_1  and  C_2
REMARK    2  A    between atoms: C_2  and  C_3
REMARK    3  A    between atoms: C_2  and  C_4
REMARK    4  A    between atoms: C_4  and  O_5
REMARK    5  A    between atoms: O_5  and  C_6
REMARK    6  A    between atoms: C_8  and  C_9
REMARK    7  A    between atoms: C_13  and  C_14
REMARK    8  A    between atoms: C_14  and  O_15
REMARK    9  A    between atoms: O_15  and  C_16
REMARK   10  A    between atoms: C_19  and  C_20
REMARK                            x       y       z     vdW  Elec       q    Type
REMARK                         _______ _______ _______ _____ _____    ______ ____
ROOT
ATOM      1  C   UNL     1      46.668   6.094  12.723  0.00  0.00    +0.000 A 
ATOM      2  C   UNL     1      47.467   6.865  11.857  0.00  0.00    +0.000 A 
ATOM      3  C   UNL     1      48.676   7.424  12.280  0.00  0.00    +0.000 A 
ATOM      4  C   UNL     1      49.103   7.252  13.593  0.00  0.00    +0.000 A 
ATOM      5  C   UNL     1      48.323   6.519  14.493  0.00  0.00    +0.000 A 
ATOM      6  C   UNL     1      47.133   5.922  14.041  0.00  0.00    +0.000 A 
ENDROOT
BRANCH   1   9
ATOM      7  C   UNL     1      44.060   4.286  10.666  0.00  0.00    +0.000 A 
ATOM      8  C   UNL     1      45.292   4.788  11.060  0.00  0.00    +0.000 A 
ATOM      9  C   UNL     1      45.391   5.496  12.269  0.00  0.00    +0.000 A 
ATOM     10  C   UNL     1      44.218   5.613  13.031  0.00  0.00    +0.000 A 
ATOM     11  C   UNL     1      43.042   5.043  12.570  0.00  0.00    +0.000 A 
ATOM     12  N   UNL     1      42.936   4.391  11.401  0.00  0.00    +0.000 NA
BRANCH   7  13
ATOM     13  O   UNL     1      44.010   3.625   9.452  0.00  0.00    +0.000 OA
BRANCH  13  14
ATOM     14  C   UNL     1      44.973   4.151   8.535  0.00  0.00    +0.000 C 
BRANCH  14  16
ATOM     15  C   UNL     1      46.834   3.524   6.985  0.00  0.00    +0.000 C 
ATOM     16  C   UNL     1      45.565   3.025   7.677  0.00  0.00    +0.000 C 
ATOM     17  C   UNL     1      45.862   1.770   8.498  0.00  0.00    +0.000 C 
ENDBRANCH  14  16
ENDBRANCH  13  14
ENDBRANCH   7  13
ENDBRANCH   1   9
BRANCH   5  18
ATOM     18  C   UNL     1      48.730   6.406  15.943  0.00  0.00    +0.000 C 
BRANCH  18  19
ATOM     19  O   UNL     1      48.147   5.240  16.529  0.00  0.00    +0.000 OA
BRANCH  19  20
ATOM     20  C   UNL     1      49.093   4.266  16.774  0.00  0.00    +0.000 A 
ATOM     21  C   UNL     1      50.292   4.642  17.375  0.00  0.00    +0.000 A 
ATOM     22  N   UNL     1      51.276   3.755  17.687  0.00  0.00    +0.000 NA
ATOM     23  C   UNL     1      50.995   2.461  17.360  0.00  0.00    +0.000 A 
ATOM     24  C   UNL     1      49.806   2.086  16.750  0.00  0.00    +0.000 A 
ATOM     25  N   UNL     1      48.833   2.979  16.445  0.00  0.00    +0.000 NA
BRANCH  23  26
ATOM     26  C   UNL     1      52.000   1.414  17.688  0.00  0.00    +0.000 C 
ATOM     27  N   UNL     1      51.506   0.228  18.157  0.00  0.00    +0.000 N 
ATOM     28  O   UNL     1      53.202   1.597  17.541  0.00  0.00    +0.000 OA
ATOM     29  H   UNL     1      50.505   0.096  18.259  0.00  0.00    +0.000 HD
ATOM     30  H   UNL     1      52.147  -0.521  18.374  0.00  0.00    +0.000 HD
ENDBRANCH  23  26
ENDBRANCH  19  20
ENDBRANCH  18  19
ENDBRANCH   5  18
TORSDOF 8
ENDMDL
MODEL 6
REMARK VINA RESULT:    -7.625      4.288      8.594
REMARK INTER + INTRA:         -12.271
REMARK INTER:                 -11.250
REMARK INTRA:                  -1.021
REMARK UNBOUND:                -1.080
REMARK  Name = 
REMARK  10 active torsions:
REMARK  status: ('A' for Active; 'I' for Inactive)
REMARK    1  A    between atoms: C_1  and  C_2
REMARK    2  A    between atoms: C_2  and  C_3
REMARK    3  A    between atoms: C_2  and  C_4
REMARK    4  A    between atoms: C_4  and  O_5
REMARK    5  A    between atoms: O_5  and  C_6
REMARK    6  A    between atoms: C_8  and  C_9
REMARK    7  A    between atoms: C_13  and  C_14
REMARK    8  A    between atoms: C_14  and  O_15
REMARK    9  A    between atoms: O_15  and  C_16
REMARK   10  A    between atoms: C_19  and  C_20
REMARK                            x       y       z     vdW  Elec       q    Type
REMARK                         _______ _______ _______ _____ _____    ______ ____
ROOT
ATOM      1  C   UNL     1      45.466   6.437  12.182  0.00  0.00    +0.000 A 
ATOM      2  C   UNL     1      44.925   7.686  11.824  0.00  0.00    +0.000 A 
ATOM      3  C   UNL     1      45.542   8.884  12.194  0.00  0.00    +0.000 A 
ATOM      4  C   UNL     1      46.702   8.863  12.960  0.00  0.00    +0.000 A 
ATOM      5  C   UNL     1      47.255   7.644  13.363  0.00  0.00    +0.000 A 
ATOM      6  C   UNL     1      46.651   6.446  12.944  0.00  0.00    +0.000 A 
ENDROOT
BRANCH   1   9
ATOM      7  C   UNL     1      44.283   3.470  10.157  0.00  0.00    +0.000 A 
ATOM      8  C   UNL     1      44.950   4.640  10.488  0.00  0.00    +0.000 A 
ATOM      9  C   UNL     1      44.814   5.168  11.782  0.00  0.00    +0.000 A 
ATOM     10  C   UNL     1      44.026   4.435  12.684  0.00  0.00    +0.000 A 
ATOM     11  C   UNL     1      43.429   3.255  12.270  0.00  0.00    +0.000 A 
ATOM     12  N   UNL     1      43.533   2.763  11.025  0.00  0.00    +0.000 NA
BRANCH   7  13
ATOM     13  O   UNL     1      44.425   3.010   8.861  0.00  0.00    +0.000 OA
BRANCH  13  14
ATOM     14  C   UNL     1      45.574   2.168   8.733  0.00  0.00    +0.000 C 
BRANCH  14  16
ATOM     15  C   UNL     1      46.707   3.854   7.273  0.00  0.00    +0.000 C 
ATOM     16  C   UNL     1      46.255   2.396   7.377  0.00  0.00    +0.000 C 
ATOM     17  C   UNL     1      47.438   1.453   7.161  0.00  0.00    +0.000 C 
ENDBRANCH  14  16
ENDBRANCH  13  14
ENDBRANCH   7  13
ENDBRANCH   1   9
BRANCH   5  18
ATOM     18  C   UNL     1      48.460   7.613  14.274  0.00  0.00    +0.000 C 
BRANCH  18  19
ATOM     19  O   UNL     1      48.827   6.262  14.558  0.00  0.00    +0.000 OA
BRANCH  19  20
ATOM     20  C   UNL     1      48.665   5.960  15.894  0.00  0.00    +0.000 A 
ATOM     21  C   UNL     1      48.901   6.959  16.834  0.00  0.00    +0.000 A 
ATOM     22  N   UNL     1      48.741   6.774  18.172  0.00  0.00    +0.000 NA
ATOM     23  C   UNL     1      48.330   5.521  18.523  0.00  0.00    +0.000 A 
ATOM     24  C   UNL     1      48.105   4.520  17.589  0.00  0.00    +0.000 A 
ATOM     25  N   UNL     1      48.268   4.717  16.258  0.00  0.00    +0.000 NA
BRANCH  23  26
ATOM     26  C   UNL     1      48.100   5.229  19.964  0.00  0.00    +0.000 C 
ATOM     27  N   UNL     1      48.579   4.034  20.423  0.00  0.00    +0.000 N 
ATOM     28  O   UNL     1      47.521   6.016  20.702  0.00  0.00    +0.000 OA
ATOM     29  H   UNL     1      49.067   3.403  19.794  0.00  0.00    +0.000 HD
ATOM     30  H   UNL     1      48.467   3.799  21.398  0.00  0.00    +0.000 HD
ENDBRANCH  23  26
ENDBRANCH  19  20
ENDBRANCH  18  19
ENDBRANCH   5  18
TORSDOF 8
ENDMDL
MODEL 7
REMARK VINA RESULT:    -7.405      2.252      4.040
REMARK INTER + INTRA:         -11.947
REMARK INTER:                 -11.083
REMARK INTRA:                  -0.865
REMARK UNBOUND:                -1.080
REMARK  Name = 
REMARK  10 active torsions:
REMARK  status: ('A' for Active; 'I' for Inactive)
REMARK    1  A    between atoms: C_1  and  C_2
REMARK    2  A    between atoms: C_2  and  C_3
REMARK    3  A    between atoms: C_2  and  C_4
REMARK    4  A    between atoms: C_4  and  O_5
REMARK    5  A    between atoms: O_5  and  C_6
REMARK    6  A    between atoms: C_8  and  C_9
REMARK    7  A    between atoms: C_13  and  C_14
REMARK    8  A    between atoms: C_14  and  O_15
REMARK    9  A    between atoms: O_15  and  C_16
REMARK   10  A    between atoms: C_19  and  C_20
REMARK                            x       y       z     vdW  Elec       q    Type
REMARK                         _______ _______ _______ _____ _____    ______ ____
ROOT
ATOM      1  C   UNL     1      46.522   6.529  12.222  0.00  0.00    +0.000 A 
ATOM      2  C   UNL     1      46.852   5.633  13.256  0.00  0.00    +0.000 A 
ATOM      3  C   UNL     1      46.207   4.401  13.390  0.00  0.00    +0.000 A 
ATOM      4  C   UNL     1      45.190   4.046  12.510  0.00  0.00    +0.000 A 
ATOM      5  C   UNL     1      44.810   4.922  11.489  0.00  0.00    +0.000 A 
ATOM      6  C   UNL     1      45.500   6.137  11.336  0.00  0.00    +0.000 A 
ENDROOT
BRANCH   1   9
ATOM      7  C   UNL     1      49.182   9.161  11.679  0.00  0.00    +0.000 A 
ATOM      8  C   UNL     1      48.578   7.915  11.761  0.00  0.00    +0.000 A 
ATOM      9  C   UNL     1      47.214   7.832  12.078  0.00  0.00    +0.000 A 
ATOM     10  C   UNL     1      46.530   9.045  12.255  0.00  0.00    +0.000 A 
ATOM     11  C   UNL     1      47.213  10.243  12.116  0.00  0.00    +0.000 A 
ATOM     12  N   UNL     1      48.525  10.326  11.841  0.00  0.00    +0.000 NA
BRANCH   7  13
ATOM     13  O   UNL     1      50.536   9.187  11.395  0.00  0.00    +0.000 OA
BRANCH  13  14
ATOM     14  C   UNL     1      51.261   8.291  12.242  0.00  0.00    +0.000 C 
BRANCH  14  16
ATOM     15  C   UNL     1      50.985   7.898  14.697  0.00  0.00    +0.000 C 
ATOM     16  C   UNL     1      51.440   8.903  13.637  0.00  0.00    +0.000 C 
ATOM     17  C   UNL     1      52.882   9.336  13.896  0.00  0.00    +0.000 C 
ENDBRANCH  14  16
ENDBRANCH  13  14
ENDBRANCH   7  13
ENDBRANCH   1   9
BRANCH   5  18
ATOM     18  C   UNL     1      43.645   4.588  10.587  0.00  0.00    +0.000 C 
BRANCH  18  19
ATOM     19  O   UNL     1      43.679   3.205  10.229  0.00  0.00    +0.000 OA
BRANCH  19  20
ATOM     20  C   UNL     1      44.618   2.956   9.250  0.00  0.00    +0.000 A 
ATOM     21  C   UNL     1      44.952   3.985   8.373  0.00  0.00    +0.000 A 
ATOM     22  N   UNL     1      45.886   3.851   7.393  0.00  0.00    +0.000 NA
ATOM     23  C   UNL     1      46.473   2.621   7.336  0.00  0.00    +0.000 A 
ATOM     24  C   UNL     1      46.134   1.591   8.201  0.00  0.00    +0.000 A 
ATOM     25  N   UNL     1      45.201   1.736   9.174  0.00  0.00    +0.000 NA
BRANCH  23  26
ATOM     26  C   UNL     1      47.528   2.387   6.314  0.00  0.00    +0.000 C 
ATOM     27  N   UNL     1      47.419   3.108   5.156  0.00  0.00    +0.000 N 
ATOM     28  O   UNL     1      48.449   1.601   6.496  0.00  0.00    +0.000 OA
ATOM     29  H   UNL     1      46.654   3.763   5.032  0.00  0.00    +0.000 HD
ATOM     30  H   UNL     1      48.123   3.000   4.440  0.00  0.00    +0.000 HD
ENDBRANCH  23  26
ENDBRANCH  19  20
ENDBRANCH  18  19
ENDBRANCH   5  18
TORSDOF 8
ENDMDL
MODEL 8
REMARK VINA RESULT:    -7.197      3.157      4.967
REMARK INTER + INTRA:         -11.642
REMARK INTER:                 -10.580
REMARK INTRA:                  -1.063
REMARK UNBOUND:                -1.080
REMARK  Name = 
REMARK  10 active torsions:
REMARK  status: ('A' for Active; 'I' for Inactive)
REMARK    1  A    between atoms: C_1  and  C_2
REMARK    2  A    between atoms: C_2  and  C_3
REMARK    3  A    between atoms: C_2  and  C_4
REMARK    4  A    between atoms: C_4  and  O_5
REMARK    5  A    between atoms: O_5  and  C_6
REMARK    6  A    between atoms: C_8  and  C_9
REMARK    7  A    between atoms: C_13  and  C_14
REMARK    8  A    between atoms: C_14  and  O_15
REMARK    9  A    between atoms: O_15  and  C_16
REMARK   10  A    between atoms: C_19  and  C_20
REMARK                            x       y       z     vdW  Elec       q    Type
REMARK                         _______ _______ _______ _____ _____    ______ ____
ROOT
ATOM      1  C   UNL     1      47.086   7.425  12.168  0.00  0.00    +0.000 A 
ATOM      2  C   UNL     1      46.151   8.455  11.950  0.00  0.00    +0.000 A 
ATOM      3  C   UNL     1      44.811   8.178  11.668  0.00  0.00    +0.000 A 
ATOM      4  C   UNL     1      44.377   6.861  11.564  0.00  0.00    +0.000 A 
ATOM      5  C   UNL     1      45.280   5.809  11.742  0.00  0.00    +0.000 A 
ATOM      6  C   UNL     1      46.616   6.101  12.073  0.00  0.00    +0.000 A 
ENDROOT
BRANCH   1   9
ATOM      7  C   UNL     1      50.741   8.328  11.816  0.00  0.00    +0.000 A 
ATOM      8  C   UNL     1      49.415   8.103  11.477  0.00  0.00    +0.000 A 
ATOM      9  C   UNL     1      48.505   7.722  12.475  0.00  0.00    +0.000 A 
ATOM     10  C   UNL     1      49.003   7.632  13.784  0.00  0.00    +0.000 A 
ATOM     11  C   UNL     1      50.338   7.914  14.030  0.00  0.00    +0.000 A 
ATOM     12  N   UNL     1      51.218   8.250  13.074  0.00  0.00    +0.000 NA
BRANCH   7  13
ATOM     13  O   UNL     1      51.604   8.670  10.791  0.00  0.00    +0.000 OA
BRANCH  13  14
ATOM     14  C   UNL     1      52.795   7.879  10.828  0.00  0.00    +0.000 C 
BRANCH  14  16
ATOM     15  C   UNL     1      52.805   7.226   8.414  0.00  0.00    +0.000 C 
ATOM     16  C   UNL     1      52.687   6.705   9.847  0.00  0.00    +0.000 C 
ATOM     17  C   UNL     1      53.742   5.632  10.114  0.00  0.00    +0.000 C 
ENDBRANCH  14  16
ENDBRANCH  13  14
ENDBRANCH   7  13
ENDBRANCH   1   9
BRANCH   5  18
ATOM     18  C   UNL     1      44.841   4.378  11.539  0.00  0.00    +0.000 C 
BRANCH  18  19
ATOM     19  O   UNL     1      44.183   4.239  10.278  0.00  0.00    +0.000 OA
BRANCH  19  20
ATOM     20  C   UNL     1      45.029   3.727   9.317  0.00  0.00    +0.000 A 
ATOM     21  C   UNL     1      45.711   4.616   8.490  0.00  0.00    +0.000 A 
ATOM     22  N   UNL     1      46.589   4.214   7.532  0.00  0.00    +0.000 NA
ATOM     23  C   UNL     1      46.749   2.862   7.443  0.00  0.00    +0.000 A 
ATOM     24  C   UNL     1      46.062   1.973   8.257  0.00  0.00    +0.000 A 
ATOM     25  N   UNL     1      45.189   2.386   9.209  0.00  0.00    +0.000 NA
BRANCH  23  26
ATOM     26  C   UNL     1      47.711   2.327   6.442  0.00  0.00    +0.000 C 
ATOM     27  N   UNL     1      47.798   3.012   5.261  0.00  0.00    +0.000 N 
ATOM     28  O   UNL     1      48.394   1.335   6.661  0.00  0.00    +0.000 OA
ATOM     29  H   UNL     1      47.230   3.840   5.107  0.00  0.00    +0.000 HD
ATOM     30  H   UNL     1      48.452   2.701   4.558  0.00  0.00    +0.000 HD
ENDBRANCH  23  26
ENDBRANCH  19  20
ENDBRANCH  18  19
ENDBRANCH   5  18
TORSDOF 8
ENDMDL
MODEL 9
REMARK VINA RESULT:    -7.117      2.890      4.455
REMARK INTER + INTRA:         -11.526
REMARK INTER:                 -10.457
REMARK INTRA:                  -1.069
REMARK UNBOUND:                -1.080
REMARK  Name = 
REMARK  10 active torsions:
REMARK  status: ('A' for Active; 'I' for Inactive)
REMARK    1  A    between atoms: C_1  and  C_2
REMARK    2  A    between atoms: C_2  and  C_3
REMARK    3  A    between atoms: C_2  and  C_4
REMARK    4  A    between atoms: C_4  and  O_5
REMARK    5  A    between atoms: O_5  and  C_6
REMARK    6  A    between atoms: C_8  and  C_9
REMARK    7  A    between atoms: C_13  and  C_14
REMARK    8  A    between atoms: C_14  and  O_15
REMARK    9  A    between atoms: O_15  and  C_16
REMARK   10  A    between atoms: C_19  and  C_20
REMARK                            x       y       z     vdW  Elec       q    Type
REMARK                         _______ _______ _______ _____ _____    ______ ____
ROOT
ATOM      1  C   UNL     1      47.260   6.077  12.871  0.00  0.00    +0.000 A 
ATOM      2  C   UNL     1      46.983   5.140  13.885  0.00  0.00    +0.000 A 
ATOM      3  C   UNL     1      45.866   4.304  13.822  0.00  0.00    +0.000 A 
ATOM      4  C   UNL     1      44.977   4.405  12.758  0.00  0.00    +0.000 A 
ATOM      5  C   UNL     1      45.198   5.345  11.747  0.00  0.00    +0.000 A 
ATOM      6  C   UNL     1      46.352   6.147  11.797  0.00  0.00    +0.000 A 
ENDROOT
BRANCH   1   9
ATOM      7  C   UNL     1      50.200   8.082  14.152  0.00  0.00    +0.000 A 
ATOM      8  C   UNL     1      49.116   7.216  14.144  0.00  0.00    +0.000 A 
ATOM      9  C   UNL     1      48.450   6.958  12.936  0.00  0.00    +0.000 A 
ATOM     10  C   UNL     1      48.965   7.575  11.786  0.00  0.00    +0.000 A 
ATOM     11  C   UNL     1      50.078   8.395  11.888  0.00  0.00    +0.000 A 
ATOM     12  N   UNL     1      50.700   8.668  13.047  0.00  0.00    +0.000 NA
BRANCH   7  13
ATOM     13  O   UNL     1      50.801   8.327  15.373  0.00  0.00    +0.000 OA
BRANCH  13  14
ATOM     14  C   UNL     1      50.254   9.494  15.995  0.00  0.00    +0.000 C 
BRANCH  14  16
ATOM     15  C   UNL     1      48.218   9.482  17.447  0.00  0.00    +0.000 C 
ATOM     16  C   UNL     1      49.710   9.152  17.388  0.00  0.00    +0.000 C 
ATOM     17  C   UNL     1      49.949   7.688  17.756  0.00  0.00    +0.000 C 
ENDBRANCH  14  16
ENDBRANCH  13  14
ENDBRANCH   7  13
ENDBRANCH   1   9
BRANCH   5  18
ATOM     18  C   UNL     1      44.190   5.528  10.637  0.00  0.00    +0.000 C 
BRANCH  18  19
ATOM     19  O   UNL     1      43.695   4.259  10.206  0.00  0.00    +0.000 OA
BRANCH  19  20
ATOM     20  C   UNL     1      44.586   3.624   9.366  0.00  0.00    +0.000 A 
ATOM     21  C   UNL     1      45.273   4.389   8.427  0.00  0.00    +0.000 A 
ATOM     22  N   UNL     1      46.194   3.866   7.572  0.00  0.00    +0.000 NA
ATOM     23  C   UNL     1      46.390   2.522   7.708  0.00  0.00    +0.000 A 
ATOM     24  C   UNL     1      45.698   1.756   8.634  0.00  0.00    +0.000 A 
ATOM     25  N   UNL     1      44.783   2.289   9.480  0.00  0.00    +0.000 NA
BRANCH  23  26
ATOM     26  C   UNL     1      47.399   1.863   6.835  0.00  0.00    +0.000 C 
ATOM     27  N   UNL     1      48.456   2.637   6.442  0.00  0.00    +0.000 N 
ATOM     28  O   UNL     1      47.297   0.692   6.491  0.00  0.00    +0.000 OA
ATOM     29  H   UNL     1      48.525   3.602   6.750  0.00  0.00    +0.000 HD
ATOM     30  H   UNL     1      49.178   2.229   5.867  0.00  0.00    +0.000 HD
ENDBRANCH  23  26
ENDBRANCH  19  20
ENDBRANCH  18  19
ENDBRANCH   5  18
TORSDOF 8
ENDMDL
