MODEL 1
REMARK VINA RESULT:    -8.277      0.000      0.000
REMARK INTER + INTRA:         -10.228
REMARK INTER:                  -9.728
REMARK INTRA:                  -0.500
REMARK UNBOUND:                -0.500
REMARK  Name = 
REMARK  3 active torsions:
REMARK  status: ('A' for Active; 'I' for Inactive)
REMARK    1  A    between atoms: C_7  and  C_8
REMARK    2  A    between atoms: C_8  and  N_9
REMARK    3  A    between atoms: C_14  and  C_15
REMARK                            x       y       z     vdW  Elec       q    Type
REMARK                         _______ _______ _______ _____ _____    ______ ____
ROOT
ATOM      1  N   UNL     1      43.978   3.387   9.490  0.00  0.00    +0.000 N 
ATOM      2  C   UNL     1      44.196   3.936  10.757  0.00  0.00    +0.000 A 
ATOM      3  C   UNL     1      43.245   3.707  11.755  0.00  0.00    +0.000 A 
ATOM      4  N   UNL     1      43.336   4.200  13.010  0.00  0.00    +0.000 NA
ATOM      5  C   UNL     1      44.450   4.927  13.246  0.00  0.00    +0.000 A 
ATOM      6  C   UNL     1      45.435   5.157  12.286  0.00  0.00    +0.000 A 
ATOM      7  N   UNL     1      45.303   4.661  11.023  0.00  0.00    +0.000 NA
ATOM      8  H   UNL     1      44.095   2.377   9.531  0.00  0.00    +0.000 HD
ENDROOT
BRANCH   6   9
ATOM      9  C   UNL     1      46.677   5.884  12.586  0.00  0.00    +0.000 A 
ATOM     10  C   UNL     1      47.174   6.915  11.773  0.00  0.00    +0.000 A 
ATOM     11  C   UNL     1      48.323   7.617  12.136  0.00  0.00    +0.000 A 
ATOM     12  C   UNL     1      48.960   7.267  13.313  0.00  0.00    +0.000 A 
ATOM     13  N   UNL     1      48.537   6.275  14.121  0.00  0.00    +0.000 NA
ATOM     14  C   UNL     1      47.418   5.608  13.736  0.00  0.00    +0.000 A 
ENDBRANCH   6   9
BRANCH   1  15
ATOM     15  C   UNL     1      44.729   3.978   8.392  0.00  0.00    +0.000 C 
BRANCH  15  22
ATOM     16  F   UNL     1      46.642   4.475   6.338  0.00  0.00    +0.000 F 
ATOM     17  C   UNL     1      46.607   3.243   6.864  0.00  0.00    +0.000 A 
ATOM     18  C   UNL     1      47.495   2.285   6.373  0.00  0.00    +0.000 A 
ATOM     19  C   UNL     1      47.480   0.992   6.899  0.00  0.00    +0.000 A 
ATOM     20  C   UNL     1      46.578   0.667   7.912  0.00  0.00    +0.000 A 
ATOM     21  C   UNL     1      45.692   1.633   8.394  0.00  0.00    +0.000 A 
ATOM     22  C   UNL     1      45.702   2.941   7.878  0.00  0.00    +0.000 A 
ENDBRANCH  15  22
ENDBRANCH   1  15
TORSDOF 3
ENDMDL
MODEL 2
REMARK VINA RESULT:    -8.057      1.020      1.458
REMARK INTER + INTRA:          -9.970
REMARK INTER:                 -10.275
REMARK INTRA:                   0.305
REMARK UNBOUND:                -0.500
REMARK  Name = 
REMARK  3 active torsions:
REMARK  status: ('A' for Active; 'I' for Inactive)
REMARK    1  A    between atoms: C_7  and  C_8
REMARK    2  A    between atoms: C_8  and  N_9
REMARK    3  A    between atoms: C_14  and  C_15
REMARK                            x       y       z     vdW  Elec       q    Type
REMARK                         _______ _______ _______ _____ _____    ______ ____
ROOT
ATOM      1  N   UNL     1      43.962   3.518   9.476  0.00  0.00    +0.000 N 
ATOM      2  C   UNL     1      44.199   4.028  10.757  0.00  0.00    +0.000 A 
ATOM      3  C   UNL     1      43.251   3.787  11.755  0.00  0.00    +0.000 A 
ATOM      4  N   UNL     1      43.359   4.243  13.023  0.00  0.00    +0.000 NA
ATOM      5  C   UNL     1      44.487   4.944  13.271  0.00  0.00    +0.000 A 
ATOM      6  C   UNL     1      45.469   5.184  12.310  0.00  0.00    +0.000 A 
ATOM      7  N   UNL     1      45.320   4.727  11.035  0.00  0.00    +0.000 NA
ATOM      8  H   UNL     1      44.062   2.506   9.488  0.00  0.00    +0.000 HD
ENDROOT
BRANCH   6   9
ATOM      9  C   UNL     1      46.725   5.882  12.621  0.00  0.00    +0.000 A 
ATOM     10  C   UNL     1      47.293   6.846  11.774  0.00  0.00    +0.000 A 
ATOM     11  C   UNL     1      48.454   7.525  12.146  0.00  0.00    +0.000 A 
ATOM     12  C   UNL     1      49.030   7.220  13.365  0.00  0.00    +0.000 A 
ATOM     13  N   UNL     1      48.538   6.291  14.208  0.00  0.00    +0.000 NA
ATOM     14  C   UNL     1      47.410   5.644  13.815  0.00  0.00    +0.000 A 
ENDBRANCH   6   9
BRANCH   1  15
ATOM     15  C   UNL     1      44.716   4.127   8.390  0.00  0.00    +0.000 C 
BRANCH  15  22
ATOM     16  F   UNL     1      44.649   1.356   9.055  0.00  0.00    +0.000 F 
ATOM     17  C   UNL     1      45.649   1.779   8.270  0.00  0.00    +0.000 A 
ATOM     18  C   UNL     1      46.593   0.846   7.836  0.00  0.00    +0.000 A 
ATOM     19  C   UNL     1      47.647   1.258   7.020  0.00  0.00    +0.000 A 
ATOM     20  C   UNL     1      47.751   2.596   6.642  0.00  0.00    +0.000 A 
ATOM     21  C   UNL     1      46.801   3.521   7.083  0.00  0.00    +0.000 A 
ATOM     22  C   UNL     1      45.730   3.119   7.901  0.00  0.00    +0.000 A 
ENDBRANCH  15  22
ENDBRANCH   1  15
TORSDOF 3
ENDMDL
MODEL 3
REMARK VINA RESULT:    -7.414      2.478      6.276
REMARK INTER + INTRA:          -9.214
REMARK INTER:                  -8.801
REMARK INTRA:                  -0.413
REMARK UNBOUND:                -0.500
REMARK  Name = 
REMARK  3 active torsions:
REMARK  status: ('A' for Active; 'I' for Inactive)
REMARK    1  A    between atoms: C_7  and  C_8
REMARK    2  A    between atoms: C_8  and  N_9
REMARK    3  A    between atoms: C_14  and  C_15
REMARK                            x       y       z     vdW  Elec       q    Type
REMARK                         _______ _______ _______ _____ _____    ______ ____
ROOT
ATOM      1  N   UNL     1      43.821   6.486  11.543  0.00  0.00    +0.000 N 
ATOM      2  C   UNL     1      43.902   5.137  11.186  0.00  0.00    +0.000 A 
ATOM      3  C   UNL     1      43.166   4.206  11.923  0.00  0.00    +0.000 A 
ATOM      4  N   UNL     1      43.178   2.875  11.685  0.00  0.00    +0.000 NA
ATOM      5  C   UNL     1      43.952   2.502  10.643  0.00  0.00    +0.000 A 
ATOM      6  C   UNL     1      44.682   3.401   9.866  0.00  0.00    +0.000 A 
ATOM      7  N   UNL     1      44.663   4.735  10.145  0.00  0.00    +0.000 NA
ATOM      8  H   UNL     1      42.902   6.849  11.301  0.00  0.00    +0.000 HD
ENDROOT
BRANCH   6   9
ATOM      9  C   UNL     1      45.454   2.981   8.687  0.00  0.00    +0.000 A 
ATOM     10  C   UNL     1      45.851   3.871   7.678  0.00  0.00    +0.000 A 
ATOM     11  C   UNL     1      46.637   3.435   6.611  0.00  0.00    +0.000 A 
ATOM     12  C   UNL     1      47.011   2.104   6.575  0.00  0.00    +0.000 A 
ATOM     13  N   UNL     1      46.644   1.203   7.507  0.00  0.00    +0.000 NA
ATOM     14  C   UNL     1      45.874   1.659   8.529  0.00  0.00    +0.000 A 
ENDBRANCH   6   9
BRANCH   1  15
ATOM     15  C   UNL     1      44.891   7.348  11.062  0.00  0.00    +0.000 C 
BRANCH  15  22
ATOM     16  F   UNL     1      45.153   9.476  12.940  0.00  0.00    +0.000 F 
ATOM     17  C   UNL     1      46.044   8.478  13.009  0.00  0.00    +0.000 A 
ATOM     18  C   UNL     1      47.042   8.544  13.983  0.00  0.00    +0.000 A 
ATOM     19  C   UNL     1      47.986   7.521  14.078  0.00  0.00    +0.000 A 
ATOM     20  C   UNL     1      47.926   6.439  13.201  0.00  0.00    +0.000 A 
ATOM     21  C   UNL     1      46.924   6.383  12.229  0.00  0.00    +0.000 A 
ATOM     22  C   UNL     1      45.962   7.404  12.126  0.00  0.00    +0.000 A 
ENDBRANCH  15  22
ENDBRANCH   1  15
TORSDOF 3
ENDMDL
MODEL 4
REMARK VINA RESULT:    -7.175      2.503      6.446
REMARK INTER + INTRA:          -8.934
REMARK INTER:                  -8.474
REMARK INTRA:                  -0.460
REMARK UNBOUND:                -0.500
REMARK  Name = 
REMARK  3 active torsions:
REMARK  status: ('A' for Active; 'I' for Inactive)
REMARK    1  A    between atoms: C_7  and  C_8
REMARK    2  A    between atoms: C_8  and  N_9
REMARK    3  A    between atoms: C_14  and  C_15
REMARK                            x       y       z     vdW  Elec       q    Type
REMARK                         _______ _______ _______ _____ _____    ______ ____
ROOT
ATOM      1  N   UNL     1      45.826   5.990  13.651  0.00  0.00    +0.000 N 
ATOM      2  C   UNL     1      44.983   5.424  12.690  0.00  0.00    +0.000 A 
ATOM      3  C   UNL     1      43.602   5.562  12.852  0.00  0.00    +0.000 A 
ATOM      4  N   UNL     1      42.688   5.044  12.001  0.00  0.00    +0.000 NA
ATOM      5  C   UNL     1      43.216   4.389  10.945  0.00  0.00    +0.000 A 
ATOM      6  C   UNL     1      44.588   4.251  10.733  0.00  0.00    +0.000 A 
ATOM      7  N   UNL     1      45.483   4.769  11.621  0.00  0.00    +0.000 NA
ATOM      8  H   UNL     1      45.802   7.004  13.573  0.00  0.00    +0.000 HD
ENDROOT
BRANCH   6   9
ATOM      9  C   UNL     1      45.142   3.602   9.536  0.00  0.00    +0.000 A 
ATOM     10  C   UNL     1      45.663   4.322   8.450  0.00  0.00    +0.000 A 
ATOM     11  C   UNL     1      46.235   3.659   7.364  0.00  0.00    +0.000 A 
ATOM     12  C   UNL     1      46.271   2.277   7.386  0.00  0.00    +0.000 A 
ATOM     13  N   UNL     1      45.769   1.536   8.393  0.00  0.00    +0.000 NA
ATOM     14  C   UNL     1      45.214   2.212   9.433  0.00  0.00    +0.000 A 
ENDBRANCH   6   9
BRANCH   1  15
ATOM     15  C   UNL     1      47.189   5.480  13.696  0.00  0.00    +0.000 C 
BRANCH  15  22
ATOM     16  F   UNL     1      49.106   6.629  15.465  0.00  0.00    +0.000 F 
ATOM     17  C   UNL     1      49.032   7.131  14.225  0.00  0.00    +0.000 A 
ATOM     18  C   UNL     1      49.884   8.181  13.881  0.00  0.00    +0.000 A 
ATOM     19  C   UNL     1      49.827   8.727  12.597  0.00  0.00    +0.000 A 
ATOM     20  C   UNL     1      48.921   8.218  11.668  0.00  0.00    +0.000 A 
ATOM     21  C   UNL     1      48.072   7.168  12.023  0.00  0.00    +0.000 A 
ATOM     22  C   UNL     1      48.123   6.605  13.310  0.00  0.00    +0.000 A 
ENDBRANCH  15  22
ENDBRANCH   1  15
TORSDOF 3
ENDMDL
MODEL 5
REMARK VINA RESULT:    -7.154      2.202      6.335
REMARK INTER + INTRA:          -8.908
REMARK INTER:                  -8.379
REMARK INTRA:                  -0.529
REMARK UNBOUND:                -0.500
REMARK  Name = 
REMARK  3 active torsions:
REMARK  status: ('A' for Active; 'I' for Inactive)
REMARK    1  A    between atoms: C_7  and  C_8
REMARK    2  A    between atoms: C_8  and  N_9
REMARK    3  A    between atoms: C_14  and  C_15
REMARK                            x       y       z     vdW  Elec       q    Type
REMARK                         _______ _______ _______ _____ _____    ______ ____
ROOT
ATOM      1  N   UNL     1      45.599   6.685  13.277  0.00  0.00    +0.000 N 
ATOM      2  C   UNL     1      44.851   5.786  12.511  0.00  0.00    +0.000 A 
ATOM      3  C   UNL     1      43.517   5.561  12.861  0.00  0.00    +0.000 A 
ATOM      4  N   UNL     1      42.700   4.703  12.210  0.00  0.00    +0.000 NA
ATOM      5  C   UNL     1      43.271   4.081  11.155  0.00  0.00    +0.000 A 
ATOM      6  C   UNL     1      44.590   4.296  10.757  0.00  0.00    +0.000 A 
ATOM      7  N   UNL     1      45.393   5.154  11.448  0.00  0.00    +0.000 NA
ATOM      8  H   UNL     1      45.273   7.633  13.105  0.00  0.00    +0.000 HD
ENDROOT
BRANCH   6   9
ATOM      9  C   UNL     1      45.167   3.668   9.560  0.00  0.00    +0.000 A 
ATOM     10  C   UNL     1      45.702   4.406   8.493  0.00  0.00    +0.000 A 
ATOM     11  C   UNL     1      46.295   3.762   7.407  0.00  0.00    +0.000 A 
ATOM     12  C   UNL     1      46.338   2.380   7.409  0.00  0.00    +0.000 A 
ATOM     13  N   UNL     1      45.824   1.622   8.398  0.00  0.00    +0.000 NA
ATOM     14  C   UNL     1      45.249   2.280   9.438  0.00  0.00    +0.000 A 
ENDBRANCH   6   9
BRANCH   1  15
ATOM     15  C   UNL     1      47.046   6.578  13.168  0.00  0.00    +0.000 C 
BRANCH  15  22
ATOM     16  F   UNL     1      49.672   6.880  12.101  0.00  0.00    +0.000 F 
ATOM     17  C   UNL     1      48.865   7.950  12.068  0.00  0.00    +0.000 A 
ATOM     18  C   UNL     1      49.358   9.138  11.525  0.00  0.00    +0.000 A 
ATOM     19  C   UNL     1      48.541  10.269  11.480  0.00  0.00    +0.000 A 
ATOM     20  C   UNL     1      47.240  10.204  11.976  0.00  0.00    +0.000 A 
ATOM     21  C   UNL     1      46.758   9.011  12.519  0.00  0.00    +0.000 A 
ATOM     22  C   UNL     1      47.567   7.862  12.564  0.00  0.00    +0.000 A 
ENDBRANCH  15  22
ENDBRANCH   1  15
TORSDOF 3
ENDMDL
MODEL 6
REMARK VINA RESULT:    -7.153      3.039      7.035
REMARK INTER + INTRA:          -8.907
REMARK INTER:                  -8.526
REMARK INTRA:                  -0.382
REMARK UNBOUND:                -0.500
REMARK  Name = 
REMARK  3 active torsions:
REMARK  status: ('A' for Active; 'I' for Inactive)
REMARK    1  A    between atoms: C_7  and  C_8
REMARK    2  A    between atoms: C_8  and  N_9
REMARK    3  A    between atoms: C_14  and  C_15
REMARK                            x       y       z     vdW  Elec       q    Type
REMARK                         _______ _______ _______ _____ _____    ______ ____
ROOT
ATOM      1  N   UNL     1      45.726   5.188  14.050  0.00  0.00    +0.000 N 
ATOM      2  C   UNL     1      44.957   4.974  12.901  0.00  0.00    +0.000 A 
ATOM      3  C   UNL     1      43.609   5.343  12.923  0.00  0.00    +0.000 A 
ATOM      4  N   UNL     1      42.763   5.169  11.884  0.00  0.00    +0.000 NA
ATOM      5  C   UNL     1      43.330   4.622  10.787  0.00  0.00    +0.000 A 
ATOM      6  C   UNL     1      44.676   4.264  10.715  0.00  0.00    +0.000 A 
ATOM      7  N   UNL     1      45.499   4.435  11.788  0.00  0.00    +0.000 NA
ATOM      8  H   UNL     1      45.881   6.186  14.175  0.00  0.00    +0.000 HD
ENDROOT
BRANCH   6   9
ATOM      9  C   UNL     1      45.292   3.743   9.485  0.00  0.00    +0.000 A 
ATOM     10  C   UNL     1      45.398   2.372   9.206  0.00  0.00    +0.000 A 
ATOM     11  C   UNL     1      45.933   1.931   7.995  0.00  0.00    +0.000 A 
ATOM     12  C   UNL     1      46.358   2.879   7.083  0.00  0.00    +0.000 A 
ATOM     13  N   UNL     1      46.297   4.206   7.307  0.00  0.00    +0.000 NA
ATOM     14  C   UNL     1      45.775   4.603   8.498  0.00  0.00    +0.000 A 
ENDBRANCH   6   9
BRANCH   1  15
ATOM     15  C   UNL     1      46.962   4.427  14.150  0.00  0.00    +0.000 C 
BRANCH  15  22
ATOM     16  F   UNL     1      48.504   6.642  15.068  0.00  0.00    +0.000 F 
ATOM     17  C   UNL     1      48.240   5.666  15.948  0.00  0.00    +0.000 A 
ATOM     18  C   UNL     1      48.738   5.790  17.246  0.00  0.00    +0.000 A 
ATOM     19  C   UNL     1      48.482   4.788  18.183  0.00  0.00    +0.000 A 
ATOM     20  C   UNL     1      47.730   3.672  17.818  0.00  0.00    +0.000 A 
ATOM     21  C   UNL     1      47.238   3.559  16.516  0.00  0.00    +0.000 A 
ATOM     22  C   UNL     1      47.482   4.563  15.563  0.00  0.00    +0.000 A 
ENDBRANCH  15  22
ENDBRANCH   1  15
TORSDOF 3
ENDMDL
MODEL 7
REMARK VINA RESULT:    -7.151      1.753      2.295
REMARK INTER + INTRA:          -8.905
REMARK INTER:                  -8.579
REMARK INTRA:                  -0.327
REMARK UNBOUND:                -0.500
REMARK  Name = 
REMARK  3 active torsions:
REMARK  status: ('A' for Active; 'I' for Inactive)
REMARK    1  A    between atoms: C_7  and  C_8
REMARK    2  A    between atoms: C_8  and  N_9
REMARK    3  A    between atoms: C_14  and  C_15
REMARK                            x       y       z     vdW  Elec       q    Type
REMARK                         _______ _______ _______ _____ _____    ______ ____
ROOT
ATOM      1  N   UNL     1      44.044   3.020   9.628  0.00  0.00    +0.000 N 
ATOM      2  C   UNL     1      44.275   4.113  10.469  0.00  0.00    +0.000 A 
ATOM      3  C   UNL     1      43.494   5.260  10.300  0.00  0.00    +0.000 A 
ATOM      4  N   UNL     1      43.636   6.384  11.037  0.00  0.00    +0.000 NA
ATOM      5  C   UNL     1      44.591   6.310  11.989  0.00  0.00    +0.000 A 
ATOM      6  C   UNL     1      45.374   5.176  12.208  0.00  0.00    +0.000 A 
ATOM      7  N   UNL     1      45.219   4.066  11.433  0.00  0.00    +0.000 NA
ATOM      8  H   UNL     1      43.154   2.589   9.864  0.00  0.00    +0.000 HD
ENDROOT
BRANCH   6   9
ATOM      9  C   UNL     1      46.354   5.091  13.301  0.00  0.00    +0.000 A 
ATOM     10  C   UNL     1      47.159   6.172  13.690  0.00  0.00    +0.000 A 
ATOM     11  C   UNL     1      48.028   6.057  14.776  0.00  0.00    +0.000 A 
ATOM     12  C   UNL     1      48.077   4.852  15.452  0.00  0.00    +0.000 A 
ATOM     13  N   UNL     1      47.340   3.777  15.109  0.00  0.00    +0.000 NA
ATOM     14  C   UNL     1      46.508   3.920  14.045  0.00  0.00    +0.000 A 
ENDBRANCH   6   9
BRANCH   1  15
ATOM     15  C   UNL     1      45.117   2.039   9.535  0.00  0.00    +0.000 C 
BRANCH  15  22
ATOM     16  F   UNL     1      46.615   0.035   8.170  0.00  0.00    +0.000 F 
ATOM     17  C   UNL     1      46.583   1.259   7.627  0.00  0.00    +0.000 A 
ATOM     18  C   UNL     1      47.285   1.478   6.440  0.00  0.00    +0.000 A 
ATOM     19  C   UNL     1      47.272   2.744   5.853  0.00  0.00    +0.000 A 
ATOM     20  C   UNL     1      46.558   3.780   6.453  0.00  0.00    +0.000 A 
ATOM     21  C   UNL     1      45.860   3.550   7.641  0.00  0.00    +0.000 A 
ATOM     22  C   UNL     1      45.859   2.278   8.240  0.00  0.00    +0.000 A 
ENDBRANCH  15  22
ENDBRANCH   1  15
TORSDOF 3
ENDMDL
MODEL 8
REMARK VINA RESULT:    -6.953      2.059      3.500
REMARK INTER + INTRA:          -8.673
REMARK INTER:                  -8.114
REMARK INTRA:                  -0.559
REMARK UNBOUND:                -0.500
REMARK  Name = 
REMARK  3 active torsions:
REMARK  status: ('A' for Active; 'I' for Inactive)
REMARK    1  A    between atoms: C_7  and  C_8
REMARK    2  A    between atoms: C_8  and  N_9
REMARK    3  A    between atoms: C_14  and  C_15
REMARK                            x       y       z     vdW  Elec       q    Type
REMARK                         _______ _______ _______ _____ _____    ______ ____
ROOT
ATOM      1  N   UNL     1      45.352   3.813  12.957  0.00  0.00    +0.000 N 
ATOM      2  C   UNL     1      46.304   4.676  13.509  0.00  0.00    +0.000 A 
ATOM      3  C   UNL     1      46.974   4.274  14.668  0.00  0.00    +0.000 A 
ATOM      4  N   UNL     1      47.899   5.027  15.304  0.00  0.00    +0.000 NA
ATOM      5  C   UNL     1      48.156   6.214  14.712  0.00  0.00    +0.000 A 
ATOM      6  C   UNL     1      47.529   6.641  13.541  0.00  0.00    +0.000 A 
ATOM      7  N   UNL     1      46.586   5.865  12.936  0.00  0.00    +0.000 NA
ATOM      8  H   UNL     1      45.818   3.008  12.547  0.00  0.00    +0.000 HD
ENDROOT
BRANCH   6   9
ATOM      9  C   UNL     1      47.881   7.901  12.871  0.00  0.00    +0.000 A 
ATOM     10  C   UNL     1      49.079   8.081  12.164  0.00  0.00    +0.000 A 
ATOM     11  C   UNL     1      49.337   9.276  11.491  0.00  0.00    +0.000 A 
ATOM     12  C   UNL     1      48.384  10.276  11.544  0.00  0.00    +0.000 A 
ATOM     13  N   UNL     1      47.225  10.164  12.222  0.00  0.00    +0.000 NA
ATOM     14  C   UNL     1      47.007   8.990  12.870  0.00  0.00    +0.000 A 
ENDBRANCH   6   9
BRANCH   1  15
ATOM     15  C   UNL     1      44.393   4.413  12.040  0.00  0.00    +0.000 C 
BRANCH  15  22
ATOM     16  F   UNL     1      45.629   6.071  10.079  0.00  0.00    +0.000 F 
ATOM     17  C   UNL     1      45.328   4.815   9.723  0.00  0.00    +0.000 A 
ATOM     18  C   UNL     1      45.628   4.401   8.425  0.00  0.00    +0.000 A 
ATOM     19  C   UNL     1      45.323   3.099   8.025  0.00  0.00    +0.000 A 
ATOM     20  C   UNL     1      44.722   2.220   8.926  0.00  0.00    +0.000 A 
ATOM     21  C   UNL     1      44.425   2.646  10.223  0.00  0.00    +0.000 A 
ATOM     22  C   UNL     1      44.733   3.952  10.641  0.00  0.00    +0.000 A 
ENDBRANCH  15  22
ENDBRANCH   1  15
TORSDOF 3
ENDMDL
MODEL 9
REMARK VINA RESULT:    -6.763      3.501      7.467
REMARK INTER + INTRA:          -8.449
REMARK INTER:                  -8.056
REMARK INTRA:                  -0.393
REMARK UNBOUND:                -0.500
REMARK  Name = 
REMARK  3 active torsions:
REMARK  status: ('A' for Active; 'I' for Inactive)
REMARK    1  A    between atoms: C_7  and  C_8
REMARK    2  A    between atoms: C_8  and  N_9
REMARK    3  A    between atoms: C_14  and  C_15
REMARK                            x       y       z     vdW  Elec       q    Type
REMARK                         _______ _______ _______ _____ _____    ______ ____
ROOT
ATOM      1  N   UNL     1      47.128   5.689  14.553  0.00  0.00    +0.000 N 
ATOM      2  C   UNL     1      46.455   6.045  13.380  0.00  0.00    +0.000 A 
ATOM      3  C   UNL     1      46.188   7.397  13.150  0.00  0.00    +0.000 A 
ATOM      4  N   UNL     1      45.530   7.862  12.064  0.00  0.00    +0.000 NA
ATOM      5  C   UNL     1      45.161   6.906  11.184  0.00  0.00    +0.000 A 
ATOM      6  C   UNL     1      45.431   5.549  11.363  0.00  0.00    +0.000 A 
ATOM      7  N   UNL     1      46.080   5.112  12.479  0.00  0.00    +0.000 NA
ATOM      8  H   UNL     1      48.098   5.990  14.496  0.00  0.00    +0.000 HD
ENDROOT
BRANCH   6   9
ATOM      9  C   UNL     1      45.090   4.535  10.355  0.00  0.00    +0.000 A 
ATOM     10  C   UNL     1      45.450   4.652   9.003  0.00  0.00    +0.000 A 
ATOM     11  C   UNL     1      45.158   3.632   8.098  0.00  0.00    +0.000 A 
ATOM     12  C   UNL     1      44.503   2.508   8.566  0.00  0.00    +0.000 A 
ATOM     13  N   UNL     1      44.119   2.351   9.848  0.00  0.00    +0.000 NA
ATOM     14  C   UNL     1      44.414   3.365  10.703  0.00  0.00    +0.000 A 
ENDBRANCH   6   9
BRANCH   1  15
ATOM     15  C   UNL     1      47.013   4.298  14.967  0.00  0.00    +0.000 C 
BRANCH  15  22
ATOM     16  F   UNL     1      48.527   2.050  15.849  0.00  0.00    +0.000 F 
ATOM     17  C   UNL     1      48.324   3.041  16.728  0.00  0.00    +0.000 A 
ATOM     18  C   UNL     1      48.855   2.910  18.012  0.00  0.00    +0.000 A 
ATOM     19  C   UNL     1      48.657   3.925  18.949  0.00  0.00    +0.000 A 
ATOM     20  C   UNL     1      47.932   5.063  18.597  0.00  0.00    +0.000 A 
ATOM     21  C   UNL     1      47.404   5.183  17.309  0.00  0.00    +0.000 A 
ATOM     22  C   UNL     1      47.601   4.171  16.353  0.00  0.00    +0.000 A 
ENDBRANCH  15  22
ENDBRANCH   1  15
TORSDOF 3
ENDMDL
