MODEL 1
REMARK VINA RESULT:    -8.620      0.000      0.000
REMARK INTER + INTRA:         -12.186
REMARK INTER:                 -11.643
REMARK INTRA:                  -0.542
REMARK UNBOUND:                -0.542
REMARK  Name = 
REMARK  7 active torsions:
REMARK  status: ('A' for Active; 'I' for Inactive)
REMARK    1  A    between atoms: C_1  and  O_2
REMARK    2  A    between atoms: O_2  and  C_3
REMARK    3  A    between atoms: C_5  and  O_6
REMARK    4  A    between atoms: O_6  and  C_7
REMARK    5  A    between atoms: C_7  and  C_8
REMARK    6  A    between atoms: C_12  and  C_13
REMARK    7  A    between atoms: C_22  and  C_23
REMARK                            x       y       z     vdW  Elec       q    Type
REMARK                         _______ _______ _______ _____ _____    ______ ____
ROOT
ATOM      1  O   UNL     1      45.744   7.080  11.299  0.00  0.00    +0.000 OA
ENDROOT
BRANCH   1   4
ATOM      2  C   UNL     1      48.370   7.678  13.856  0.00  0.00    +0.000 A 
ATOM      3  C   UNL     1      47.542   7.901  12.757  0.00  0.00    +0.000 A 
ATOM      4  C   UNL     1      46.593   6.953  12.367  0.00  0.00    +0.000 A 
ATOM      5  C   UNL     1      46.476   5.766  13.095  0.00  0.00    +0.000 A 
ATOM      6  C   UNL     1      47.316   5.523  14.187  0.00  0.00    +0.000 A 
ATOM      7  C   UNL     1      48.252   6.489  14.578  0.00  0.00    +0.000 A 
BRANCH   6   8
ATOM      8  C   UNL     1      47.183   4.229  14.903  0.00  0.00    +0.000 C 
ATOM      9  N   UNL     1      46.889   4.275  16.238  0.00  0.00    +0.000 N 
ATOM     10  O   UNL     1      47.376   3.158  14.341  0.00  0.00    +0.000 OA
ATOM     11  H   UNL     1      46.951   5.125  16.781  0.00  0.00    +0.000 HD
ATOM     12  H   UNL     1      46.929   3.395  16.735  0.00  0.00    +0.000 HD
ENDBRANCH   6   8
BRANCH   2  14
ATOM     13  C   UNL     1      50.523   7.963  14.827  0.00  0.00    +0.000 C 
ATOM     14  O   UNL     1      49.329   8.545  14.312  0.00  0.00    +0.000 OA
ENDBRANCH   2  14
ENDBRANCH   1   4
BRANCH   1  15
ATOM     15  C   UNL     1      44.401   6.646  11.509  0.00  0.00    +0.000 C 
BRANCH  15  16
ATOM     16  C   UNL     1      44.249   5.232  11.046  0.00  0.00    +0.000 A 
ATOM     17  C   UNL     1      43.326   4.383  11.640  0.00  0.00    +0.000 A 
ATOM     18  N   UNL     1      43.161   3.093  11.289  0.00  0.00    +0.000 NA
ATOM     19  C   UNL     1      43.936   2.635  10.275  0.00  0.00    +0.000 A 
ATOM     20  C   UNL     1      44.893   3.384   9.586  0.00  0.00    +0.000 A 
ATOM     21  C   UNL     1      45.031   4.716  10.004  0.00  0.00    +0.000 A 
BRANCH  20  22
ATOM     22  C   UNL     1      45.695   2.816   8.479  0.00  0.00    +0.000 A 
ATOM     23  C   UNL     1      46.230   3.635   7.463  0.00  0.00    +0.000 A 
ATOM     24  C   UNL     1      47.024   3.109   6.437  0.00  0.00    +0.000 A 
ATOM     25  C   UNL     1      47.288   1.744   6.394  0.00  0.00    +0.000 A 
ATOM     26  C   UNL     1      46.754   0.921   7.372  0.00  0.00    +0.000 A 
ATOM     27  F   UNL     1      46.998  -0.394   7.333  0.00  0.00    +0.000 F 
ATOM     28  C   UNL     1      45.972   1.439   8.404  0.00  0.00    +0.000 A 
ENDBRANCH  20  22
ENDBRANCH  15  16
ENDBRANCH   1  15
TORSDOF 6
ENDMDL
MODEL 2
REMARK VINA RESULT:    -8.231      2.155      3.009
REMARK INTER + INTRA:         -11.661
REMARK INTER:                 -10.841
REMARK INTRA:                  -0.820
REMARK UNBOUND:                -0.542
REMARK  Name = 
REMARK  7 active torsions:
REMARK  status: ('A' for Active; 'I' for Inactive)
REMARK    1  A    between atoms: C_1  and  O_2
REMARK    2  A    between atoms: O_2  and  C_3
REMARK    3  A    between atoms: C_5  and  O_6
REMARK    4  A    between atoms: O_6  and  C_7
REMARK    5  A    between atoms: C_7  and  C_8
REMARK    6  A    between atoms: C_12  and  C_13
REMARK    7  A    between atoms: C_22  and  C_23
REMARK                            x       y       z     vdW  Elec       q    Type
REMARK                         _______ _______ _______ _____ _____    ______ ____
ROOT
ATOM      1  O   UNL     1      44.718   6.655  12.597  0.00  0.00    +0.000 OA
ENDROOT
BRANCH   1   4
ATOM      2  C   UNL     1      46.661   9.795  12.206  0.00  0.00    +0.000 A 
ATOM      3  C   UNL     1      45.571   8.926  12.218  0.00  0.00    +0.000 A 
ATOM      4  C   UNL     1      45.726   7.581  12.565  0.00  0.00    +0.000 A 
ATOM      5  C   UNL     1      46.995   7.108  12.907  0.00  0.00    +0.000 A 
ATOM      6  C   UNL     1      48.100   7.965  12.879  0.00  0.00    +0.000 A 
ATOM      7  C   UNL     1      47.928   9.315  12.545  0.00  0.00    +0.000 A 
BRANCH   6   8
ATOM      8  C   UNL     1      49.435   7.405  13.208  0.00  0.00    +0.000 C 
ATOM      9  N   UNL     1      50.383   7.418  12.224  0.00  0.00    +0.000 N 
ATOM     10  O   UNL     1      49.672   6.904  14.300  0.00  0.00    +0.000 OA
ATOM     11  H   UNL     1      50.162   7.606  11.256  0.00  0.00    +0.000 HD
ATOM     12  H   UNL     1      51.241   6.919  12.423  0.00  0.00    +0.000 HD
ENDBRANCH   6   8
BRANCH   2  14
ATOM     13  C   UNL     1      45.724  11.488  10.823  0.00  0.00    +0.000 C 
ATOM     14  O   UNL     1      46.610  11.124  11.877  0.00  0.00    +0.000 OA
ENDBRANCH   2  14
ENDBRANCH   1   4
BRANCH   1  15
ATOM     15  C   UNL     1      43.972   6.497  11.390  0.00  0.00    +0.000 C 
BRANCH  15  16
ATOM     16  C   UNL     1      43.988   5.061  10.971  0.00  0.00    +0.000 A 
ATOM     17  C   UNL     1      43.204   4.119  11.623  0.00  0.00    +0.000 A 
ATOM     18  N   UNL     1      43.196   2.809  11.312  0.00  0.00    +0.000 NA
ATOM     19  C   UNL     1      43.987   2.423  10.281  0.00  0.00    +0.000 A 
ATOM     20  C   UNL     1      44.814   3.267   9.536  0.00  0.00    +0.000 A 
ATOM     21  C   UNL     1      44.793   4.618   9.913  0.00  0.00    +0.000 A 
BRANCH  20  22
ATOM     22  C   UNL     1      45.643   2.773   8.413  0.00  0.00    +0.000 A 
ATOM     23  C   UNL     1      46.171   1.465   8.410  0.00  0.00    +0.000 A 
ATOM     24  C   UNL     1      46.921   0.978   7.332  0.00  0.00    +0.000 A 
ATOM     25  C   UNL     1      47.175   1.797   6.237  0.00  0.00    +0.000 A 
ATOM     26  C   UNL     1      46.681   3.091   6.231  0.00  0.00    +0.000 A 
ATOM     27  F   UNL     1      46.927   3.887   5.184  0.00  0.00    +0.000 F 
ATOM     28  C   UNL     1      45.923   3.580   7.295  0.00  0.00    +0.000 A 
ENDBRANCH  20  22
ENDBRANCH  15  16
ENDBRANCH   1  15
TORSDOF 6
ENDMDL
MODEL 3
REMARK VINA RESULT:    -8.142      1.500      2.755
REMARK INTER + INTRA:         -11.541
REMARK INTER:                 -10.720
REMARK INTRA:                  -0.821
REMARK UNBOUND:                -0.542
REMARK  Name = 
REMARK  7 active torsions:
REMARK  status: ('A' for Active; 'I' for Inactive)
REMARK    1  A    between atoms: C_1  and  O_2
REMARK    2  A    between atoms: O_2  and  C_3
REMARK    3  A    between atoms: C_5  and  O_6
REMARK    4  A    between atoms: O_6  and  C_7
REMARK    5  A    between atoms: C_7  and  C_8
REMARK    6  A    between atoms: C_12  and  C_13
REMARK    7  A    between atoms: C_22  and  C_23
REMARK                            x       y       z     vdW  Elec       q    Type
REMARK                         _______ _______ _______ _____ _____    ______ ____
ROOT
ATOM      1  O   UNL     1      45.831   7.197  11.305  0.00  0.00    +0.000 OA
ENDROOT
BRANCH   1   4
ATOM      2  C   UNL     1      47.859   6.168  14.241  0.00  0.00    +0.000 A 
ATOM      3  C   UNL     1      46.999   6.070  13.148  0.00  0.00    +0.000 A 
ATOM      4  C   UNL     1      46.672   7.195  12.386  0.00  0.00    +0.000 A 
ATOM      5  C   UNL     1      47.221   8.433  12.730  0.00  0.00    +0.000 A 
ATOM      6  C   UNL     1      48.069   8.547  13.836  0.00  0.00    +0.000 A 
ATOM      7  C   UNL     1      48.401   7.408  14.582  0.00  0.00    +0.000 A 
BRANCH   6   8
ATOM      8  C   UNL     1      48.593   9.891  14.186  0.00  0.00    +0.000 C 
ATOM      9  N   UNL     1      48.499  10.283  15.493  0.00  0.00    +0.000 N 
ATOM     10  O   UNL     1      49.049  10.646  13.337  0.00  0.00    +0.000 OA
ATOM     11  H   UNL     1      47.929   9.794  16.169  0.00  0.00    +0.000 HD
ATOM     12  H   UNL     1      48.742  11.246  15.689  0.00  0.00    +0.000 HD
ENDBRANCH   6   8
BRANCH   2  14
ATOM     13  C   UNL     1      47.186   4.371  15.647  0.00  0.00    +0.000 C 
ATOM     14  O   UNL     1      48.234   5.125  15.047  0.00  0.00    +0.000 OA
ENDBRANCH   2  14
ENDBRANCH   1   4
BRANCH   1  15
ATOM     15  C   UNL     1      44.484   6.800  11.555  0.00  0.00    +0.000 C 
BRANCH  15  16
ATOM     16  C   UNL     1      44.286   5.382  11.120  0.00  0.00    +0.000 A 
ATOM     17  C   UNL     1      43.339   4.574  11.734  0.00  0.00    +0.000 A 
ATOM     18  N   UNL     1      43.133   3.284  11.408  0.00  0.00    +0.000 NA
ATOM     19  C   UNL     1      43.890   2.782  10.402  0.00  0.00    +0.000 A 
ATOM     20  C   UNL     1      44.868   3.487   9.696  0.00  0.00    +0.000 A 
ATOM     21  C   UNL     1      45.049   4.822  10.087  0.00  0.00    +0.000 A 
BRANCH  20  22
ATOM     22  C   UNL     1      45.648   2.872   8.598  0.00  0.00    +0.000 A 
ATOM     23  C   UNL     1      46.186   3.652   7.552  0.00  0.00    +0.000 A 
ATOM     24  C   UNL     1      46.960   3.081   6.534  0.00  0.00    +0.000 A 
ATOM     25  C   UNL     1      47.200   1.712   6.529  0.00  0.00    +0.000 A 
ATOM     26  C   UNL     1      46.663   0.927   7.537  0.00  0.00    +0.000 A 
ATOM     27  F   UNL     1      46.884  -0.393   7.535  0.00  0.00    +0.000 F 
ATOM     28  C   UNL     1      45.901   1.489   8.561  0.00  0.00    +0.000 A 
ENDBRANCH  20  22
ENDBRANCH  15  16
ENDBRANCH   1  15
TORSDOF 6
ENDMDL
MODEL 4
REMARK VINA RESULT:    -8.069      2.492      3.537
REMARK INTER + INTRA:         -11.441
REMARK INTER:                 -10.607
REMARK INTRA:                  -0.834
REMARK UNBOUND:                -0.542
REMARK  Name = 
REMARK  7 active torsions:
REMARK  status: ('A' for Active; 'I' for Inactive)
REMARK    1  A    between atoms: C_1  and  O_2
REMARK    2  A    between atoms: O_2  and  C_3
REMARK    3  A    between atoms: C_5  and  O_6
REMARK    4  A    between atoms: O_6  and  C_7
REMARK    5  A    between atoms: C_7  and  C_8
REMARK    6  A    between atoms: C_12  and  C_13
REMARK    7  A    between atoms: C_22  and  C_23
REMARK                            x       y       z     vdW  Elec       q    Type
REMARK                         _______ _______ _______ _____ _____    ______ ____
ROOT
ATOM      1  O   UNL     1      44.930   6.799  12.753  0.00  0.00    +0.000 OA
ENDROOT
BRANCH   1   4
ATOM      2  C   UNL     1      47.900   9.026  12.654  0.00  0.00    +0.000 A 
ATOM      3  C   UNL     1      47.131   7.882  12.864  0.00  0.00    +0.000 A 
ATOM      4  C   UNL     1      45.765   7.869  12.572  0.00  0.00    +0.000 A 
ATOM      5  C   UNL     1      45.167   9.024  12.061  0.00  0.00    +0.000 A 
ATOM      6  C   UNL     1      45.924  10.184  11.865  0.00  0.00    +0.000 A 
ATOM      7  C   UNL     1      47.296  10.178  12.146  0.00  0.00    +0.000 A 
BRANCH   6   8
ATOM      8  C   UNL     1      45.235  11.398  11.360  0.00  0.00    +0.000 C 
ATOM      9  N   UNL     1      45.207  12.493  12.179  0.00  0.00    +0.000 N 
ATOM     10  O   UNL     1      44.668  11.413  10.275  0.00  0.00    +0.000 OA
ATOM     11  H   UNL     1      45.455  12.448  13.157  0.00  0.00    +0.000 HD
ATOM     12  H   UNL     1      44.626  13.264  11.874  0.00  0.00    +0.000 HD
ENDBRANCH   6   8
BRANCH   2  14
ATOM     13  C   UNL     1      49.980   7.920  12.981  0.00  0.00    +0.000 C 
ATOM     14  O   UNL     1      49.242   9.135  12.912  0.00  0.00    +0.000 OA
ENDBRANCH   2  14
ENDBRANCH   1   4
BRANCH   1  15
ATOM     15  C   UNL     1      43.931   6.605  11.753  0.00  0.00    +0.000 C 
BRANCH  15  16
ATOM     16  C   UNL     1      43.938   5.178  11.303  0.00  0.00    +0.000 A 
ATOM     17  C   UNL     1      43.167   4.223  11.951  0.00  0.00    +0.000 A 
ATOM     18  N   UNL     1      43.151   2.919  11.613  0.00  0.00    +0.000 NA
ATOM     19  C   UNL     1      43.921   2.555  10.558  0.00  0.00    +0.000 A 
ATOM     20  C   UNL     1      44.733   3.415   9.814  0.00  0.00    +0.000 A 
ATOM     21  C   UNL     1      44.721   4.757  10.219  0.00  0.00    +0.000 A 
BRANCH  20  22
ATOM     22  C   UNL     1      45.538   2.944   8.664  0.00  0.00    +0.000 A 
ATOM     23  C   UNL     1      46.003   3.837   7.677  0.00  0.00    +0.000 A 
ATOM     24  C   UNL     1      46.801   3.404   6.610  0.00  0.00    +0.000 A 
ATOM     25  C   UNL     1      47.137   2.059   6.497  0.00  0.00    +0.000 A 
ATOM     26  C   UNL     1      46.672   1.163   7.445  0.00  0.00    +0.000 A 
ATOM     27  F   UNL     1      46.985  -0.133   7.339  0.00  0.00    +0.000 F 
ATOM     28  C   UNL     1      45.887   1.588   8.517  0.00  0.00    +0.000 A 
ENDBRANCH  20  22
ENDBRANCH  15  16
ENDBRANCH   1  15
TORSDOF 6
ENDMDL
MODEL 5
REMARK VINA RESULT:    -8.021      1.490      1.737
REMARK INTER + INTRA:         -11.377
REMARK INTER:                 -10.579
REMARK INTRA:                  -0.798
REMARK UNBOUND:                -0.542
REMARK  Name = 
REMARK  7 active torsions:
REMARK  status: ('A' for Active; 'I' for Inactive)
REMARK    1  A    between atoms: C_1  and  O_2
REMARK    2  A    between atoms: O_2  and  C_3
REMARK    3  A    between atoms: C_5  and  O_6
REMARK    4  A    between atoms: O_6  and  C_7
REMARK    5  A    between atoms: C_7  and  C_8
REMARK    6  A    between atoms: C_12  and  C_13
REMARK    7  A    between atoms: C_22  and  C_23
REMARK                            x       y       z     vdW  Elec       q    Type
REMARK                         _______ _______ _______ _____ _____    ______ ____
ROOT
ATOM      1  O   UNL     1      47.003   5.967  12.767  0.00  0.00    +0.000 OA
ENDROOT
BRANCH   1   4
ATOM      2  C   UNL     1      48.841   6.804  15.883  0.00  0.00    +0.000 A 
ATOM      3  C   UNL     1      48.321   6.939  14.597  0.00  0.00    +0.000 A 
ATOM      4  C   UNL     1      47.547   5.927  14.023  0.00  0.00    +0.000 A 
ATOM      5  C   UNL     1      47.295   4.765  14.756  0.00  0.00    +0.000 A 
ATOM      6  C   UNL     1      47.828   4.609  16.040  0.00  0.00    +0.000 A 
ATOM      7  C   UNL     1      48.588   5.639  16.610  0.00  0.00    +0.000 A 
BRANCH   6   8
ATOM      8  C   UNL     1      47.567   3.339  16.762  0.00  0.00    +0.000 C 
ATOM      9  N   UNL     1      48.548   2.386  16.736  0.00  0.00    +0.000 N 
ATOM     10  O   UNL     1      46.499   3.123  17.321  0.00  0.00    +0.000 OA
ATOM     11  H   UNL     1      49.334   2.431  16.103  0.00  0.00    +0.000 HD
ATOM     12  H   UNL     1      48.304   1.483  17.122  0.00  0.00    +0.000 HD
ENDBRANCH   6   8
BRANCH   2  14
ATOM     13  C   UNL     1      49.034   8.363  17.670  0.00  0.00    +0.000 C 
ATOM     14  O   UNL     1      49.611   7.737  16.527  0.00  0.00    +0.000 OA
ENDBRANCH   2  14
ENDBRANCH   1   4
BRANCH   1  15
ATOM     15  C   UNL     1      45.607   6.252  12.697  0.00  0.00    +0.000 C 
BRANCH  15  16
ATOM     16  C   UNL     1      44.931   5.250  11.814  0.00  0.00    +0.000 A 
ATOM     17  C   UNL     1      43.623   4.856  12.056  0.00  0.00    +0.000 A 
ATOM     18  N   UNL     1      42.969   3.939  11.316  0.00  0.00    +0.000 NA
ATOM     19  C   UNL     1      43.645   3.410  10.267  0.00  0.00    +0.000 A 
ATOM     20  C   UNL     1      44.958   3.726   9.907  0.00  0.00    +0.000 A 
ATOM     21  C   UNL     1      45.593   4.676  10.721  0.00  0.00    +0.000 A 
BRANCH  20  22
ATOM     22  C   UNL     1      45.627   3.113   8.737  0.00  0.00    +0.000 A 
ATOM     23  C   UNL     1      46.063   3.895   7.647  0.00  0.00    +0.000 A 
ATOM     24  C   UNL     1      46.734   3.326   6.557  0.00  0.00    +0.000 A 
ATOM     25  C   UNL     1      46.968   1.956   6.525  0.00  0.00    +0.000 A 
ATOM     26  C   UNL     1      46.529   1.169   7.577  0.00  0.00    +0.000 A 
ATOM     27  F   UNL     1      46.746  -0.151   7.550  0.00  0.00    +0.000 F 
ATOM     28  C   UNL     1      45.871   1.729   8.672  0.00  0.00    +0.000 A 
ENDBRANCH  20  22
ENDBRANCH  15  16
ENDBRANCH   1  15
TORSDOF 6
ENDMDL
MODEL 6
REMARK VINA RESULT:    -7.585      1.405      1.708
REMARK INTER + INTRA:         -10.788
REMARK INTER:                  -9.968
REMARK INTRA:                  -0.820
REMARK UNBOUND:                -0.542
REMARK  Name = 
REMARK  7 active torsions:
REMARK  status: ('A' for Active; 'I' for Inactive)
REMARK    1  A    between atoms: C_1  and  O_2
REMARK    2  A    between atoms: O_2  and  C_3
REMARK    3  A    between atoms: C_5  and  O_6
REMARK    4  A    between atoms: O_6  and  C_7
REMARK    5  A    between atoms: C_7  and  C_8
REMARK    6  A    between atoms: C_12  and  C_13
REMARK    7  A    between atoms: C_22  and  C_23
REMARK                            x       y       z     vdW  Elec       q    Type
REMARK                         _______ _______ _______ _____ _____    ______ ____
ROOT
ATOM      1  O   UNL     1      47.282   7.165  11.988  0.00  0.00    +0.000 OA
ENDROOT
BRANCH   1   4
ATOM      2  C   UNL     1      50.255   7.993  14.055  0.00  0.00    +0.000 A 
ATOM      3  C   UNL     1      49.373   7.993  12.974  0.00  0.00    +0.000 A 
ATOM      4  C   UNL     1      48.200   7.234  13.002  0.00  0.00    +0.000 A 
ATOM      5  C   UNL     1      47.912   6.468  14.135  0.00  0.00    +0.000 A 
ATOM      6  C   UNL     1      48.798   6.445  15.216  0.00  0.00    +0.000 A 
ATOM      7  C   UNL     1      49.963   7.223  15.182  0.00  0.00    +0.000 A 
BRANCH   6   8
ATOM      8  C   UNL     1      48.469   5.583  16.379  0.00  0.00    +0.000 C 
ATOM      9  N   UNL     1      47.780   6.155  17.412  0.00  0.00    +0.000 N 
ATOM     10  O   UNL     1      48.838   4.417  16.442  0.00  0.00    +0.000 OA
ATOM     11  H   UNL     1      47.662   7.154  17.502  0.00  0.00    +0.000 HD
ATOM     12  H   UNL     1      47.677   5.592  18.247  0.00  0.00    +0.000 HD
ENDBRANCH   6   8
BRANCH   2  14
ATOM     13  C   UNL     1      52.487   8.113  14.868  0.00  0.00    +0.000 C 
ATOM     14  O   UNL     1      51.427   8.699  14.118  0.00  0.00    +0.000 OA
ENDBRANCH   2  14
ENDBRANCH   1   4
BRANCH   1  15
ATOM     15  C   UNL     1      45.911   7.221  12.378  0.00  0.00    +0.000 C 
BRANCH  15  16
ATOM     16  C   UNL     1      45.124   6.210  11.606  0.00  0.00    +0.000 A 
ATOM     17  C   UNL     1      43.772   6.020  11.852  0.00  0.00    +0.000 A 
ATOM     18  N   UNL     1      43.016   5.107  11.212  0.00  0.00    +0.000 NA
ATOM     19  C   UNL     1      43.634   4.366  10.259  0.00  0.00    +0.000 A 
ATOM     20  C   UNL     1      44.982   4.464   9.906  0.00  0.00    +0.000 A 
ATOM     21  C   UNL     1      45.723   5.421  10.615  0.00  0.00    +0.000 A 
BRANCH  20  22
ATOM     22  C   UNL     1      45.584   3.626   8.844  0.00  0.00    +0.000 A 
ATOM     23  C   UNL     1      46.181   4.202   7.704  0.00  0.00    +0.000 A 
ATOM     24  C   UNL     1      46.789   3.416   6.716  0.00  0.00    +0.000 A 
ATOM     25  C   UNL     1      46.797   2.031   6.839  0.00  0.00    +0.000 A 
ATOM     26  C   UNL     1      46.196   1.446   7.942  0.00  0.00    +0.000 A 
ATOM     27  F   UNL     1      46.194   0.114   8.063  0.00  0.00    +0.000 F 
ATOM     28  C   UNL     1      45.600   2.222   8.936  0.00  0.00    +0.000 A 
ENDBRANCH  20  22
ENDBRANCH  15  16
ENDBRANCH   1  15
TORSDOF 6
ENDMDL
MODEL 7
REMARK VINA RESULT:    -7.577      2.231      2.874
REMARK INTER + INTRA:         -10.778
REMARK INTER:                  -9.906
REMARK INTRA:                  -0.871
REMARK UNBOUND:                -0.542
REMARK  Name = 
REMARK  7 active torsions:
REMARK  status: ('A' for Active; 'I' for Inactive)
REMARK    1  A    between atoms: C_1  and  O_2
REMARK    2  A    between atoms: O_2  and  C_3
REMARK    3  A    between atoms: C_5  and  O_6
REMARK    4  A    between atoms: O_6  and  C_7
REMARK    5  A    between atoms: C_7  and  C_8
REMARK    6  A    between atoms: C_12  and  C_13
REMARK    7  A    between atoms: C_22  and  C_23
REMARK                            x       y       z     vdW  Elec       q    Type
REMARK                         _______ _______ _______ _____ _____    ______ ____
ROOT
ATOM      1  O   UNL     1      46.192   7.643  11.501  0.00  0.00    +0.000 OA
ENDROOT
BRANCH   1   4
ATOM      2  C   UNL     1      48.666   6.854  14.155  0.00  0.00    +0.000 A 
ATOM      3  C   UNL     1      47.437   6.968  13.506  0.00  0.00    +0.000 A 
ATOM      4  C   UNL     1      47.352   7.486  12.212  0.00  0.00    +0.000 A 
ATOM      5  C   UNL     1      48.520   7.892  11.562  0.00  0.00    +0.000 A 
ATOM      6  C   UNL     1      49.756   7.801  12.211  0.00  0.00    +0.000 A 
ATOM      7  C   UNL     1      49.830   7.264  13.503  0.00  0.00    +0.000 A 
BRANCH   6   8
ATOM      8  C   UNL     1      50.964   8.284  11.496  0.00  0.00    +0.000 C 
ATOM      9  N   UNL     1      51.526   9.453  11.928  0.00  0.00    +0.000 N 
ATOM     10  O   UNL     1      51.418   7.693  10.525  0.00  0.00    +0.000 OA
ATOM     11  H   UNL     1      51.055  10.082  12.564  0.00  0.00    +0.000 HD
ATOM     12  H   UNL     1      52.267   9.833  11.352  0.00  0.00    +0.000 HD
ENDBRANCH   6   8
BRANCH   2  14
ATOM     13  C   UNL     1      49.983   6.844  16.136  0.00  0.00    +0.000 C 
ATOM     14  O   UNL     1      48.849   6.363  15.422  0.00  0.00    +0.000 OA
ENDBRANCH   2  14
ENDBRANCH   1   4
BRANCH   1  15
ATOM     15  C   UNL     1      44.992   7.235  12.157  0.00  0.00    +0.000 C 
BRANCH  15  16
ATOM     16  C   UNL     1      44.523   5.933  11.587  0.00  0.00    +0.000 A 
ATOM     17  C   UNL     1      43.379   5.315  12.072  0.00  0.00    +0.000 A 
ATOM     18  N   UNL     1      42.922   4.131  11.622  0.00  0.00    +0.000 NA
ATOM     19  C   UNL     1      43.624   3.548  10.619  0.00  0.00    +0.000 A 
ATOM     20  C   UNL     1      44.783   4.067  10.035  0.00  0.00    +0.000 A 
ATOM     21  C   UNL     1      45.221   5.295  10.553  0.00  0.00    +0.000 A 
BRANCH  20  22
ATOM     22  C   UNL     1      45.490   3.377   8.933  0.00  0.00    +0.000 A 
ATOM     23  C   UNL     1      46.072   4.096   7.869  0.00  0.00    +0.000 A 
ATOM     24  C   UNL     1      46.778   3.451   6.846  0.00  0.00    +0.000 A 
ATOM     25  C   UNL     1      46.904   2.066   6.856  0.00  0.00    +0.000 A 
ATOM     26  C   UNL     1      46.322   1.341   7.882  0.00  0.00    +0.000 A 
ATOM     27  F   UNL     1      46.433   0.007   7.895  0.00  0.00    +0.000 F 
ATOM     28  C   UNL     1      45.627   1.976   8.911  0.00  0.00    +0.000 A 
ENDBRANCH  20  22
ENDBRANCH  15  16
ENDBRANCH   1  15
TORSDOF 6
ENDMDL
MODEL 8
REMARK VINA RESULT:    -7.494      2.677      3.599
REMARK INTER + INTRA:         -10.665
REMARK INTER:                 -10.038
REMARK INTRA:                  -0.627
REMARK UNBOUND:                -0.542
REMARK  Name = 
REMARK  7 active torsions:
REMARK  status: ('A' for Active; 'I' for Inactive)
REMARK    1  A    between atoms: C_1  and  O_2
REMARK    2  A    between atoms: O_2  and  C_3
REMARK    3  A    between atoms: C_5  and  O_6
REMARK    4  A    between atoms: O_6  and  C_7
REMARK    5  A    between atoms: C_7  and  C_8
REMARK    6  A    between atoms: C_12  and  C_13
REMARK    7  A    between atoms: C_22  and  C_23
REMARK                            x       y       z     vdW  Elec       q    Type
REMARK                         _______ _______ _______ _____ _____    ______ ____
ROOT
ATOM      1  O   UNL     1      46.513   3.780  14.860  0.00  0.00    +0.000 OA
ENDROOT
BRANCH   1   4
ATOM      2  C   UNL     1      47.759   4.778  18.213  0.00  0.00    +0.000 A 
ATOM      3  C   UNL     1      46.947   4.734  17.080  0.00  0.00    +0.000 A 
ATOM      4  C   UNL     1      47.245   3.884  16.012  0.00  0.00    +0.000 A 
ATOM      5  C   UNL     1      48.375   3.066  16.088  0.00  0.00    +0.000 A 
ATOM      6  C   UNL     1      49.208   3.116  17.211  0.00  0.00    +0.000 A 
ATOM      7  C   UNL     1      48.889   3.961  18.281  0.00  0.00    +0.000 A 
BRANCH   6   8
ATOM      8  C   UNL     1      50.421   2.259  17.226  0.00  0.00    +0.000 C 
ATOM      9  N   UNL     1      51.363   2.519  18.181  0.00  0.00    +0.000 N 
ATOM     10  O   UNL     1      50.601   1.383  16.390  0.00  0.00    +0.000 OA
ATOM     11  H   UNL     1      51.362   3.366  18.733  0.00  0.00    +0.000 HD
ATOM     12  H   UNL     1      52.236   2.013  18.098  0.00  0.00    +0.000 HD
ENDBRANCH   6   8
BRANCH   2  14
ATOM     13  C   UNL     1      47.582   6.985  19.082  0.00  0.00    +0.000 C 
ATOM     14  O   UNL     1      47.551   5.578  19.305  0.00  0.00    +0.000 OA
ENDBRANCH   2  14
ENDBRANCH   1   4
BRANCH   1  15
ATOM     15  C   UNL     1      46.201   5.007  14.201  0.00  0.00    +0.000 C 
BRANCH  15  16
ATOM     16  C   UNL     1      45.287   4.742  13.046  0.00  0.00    +0.000 A 
ATOM     17  C   UNL     1      43.924   4.985  13.146  0.00  0.00    +0.000 A 
ATOM     18  N   UNL     1      43.047   4.741  12.153  0.00  0.00    +0.000 NA
ATOM     19  C   UNL     1      43.557   4.256  10.995  0.00  0.00    +0.000 A 
ATOM     20  C   UNL     1      44.906   3.977  10.759  0.00  0.00    +0.000 A 
ATOM     21  C   UNL     1      45.772   4.238  11.832  0.00  0.00    +0.000 A 
BRANCH  20  22
ATOM     22  C   UNL     1      45.391   3.458   9.460  0.00  0.00    +0.000 A 
ATOM     23  C   UNL     1      45.722   4.327   8.400  0.00  0.00    +0.000 A 
ATOM     24  C   UNL     1      46.221   3.844   7.183  0.00  0.00    +0.000 A 
ATOM     25  C   UNL     1      46.384   2.476   6.994  0.00  0.00    +0.000 A 
ATOM     26  C   UNL     1      46.045   1.606   8.017  0.00  0.00    +0.000 A 
ATOM     27  F   UNL     1      46.192   0.288   7.840  0.00  0.00    +0.000 F 
ATOM     28  C   UNL     1      45.559   2.079   9.236  0.00  0.00    +0.000 A 
ENDBRANCH  20  22
ENDBRANCH  15  16
ENDBRANCH   1  15
TORSDOF 6
ENDMDL
MODEL 9
REMARK VINA RESULT:    -7.316      1.859      3.033
REMARK INTER + INTRA:         -10.424
REMARK INTER:                  -9.642
REMARK INTRA:                  -0.783
REMARK UNBOUND:                -0.542
REMARK  Name = 
REMARK  7 active torsions:
REMARK  status: ('A' for Active; 'I' for Inactive)
REMARK    1  A    between atoms: C_1  and  O_2
REMARK    2  A    between atoms: O_2  and  C_3
REMARK    3  A    between atoms: C_5  and  O_6
REMARK    4  A    between atoms: O_6  and  C_7
REMARK    5  A    between atoms: C_7  and  C_8
REMARK    6  A    between atoms: C_12  and  C_13
REMARK    7  A    between atoms: C_22  and  C_23
REMARK                            x       y       z     vdW  Elec       q    Type
REMARK                         _______ _______ _______ _____ _____    ______ ____
ROOT
ATOM      1  O   UNL     1      46.978   5.793  12.939  0.00  0.00    +0.000 OA
ENDROOT
BRANCH   1   4
ATOM      2  C   UNL     1      47.693   4.374  16.296  0.00  0.00    +0.000 A 
ATOM      3  C   UNL     1      47.166   4.486  15.010  0.00  0.00    +0.000 A 
ATOM      4  C   UNL     1      47.455   5.593  14.207  0.00  0.00    +0.000 A 
ATOM      5  C   UNL     1      48.287   6.598  14.708  0.00  0.00    +0.000 A 
ATOM      6  C   UNL     1      48.805   6.506  16.003  0.00  0.00    +0.000 A 
ATOM      7  C   UNL     1      48.521   5.383  16.791  0.00  0.00    +0.000 A 
BRANCH   6   8
ATOM      8  C   UNL     1      49.650   7.619  16.505  0.00  0.00    +0.000 C 
ATOM      9  N   UNL     1      49.690   8.764  15.760  0.00  0.00    +0.000 N 
ATOM     10  O   UNL     1      50.326   7.508  17.520  0.00  0.00    +0.000 OA
ATOM     11  H   UNL     1      49.339   8.812  14.813  0.00  0.00    +0.000 HD
ATOM     12  H   UNL     1      50.367   9.461  16.046  0.00  0.00    +0.000 HD
ENDBRANCH   6   8
BRANCH   2  14
ATOM     13  C   UNL     1      48.128   3.385  18.415  0.00  0.00    +0.000 C 
ATOM     14  O   UNL     1      47.465   3.331  17.156  0.00  0.00    +0.000 OA
ENDBRANCH   2  14
ENDBRANCH   1   4
BRANCH   1  15
ATOM     15  C   UNL     1      45.599   6.145  12.836  0.00  0.00    +0.000 C 
BRANCH  15  16
ATOM     16  C   UNL     1      44.908   5.207  11.897  0.00  0.00    +0.000 A 
ATOM     17  C   UNL     1      43.576   4.864  12.084  0.00  0.00    +0.000 A 
ATOM     18  N   UNL     1      42.907   4.005  11.291  0.00  0.00    +0.000 NA
ATOM     19  C   UNL     1      43.592   3.483  10.245  0.00  0.00    +0.000 A 
ATOM     20  C   UNL     1      44.928   3.751   9.937  0.00  0.00    +0.000 A 
ATOM     21  C   UNL     1      45.579   4.641  10.804  0.00  0.00    +0.000 A 
BRANCH  20  22
ATOM     22  C   UNL     1      45.606   3.149   8.767  0.00  0.00    +0.000 A 
ATOM     23  C   UNL     1      46.032   3.939   7.679  0.00  0.00    +0.000 A 
ATOM     24  C   UNL     1      46.712   3.381   6.588  0.00  0.00    +0.000 A 
ATOM     25  C   UNL     1      46.965   2.014   6.554  0.00  0.00    +0.000 A 
ATOM     26  C   UNL     1      46.536   1.220   7.604  0.00  0.00    +0.000 A 
ATOM     27  F   UNL     1      46.770  -0.097   7.575  0.00  0.00    +0.000 F 
ATOM     28  C   UNL     1      45.870   1.769   8.700  0.00  0.00    +0.000 A 
ENDBRANCH  20  22
ENDBRANCH  15  16
ENDBRANCH   1  15
TORSDOF 6
ENDMDL
