MODEL 1
REMARK VINA RESULT:    -8.060      0.000      0.000
REMARK INTER + INTRA:         -11.252
REMARK INTER:                 -10.416
REMARK INTRA:                  -0.836
REMARK UNBOUND:                -0.836
REMARK  Name = 
REMARK  5 active torsions:
REMARK  status: ('A' for Active; 'I' for Inactive)
REMARK    1  A    between atoms: C_2  and  C_3
REMARK    2  A    between atoms: C_7  and  C_8
REMARK    3  A    between atoms: C_8  and  C_9
REMARK    4  A    between atoms: C_9  and  C_10
REMARK    5  A    between atoms: C_14  and  C_15
REMARK                            x       y       z     vdW  Elec       q    Type
REMARK                         _______ _______ _______ _____ _____    ______ ____
ROOT
ATOM      1  C   UNL     1      44.200   5.326  11.026  0.00  0.00    +0.000 A 
ATOM      2  C   UNL     1      43.331   4.447  11.665  0.00  0.00    +0.000 A 
ATOM      3  N   UNL     1      43.180   3.148  11.327  0.00  0.00    +0.000 NA
ATOM      4  C   UNL     1      43.946   2.688  10.310  0.00  0.00    +0.000 A 
ATOM      5  C   UNL     1      44.864   3.454   9.591  0.00  0.00    +0.000 A 
ATOM      6  C   UNL     1      44.972   4.797   9.985  0.00  0.00    +0.000 A 
ENDROOT
BRANCH   5   7
ATOM      7  C   UNL     1      45.682   2.902   8.491  0.00  0.00    +0.000 A 
ATOM      8  C   UNL     1      46.202   3.726   7.475  0.00  0.00    +0.000 A 
ATOM      9  C   UNL     1      46.981   3.203   6.436  0.00  0.00    +0.000 A 
ATOM     10  C   UNL     1      47.264   1.842   6.394  0.00  0.00    +0.000 A 
ATOM     11  C   UNL     1      46.761   1.017   7.392  0.00  0.00    +0.000 A 
ATOM     12  F   UNL     1      47.033  -0.294   7.364  0.00  0.00    +0.000 F 
ATOM     13  C   UNL     1      45.979   1.530   8.421  0.00  0.00    +0.000 A 
ENDBRANCH   5   7
BRANCH   1  14
ATOM     14  C   UNL     1      44.328   6.754  11.504  0.00  0.00    +0.000 C 
BRANCH  14  15
ATOM     15  C   UNL     1      45.069   6.916  12.841  0.00  0.00    +0.000 C 
BRANCH  15  20
ATOM     16  C   UNL     1      48.528   8.319  12.076  0.00  0.00    +0.000 A 
ATOM     17  C   UNL     1      49.292   7.260  12.545  0.00  0.00    +0.000 A 
ATOM     18  N   UNL     1      48.766   6.122  13.057  0.00  0.00    +0.000 NA
ATOM     19  C   UNL     1      47.417   6.044  13.117  0.00  0.00    +0.000 A 
ATOM     20  C   UNL     1      46.560   7.053  12.690  0.00  0.00    +0.000 A 
ATOM     21  C   UNL     1      47.138   8.208  12.148  0.00  0.00    +0.000 A 
BRANCH  16  23
ATOM     22  N   UNL     1      49.662  10.436  11.113  0.00  0.00    +0.000 NA
ATOM     23  C   UNL     1      49.156   9.487  11.546  0.00  0.00    +0.000 C 
ENDBRANCH  16  23
ENDBRANCH  15  20
ENDBRANCH  14  15
ENDBRANCH   1  14
TORSDOF 5
ENDMDL
MODEL 2
REMARK VINA RESULT:    -8.056      1.378      2.568
REMARK INTER + INTRA:         -11.247
REMARK INTER:                 -10.704
REMARK INTRA:                  -0.542
REMARK UNBOUND:                -0.836
REMARK  Name = 
REMARK  5 active torsions:
REMARK  status: ('A' for Active; 'I' for Inactive)
REMARK    1  A    between atoms: C_2  and  C_3
REMARK    2  A    between atoms: C_7  and  C_8
REMARK    3  A    between atoms: C_8  and  C_9
REMARK    4  A    between atoms: C_9  and  C_10
REMARK    5  A    between atoms: C_14  and  C_15
REMARK                            x       y       z     vdW  Elec       q    Type
REMARK                         _______ _______ _______ _____ _____    ______ ____
ROOT
ATOM      1  C   UNL     1      43.786   5.118  11.071  0.00  0.00    +0.000 A 
ATOM      2  C   UNL     1      43.045   4.156  11.751  0.00  0.00    +0.000 A 
ATOM      3  N   UNL     1      43.056   2.838  11.453  0.00  0.00    +0.000 NA
ATOM      4  C   UNL     1      43.859   2.448  10.436  0.00  0.00    +0.000 A 
ATOM      5  C   UNL     1      44.662   3.300   9.679  0.00  0.00    +0.000 A 
ATOM      6  C   UNL     1      44.603   4.659  10.031  0.00  0.00    +0.000 A 
ENDROOT
BRANCH   5   7
ATOM      7  C   UNL     1      45.527   2.822   8.580  0.00  0.00    +0.000 A 
ATOM      8  C   UNL     1      46.023   3.701   7.598  0.00  0.00    +0.000 A 
ATOM      9  C   UNL     1      46.847   3.247   6.561  0.00  0.00    +0.000 A 
ATOM     10  C   UNL     1      47.200   1.904   6.488  0.00  0.00    +0.000 A 
ATOM     11  C   UNL     1      46.722   1.027   7.453  0.00  0.00    +0.000 A 
ATOM     12  F   UNL     1      47.061  -0.268   7.394  0.00  0.00    +0.000 F 
ATOM     13  C   UNL     1      45.896   1.470   8.480  0.00  0.00    +0.000 A 
ENDBRANCH   5   7
BRANCH   1  14
ATOM     14  C   UNL     1      43.738   6.564  11.503  0.00  0.00    +0.000 C 
BRANCH  14  15
ATOM     15  C   UNL     1      45.064   7.324  11.341  0.00  0.00    +0.000 C 
BRANCH  15  20
ATOM     16  C   UNL     1      47.177   5.477  13.918  0.00  0.00    +0.000 A 
ATOM     17  C   UNL     1      47.998   6.525  14.305  0.00  0.00    +0.000 A 
ATOM     18  N   UNL     1      47.893   7.784  13.816  0.00  0.00    +0.000 NA
ATOM     19  C   UNL     1      46.934   8.001  12.887  0.00  0.00    +0.000 A 
ATOM     20  C   UNL     1      46.070   7.018  12.417  0.00  0.00    +0.000 A 
ATOM     21  C   UNL     1      46.195   5.732  12.959  0.00  0.00    +0.000 A 
BRANCH  16  23
ATOM     22  N   UNL     1      47.481   3.120  14.941  0.00  0.00    +0.000 NA
ATOM     23  C   UNL     1      47.348   4.176  14.482  0.00  0.00    +0.000 C 
ENDBRANCH  16  23
ENDBRANCH  15  20
ENDBRANCH  14  15
ENDBRANCH   1  14
TORSDOF 5
ENDMDL
MODEL 3
REMARK VINA RESULT:    -7.716      1.077      1.546
REMARK INTER + INTRA:         -10.807
REMARK INTER:                 -10.059
REMARK INTRA:                  -0.748
REMARK UNBOUND:                -0.836
REMARK  Name = 
REMARK  5 active torsions:
REMARK  status: ('A' for Active; 'I' for Inactive)
REMARK    1  A    between atoms: C_2  and  C_3
REMARK    2  A    between atoms: C_7  and  C_8
REMARK    3  A    between atoms: C_8  and  C_9
REMARK    4  A    between atoms: C_9  and  C_10
REMARK    5  A    between atoms: C_14  and  C_15
REMARK                            x       y       z     vdW  Elec       q    Type
REMARK                         _______ _______ _______ _____ _____    ______ ____
ROOT
ATOM      1  C   UNL     1      44.296   5.295  11.171  0.00  0.00    +0.000 A 
ATOM      2  C   UNL     1      43.389   4.443  11.795  0.00  0.00    +0.000 A 
ATOM      3  N   UNL     1      43.173   3.161  11.425  0.00  0.00    +0.000 NA
ATOM      4  C   UNL     1      43.909   2.691  10.391  0.00  0.00    +0.000 A 
ATOM      5  C   UNL     1      44.859   3.429   9.685  0.00  0.00    +0.000 A 
ATOM      6  C   UNL     1      45.034   4.756  10.111  0.00  0.00    +0.000 A 
ENDROOT
BRANCH   5   7
ATOM      7  C   UNL     1      45.642   2.866   8.565  0.00  0.00    +0.000 A 
ATOM      8  C   UNL     1      46.117   3.678   7.517  0.00  0.00    +0.000 A 
ATOM      9  C   UNL     1      46.862   3.144   6.460  0.00  0.00    +0.000 A 
ATOM     10  C   UNL     1      47.158   1.785   6.431  0.00  0.00    +0.000 A 
ATOM     11  C   UNL     1      46.700   0.973   7.460  0.00  0.00    +0.000 A 
ATOM     12  F   UNL     1      46.984  -0.336   7.445  0.00  0.00    +0.000 F 
ATOM     13  C   UNL     1      45.950   1.496   8.508  0.00  0.00    +0.000 A 
ENDBRANCH   5   7
BRANCH   1  14
ATOM     14  C   UNL     1      44.496   6.702  11.683  0.00  0.00    +0.000 C 
BRANCH  14  15
ATOM     15  C   UNL     1      45.581   6.841  12.763  0.00  0.00    +0.000 C 
BRANCH  15  20
ATOM     16  C   UNL     1      48.925   8.274  11.632  0.00  0.00    +0.000 A 
ATOM     17  C   UNL     1      48.590   9.620  11.640  0.00  0.00    +0.000 A 
ATOM     18  N   UNL     1      47.376  10.090  12.014  0.00  0.00    +0.000 NA
ATOM     19  C   UNL     1      46.451   9.174  12.382  0.00  0.00    +0.000 A 
ATOM     20  C   UNL     1      46.678   7.802  12.394  0.00  0.00    +0.000 A 
ATOM     21  C   UNL     1      47.951   7.352  12.019  0.00  0.00    +0.000 A 
BRANCH  16  23
ATOM     22  N   UNL     1      51.289   7.518  10.897  0.00  0.00    +0.000 NA
ATOM     23  C   UNL     1      50.229   7.854  11.226  0.00  0.00    +0.000 C 
ENDBRANCH  16  23
ENDBRANCH  15  20
ENDBRANCH  14  15
ENDBRANCH   1  14
TORSDOF 5
ENDMDL
MODEL 4
REMARK VINA RESULT:    -7.644      3.123      7.091
REMARK INTER + INTRA:         -10.714
REMARK INTER:                  -9.915
REMARK INTRA:                  -0.800
REMARK UNBOUND:                -0.836
REMARK  Name = 
REMARK  5 active torsions:
REMARK  status: ('A' for Active; 'I' for Inactive)
REMARK    1  A    between atoms: C_2  and  C_3
REMARK    2  A    between atoms: C_7  and  C_8
REMARK    3  A    between atoms: C_8  and  C_9
REMARK    4  A    between atoms: C_9  and  C_10
REMARK    5  A    between atoms: C_14  and  C_15
REMARK                            x       y       z     vdW  Elec       q    Type
REMARK                         _______ _______ _______ _____ _____    ______ ____
ROOT
ATOM      1  C   UNL     1      45.216   5.245  11.941  0.00  0.00    +0.000 A 
ATOM      2  C   UNL     1      45.040   4.325  12.970  0.00  0.00    +0.000 A 
ATOM      3  N   UNL     1      45.903   4.157  13.996  0.00  0.00    +0.000 NA
ATOM      4  C   UNL     1      46.993   4.959  14.015  0.00  0.00    +0.000 A 
ATOM      5  C   UNL     1      47.289   5.929  13.057  0.00  0.00    +0.000 A 
ATOM      6  C   UNL     1      46.358   6.052  12.012  0.00  0.00    +0.000 A 
ENDROOT
BRANCH   5   7
ATOM      7  C   UNL     1      48.492   6.785  13.127  0.00  0.00    +0.000 A 
ATOM      8  C   UNL     1      49.147   7.036  14.347  0.00  0.00    +0.000 A 
ATOM      9  C   UNL     1      50.290   7.842  14.411  0.00  0.00    +0.000 A 
ATOM     10  C   UNL     1      50.808   8.409  13.251  0.00  0.00    +0.000 A 
ATOM     11  C   UNL     1      50.175   8.166  12.040  0.00  0.00    +0.000 A 
ATOM     12  F   UNL     1      50.670   8.703  10.917  0.00  0.00    +0.000 F 
ATOM     13  C   UNL     1      49.034   7.374  11.972  0.00  0.00    +0.000 A 
ENDBRANCH   5   7
BRANCH   1  14
ATOM     14  C   UNL     1      44.174   5.386  10.857  0.00  0.00    +0.000 C 
BRANCH  14  15
ATOM     15  C   UNL     1      43.846   4.082  10.114  0.00  0.00    +0.000 C 
BRANCH  15  20
ATOM     16  C   UNL     1      46.217   1.929   8.050  0.00  0.00    +0.000 A 
ATOM     17  C   UNL     1      46.828   2.935   7.316  0.00  0.00    +0.000 A 
ATOM     18  N   UNL     1      46.549   4.252   7.467  0.00  0.00    +0.000 NA
ATOM     19  C   UNL     1      45.606   4.576   8.381  0.00  0.00    +0.000 A 
ATOM     20  C   UNL     1      44.922   3.646   9.156  0.00  0.00    +0.000 A 
ATOM     21  C   UNL     1      45.250   2.295   8.988  0.00  0.00    +0.000 A 
BRANCH  16  23
ATOM     22  N   UNL     1      46.854  -0.550   7.666  0.00  0.00    +0.000 NA
ATOM     23  C   UNL     1      46.567   0.561   7.836  0.00  0.00    +0.000 C 
ENDBRANCH  16  23
ENDBRANCH  15  20
ENDBRANCH  14  15
ENDBRANCH   1  14
TORSDOF 5
ENDMDL
MODEL 5
REMARK VINA RESULT:    -7.597      3.386      7.245
REMARK INTER + INTRA:         -10.654
REMARK INTER:                  -9.779
REMARK INTRA:                  -0.875
REMARK UNBOUND:                -0.836
REMARK  Name = 
REMARK  5 active torsions:
REMARK  status: ('A' for Active; 'I' for Inactive)
REMARK    1  A    between atoms: C_2  and  C_3
REMARK    2  A    between atoms: C_7  and  C_8
REMARK    3  A    between atoms: C_8  and  C_9
REMARK    4  A    between atoms: C_9  and  C_10
REMARK    5  A    between atoms: C_14  and  C_15
REMARK                            x       y       z     vdW  Elec       q    Type
REMARK                         _______ _______ _______ _____ _____    ______ ____
ROOT
ATOM      1  C   UNL     1      45.081   4.175  11.744  0.00  0.00    +0.000 A 
ATOM      2  C   UNL     1      45.572   3.437  12.817  0.00  0.00    +0.000 A 
ATOM      3  N   UNL     1      46.495   3.891  13.692  0.00  0.00    +0.000 NA
ATOM      4  C   UNL     1      46.945   5.154  13.506  0.00  0.00    +0.000 A 
ATOM      5  C   UNL     1      46.533   6.007  12.482  0.00  0.00    +0.000 A 
ATOM      6  C   UNL     1      45.577   5.476  11.601  0.00  0.00    +0.000 A 
ENDROOT
BRANCH   5   7
ATOM      7  C   UNL     1      47.051   7.382  12.325  0.00  0.00    +0.000 A 
ATOM      8  C   UNL     1      48.426   7.635  12.155  0.00  0.00    +0.000 A 
ATOM      9  C   UNL     1      48.916   8.937  12.002  0.00  0.00    +0.000 A 
ATOM     10  C   UNL     1      48.038  10.017  12.007  0.00  0.00    +0.000 A 
ATOM     11  C   UNL     1      46.679   9.782  12.169  0.00  0.00    +0.000 A 
ATOM     12  F   UNL     1      45.826  10.814  12.169  0.00  0.00    +0.000 F 
ATOM     13  C   UNL     1      46.188   8.491  12.331  0.00  0.00    +0.000 A 
ENDBRANCH   5   7
BRANCH   1  14
ATOM     14  C   UNL     1      44.019   3.594  10.841  0.00  0.00    +0.000 C 
BRANCH  14  15
ATOM     15  C   UNL     1      44.073   4.091   9.388  0.00  0.00    +0.000 C 
BRANCH  15  20
ATOM     16  C   UNL     1      46.442   1.578   7.777  0.00  0.00    +0.000 A 
ATOM     17  C   UNL     1      47.197   2.459   7.017  0.00  0.00    +0.000 A 
ATOM     18  N   UNL     1      47.011   3.801   7.016  0.00  0.00    +0.000 NA
ATOM     19  C   UNL     1      46.018   4.282   7.798  0.00  0.00    +0.000 A 
ATOM     20  C   UNL     1      45.194   3.486   8.586  0.00  0.00    +0.000 A 
ATOM     21  C   UNL     1      45.426   2.105   8.577  0.00  0.00    +0.000 A 
BRANCH  16  23
ATOM     22  N   UNL     1      46.904  -0.967   7.692  0.00  0.00    +0.000 NA
ATOM     23  C   UNL     1      46.699   0.174   7.728  0.00  0.00    +0.000 C 
ENDBRANCH  16  23
ENDBRANCH  15  20
ENDBRANCH  14  15
ENDBRANCH   1  14
TORSDOF 5
ENDMDL
MODEL 6
REMARK VINA RESULT:    -7.487      1.946      2.477
REMARK INTER + INTRA:         -10.512
REMARK INTER:                 -10.075
REMARK INTRA:                  -0.437
REMARK UNBOUND:                -0.836
REMARK  Name = 
REMARK  5 active torsions:
REMARK  status: ('A' for Active; 'I' for Inactive)
REMARK    1  A    between atoms: C_2  and  C_3
REMARK    2  A    between atoms: C_7  and  C_8
REMARK    3  A    between atoms: C_8  and  C_9
REMARK    4  A    between atoms: C_9  and  C_10
REMARK    5  A    between atoms: C_14  and  C_15
REMARK                            x       y       z     vdW  Elec       q    Type
REMARK                         _______ _______ _______ _____ _____    ______ ____
ROOT
ATOM      1  C   UNL     1      44.809   5.540  11.079  0.00  0.00    +0.000 A 
ATOM      2  C   UNL     1      43.645   4.935  11.543  0.00  0.00    +0.000 A 
ATOM      3  N   UNL     1      43.140   3.783  11.051  0.00  0.00    +0.000 NA
ATOM      4  C   UNL     1      43.836   3.186  10.056  0.00  0.00    +0.000 A 
ATOM      5  C   UNL     1      45.020   3.674   9.504  0.00  0.00    +0.000 A 
ATOM      6  C   UNL     1      45.491   4.878  10.052  0.00  0.00    +0.000 A 
ENDROOT
BRANCH   5   7
ATOM      7  C   UNL     1      45.745   2.981   8.419  0.00  0.00    +0.000 A 
ATOM      8  C   UNL     1      46.224   3.675   7.292  0.00  0.00    +0.000 A 
ATOM      9  C   UNL     1      46.915   3.018   6.267  0.00  0.00    +0.000 A 
ATOM     10  C   UNL     1      47.152   1.649   6.353  0.00  0.00    +0.000 A 
ATOM     11  C   UNL     1      46.690   0.952   7.461  0.00  0.00    +0.000 A 
ATOM     12  F   UNL     1      46.917  -0.364   7.555  0.00  0.00    +0.000 F 
ATOM     13  C   UNL     1      45.993   1.598   8.477  0.00  0.00    +0.000 A 
ENDBRANCH   5   7
BRANCH   1  14
ATOM     14  C   UNL     1      45.316   6.810  11.721  0.00  0.00    +0.000 C 
BRANCH  14  15
ATOM     15  C   UNL     1      46.825   6.818  12.016  0.00  0.00    +0.000 C 
BRANCH  15  20
ATOM     16  C   UNL     1      48.397   6.076  15.406  0.00  0.00    +0.000 A 
ATOM     17  C   UNL     1      47.716   4.905  15.702  0.00  0.00    +0.000 A 
ATOM     18  N   UNL     1      46.815   4.329  14.870  0.00  0.00    +0.000 NA
ATOM     19  C   UNL     1      46.573   4.960  13.698  0.00  0.00    +0.000 A 
ATOM     20  C   UNL     1      47.188   6.146  13.313  0.00  0.00    +0.000 A 
ATOM     21  C   UNL     1      48.128   6.703  14.188  0.00  0.00    +0.000 A 
BRANCH  16  23
ATOM     22  N   UNL     1      50.102   7.063  17.085  0.00  0.00    +0.000 NA
ATOM     23  C   UNL     1      49.336   6.623  16.334  0.00  0.00    +0.000 C 
ENDBRANCH  16  23
ENDBRANCH  15  20
ENDBRANCH  14  15
ENDBRANCH   1  14
TORSDOF 5
ENDMDL
MODEL 7
REMARK VINA RESULT:    -7.451      3.690      7.638
REMARK INTER + INTRA:         -10.465
REMARK INTER:                  -9.866
REMARK INTRA:                  -0.599
REMARK UNBOUND:                -0.836
REMARK  Name = 
REMARK  5 active torsions:
REMARK  status: ('A' for Active; 'I' for Inactive)
REMARK    1  A    between atoms: C_2  and  C_3
REMARK    2  A    between atoms: C_7  and  C_8
REMARK    3  A    between atoms: C_8  and  C_9
REMARK    4  A    between atoms: C_9  and  C_10
REMARK    5  A    between atoms: C_14  and  C_15
REMARK                            x       y       z     vdW  Elec       q    Type
REMARK                         _______ _______ _______ _____ _____    ______ ____
ROOT
ATOM      1  C   UNL     1      45.399   4.657  12.104  0.00  0.00    +0.000 A 
ATOM      2  C   UNL     1      45.799   5.838  11.487  0.00  0.00    +0.000 A 
ATOM      3  N   UNL     1      46.671   6.719  12.025  0.00  0.00    +0.000 NA
ATOM      4  C   UNL     1      47.188   6.404  13.235  0.00  0.00    +0.000 A 
ATOM      5  C   UNL     1      46.885   5.252  13.960  0.00  0.00    +0.000 A 
ATOM      6  C   UNL     1      45.969   4.378  13.351  0.00  0.00    +0.000 A 
ENDROOT
BRANCH   5   7
ATOM      7  C   UNL     1      47.483   4.951  15.277  0.00  0.00    +0.000 A 
ATOM      8  C   UNL     1      48.419   5.817  15.875  0.00  0.00    +0.000 A 
ATOM      9  C   UNL     1      48.982   5.534  17.125  0.00  0.00    +0.000 A 
ATOM     10  C   UNL     1      48.613   4.380  17.810  0.00  0.00    +0.000 A 
ATOM     11  C   UNL     1      47.688   3.520  17.235  0.00  0.00    +0.000 A 
ATOM     12  F   UNL     1      47.323   2.410  17.889  0.00  0.00    +0.000 F 
ATOM     13  C   UNL     1      47.133   3.791  15.989  0.00  0.00    +0.000 A 
ENDBRANCH   5   7
BRANCH   1  14
ATOM     14  C   UNL     1      44.448   3.715  11.403  0.00  0.00    +0.000 C 
BRANCH  14  15
ATOM     15  C   UNL     1      44.138   4.088   9.945  0.00  0.00    +0.000 C 
BRANCH  15  20
ATOM     16  C   UNL     1      46.320   1.726   7.901  0.00  0.00    +0.000 A 
ATOM     17  C   UNL     1      46.916   2.660   7.067  0.00  0.00    +0.000 A 
ATOM     18  N   UNL     1      46.684   3.993   7.143  0.00  0.00    +0.000 NA
ATOM     19  C   UNL     1      45.807   4.408   8.085  0.00  0.00    +0.000 A 
ATOM     20  C   UNL     1      45.143   3.555   8.960  0.00  0.00    +0.000 A 
ATOM     21  C   UNL     1      45.421   2.185   8.865  0.00  0.00    +0.000 A 
BRANCH  16  23
ATOM     22  N   UNL     1      46.863  -0.791   7.645  0.00  0.00    +0.000 NA
ATOM     23  C   UNL     1      46.617   0.336   7.761  0.00  0.00    +0.000 C 
ENDBRANCH  16  23
ENDBRANCH  15  20
ENDBRANCH  14  15
ENDBRANCH   1  14
TORSDOF 5
ENDMDL
MODEL 8
REMARK VINA RESULT:    -7.189      2.470      3.412
REMARK INTER + INTRA:         -10.127
REMARK INTER:                  -9.455
REMARK INTRA:                  -0.672
REMARK UNBOUND:                -0.836
REMARK  Name = 
REMARK  5 active torsions:
REMARK  status: ('A' for Active; 'I' for Inactive)
REMARK    1  A    between atoms: C_2  and  C_3
REMARK    2  A    between atoms: C_7  and  C_8
REMARK    3  A    between atoms: C_8  and  C_9
REMARK    4  A    between atoms: C_9  and  C_10
REMARK    5  A    between atoms: C_14  and  C_15
REMARK                            x       y       z     vdW  Elec       q    Type
REMARK                         _______ _______ _______ _____ _____    ______ ____
ROOT
ATOM      1  C   UNL     1      45.205   6.079  11.478  0.00  0.00    +0.000 A 
ATOM      2  C   UNL     1      43.833   5.981  11.686  0.00  0.00    +0.000 A 
ATOM      3  N   UNL     1      43.019   5.143  11.007  0.00  0.00    +0.000 NA
ATOM      4  C   UNL     1      43.600   4.344  10.082  0.00  0.00    +0.000 A 
ATOM      5  C   UNL     1      44.961   4.330   9.779  0.00  0.00    +0.000 A 
ATOM      6  C   UNL     1      45.754   5.227  10.513  0.00  0.00    +0.000 A 
ENDROOT
BRANCH   5   7
ATOM      7  C   UNL     1      45.547   3.432   8.762  0.00  0.00    +0.000 A 
ATOM      8  C   UNL     1      45.664   2.046   8.983  0.00  0.00    +0.000 A 
ATOM      9  C   UNL     1      46.215   1.196   8.017  0.00  0.00    +0.000 A 
ATOM     10  C   UNL     1      46.653   1.713   6.802  0.00  0.00    +0.000 A 
ATOM     11  C   UNL     1      46.539   3.076   6.568  0.00  0.00    +0.000 A 
ATOM     12  F   UNL     1      46.953   3.583   5.399  0.00  0.00    +0.000 F 
ATOM     13  C   UNL     1      46.002   3.927   7.528  0.00  0.00    +0.000 A 
ENDBRANCH   5   7
BRANCH   1  14
ATOM     14  C   UNL     1      46.039   7.020  12.316  0.00  0.00    +0.000 C 
BRANCH  14  15
ATOM     15  C   UNL     1      47.468   6.529  12.595  0.00  0.00    +0.000 C 
BRANCH  15  20
ATOM     16  C   UNL     1      48.179   5.426  16.172  0.00  0.00    +0.000 A 
ATOM     17  C   UNL     1      47.670   4.138  16.099  0.00  0.00    +0.000 A 
ATOM     18  N   UNL     1      47.147   3.599  14.972  0.00  0.00    +0.000 NA
ATOM     19  C   UNL     1      47.118   4.387  13.873  0.00  0.00    +0.000 A 
ATOM     20  C   UNL     1      47.586   5.696  13.843  0.00  0.00    +0.000 A 
ATOM     21  C   UNL     1      48.138   6.215  15.021  0.00  0.00    +0.000 A 
BRANCH  16  23
ATOM     22  N   UNL     1      49.152   6.334  18.392  0.00  0.00    +0.000 NA
ATOM     23  C   UNL     1      48.717   5.925  17.398  0.00  0.00    +0.000 C 
ENDBRANCH  16  23
ENDBRANCH  15  20
ENDBRANCH  14  15
ENDBRANCH   1  14
TORSDOF 5
ENDMDL
MODEL 9
REMARK VINA RESULT:    -7.107      2.322      2.996
REMARK INTER + INTRA:         -10.021
REMARK INTER:                  -9.291
REMARK INTRA:                  -0.730
REMARK UNBOUND:                -0.836
REMARK  Name = 
REMARK  5 active torsions:
REMARK  status: ('A' for Active; 'I' for Inactive)
REMARK    1  A    between atoms: C_2  and  C_3
REMARK    2  A    between atoms: C_7  and  C_8
REMARK    3  A    between atoms: C_8  and  C_9
REMARK    4  A    between atoms: C_9  and  C_10
REMARK    5  A    between atoms: C_14  and  C_15
REMARK                            x       y       z     vdW  Elec       q    Type
REMARK                         _______ _______ _______ _____ _____    ______ ____
ROOT
ATOM      1  C   UNL     1      44.587   4.957  11.782  0.00  0.00    +0.000 A 
ATOM      2  C   UNL     1      43.551   4.142  12.228  0.00  0.00    +0.000 A 
ATOM      3  N   UNL     1      43.154   3.009  11.609  0.00  0.00    +0.000 NA
ATOM      4  C   UNL     1      43.834   2.652  10.494  0.00  0.00    +0.000 A 
ATOM      5  C   UNL     1      44.898   3.367   9.943  0.00  0.00    +0.000 A 
ATOM      6  C   UNL     1      45.259   4.538  10.628  0.00  0.00    +0.000 A 
ENDROOT
BRANCH   5   7
ATOM      7  C   UNL     1      45.612   2.930   8.725  0.00  0.00    +0.000 A 
ATOM      8  C   UNL     1      45.999   3.848   7.730  0.00  0.00    +0.000 A 
ATOM      9  C   UNL     1      46.679   3.435   6.579  0.00  0.00    +0.000 A 
ATOM     10  C   UNL     1      46.997   2.092   6.402  0.00  0.00    +0.000 A 
ATOM     11  C   UNL     1      46.626   1.176   7.377  0.00  0.00    +0.000 A 
ATOM     12  F   UNL     1      46.932  -0.118   7.218  0.00  0.00    +0.000 F 
ATOM     13  C   UNL     1      45.941   1.580   8.518  0.00  0.00    +0.000 A 
ENDBRANCH   5   7
BRANCH   1  14
ATOM     14  C   UNL     1      44.984   6.185  12.567  0.00  0.00    +0.000 C 
BRANCH  14  15
ATOM     15  C   UNL     1      46.144   6.986  11.956  0.00  0.00    +0.000 C 
BRANCH  15  20
ATOM     16  C   UNL     1      44.371  10.324  11.471  0.00  0.00    +0.000 A 
ATOM     17  C   UNL     1      45.427  11.169  11.779  0.00  0.00    +0.000 A 
ATOM     18  N   UNL     1      46.669  10.734  12.099  0.00  0.00    +0.000 NA
ATOM     19  C   UNL     1      46.861   9.395  12.126  0.00  0.00    +0.000 A 
ATOM     20  C   UNL     1      45.868   8.462  11.850  0.00  0.00    +0.000 A 
ATOM     21  C   UNL     1      44.600   8.947  11.505  0.00  0.00    +0.000 A 
BRANCH  16  23
ATOM     22  N   UNL     1      42.044  11.286  10.873  0.00  0.00    +0.000 NA
ATOM     23  C   UNL     1      43.088  10.857  11.140  0.00  0.00    +0.000 C 
ENDBRANCH  16  23
ENDBRANCH  15  20
ENDBRANCH  14  15
ENDBRANCH   1  14
TORSDOF 5
ENDMDL
