MODEL 1
REMARK VINA RESULT:    -8.292      0.000      0.000
REMARK INTER + INTRA:         -12.205
REMARK INTER:                 -11.201
REMARK INTRA:                  -1.004
REMARK UNBOUND:                -1.004
REMARK  Name = 
REMARK  6 active torsions:
REMARK  status: ('A' for Active; 'I' for Inactive)
REMARK    1  A    between atoms: C_2  and  C_25
REMARK    2  A    between atoms: N_3  and  C_4
REMARK    3  A    between atoms: C_4  and  C_5
REMARK    4  A    between atoms: C_8  and  C_9
REMARK    5  A    between atoms: C_9  and  N_10
REMARK    6  A    between atoms: C_11  and  C_13
REMARK                            x       y       z     vdW  Elec       q    Type
REMARK                         _______ _______ _______ _____ _____    ______ ____
ROOT
ATOM      1  C   UNL     1      44.951   6.095  11.039  0.00  0.00    +0.000 A 
ATOM      2  C   UNL     1      44.509   7.360  11.451  0.00  0.00    +0.000 A 
ATOM      3  C   UNL     1      45.273   8.132  12.337  0.00  0.00    +0.000 A 
ATOM      4  C   UNL     1      46.503   7.660  12.815  0.00  0.00    +0.000 A 
ATOM      5  C   UNL     1      46.936   6.390  12.410  0.00  0.00    +0.000 A 
ATOM      6  C   UNL     1      46.176   5.621  11.524  0.00  0.00    +0.000 A 
ENDROOT
BRANCH   1   7
ATOM      7  C   UNL     1      44.119   5.254  10.110  0.00  0.00    +0.000 C 
BRANCH   7  10
ATOM      8  O   UNL     1      44.423   2.491  10.089  0.00  0.00    +0.000 OA
ATOM      9  C   UNL     1      44.987   3.151   9.219  0.00  0.00    +0.000 C 
ATOM     10  N   UNL     1      44.905   4.524   9.146  0.00  0.00    +0.000 N 
ATOM     11  H   UNL     1      45.405   5.002   8.404  0.00  0.00    +0.000 HD
BRANCH   9  12
ATOM     12  C   UNL     1      45.809   2.474   8.167  0.00  0.00    +0.000 A 
ATOM     13  C   UNL     1      46.184   3.198   7.055  0.00  0.00    +0.000 A 
ATOM     14  C   UNL     1      46.939   2.516   6.135  0.00  0.00    +0.000 A 
ATOM     15  N   UNL     1      47.296   1.225   6.287  0.00  0.00    +0.000 NA
ATOM     16  C   UNL     1      46.872   0.621   7.406  0.00  0.00    +0.000 A 
ATOM     17  N   UNL     1      46.137   1.178   8.380  0.00  0.00    +0.000 NA
ENDBRANCH   9  12
ENDBRANCH   7  10
ENDBRANCH   1   7
BRANCH   4  18
ATOM     18  C   UNL     1      47.345   8.478  13.767  0.00  0.00    +0.000 C 
BRANCH  18  19
ATOM     19  N   UNL     1      47.729   7.712  14.924  0.00  0.00    +0.000 N 
ATOM     20  C   UNL     1      48.980   7.156  15.037  0.00  0.00    +0.000 C 
ATOM     21  O   UNL     1      49.848   7.320  14.184  0.00  0.00    +0.000 OA
ATOM     22  H   UNL     1      46.976   7.340  15.491  0.00  0.00    +0.000 HD
BRANCH  20  23
ATOM     23  C   UNL     1      49.249   6.414  16.276  0.00  0.00    +0.000 A 
ATOM     24  C   UNL     1      50.227   6.858  17.155  0.00  0.00    +0.000 A 
ATOM     25  S   UNL     1      50.363   5.907  18.565  0.00  0.00    +0.000 S 
ATOM     26  C   UNL     1      49.155   4.836  18.026  0.00  0.00    +0.000 A 
ATOM     27  N   UNL     1      48.796   3.752  18.766  0.00  0.00    +0.000 NA
ATOM     28  C   UNL     1      47.892   3.010  18.220  0.00  0.00    +0.000 A 
ATOM     29  N   UNL     1      47.310   3.253  17.001  0.00  0.00    +0.000 N 
ATOM     30  C   UNL     1      47.618   4.350  16.236  0.00  0.00    +0.000 A 
ATOM     31  O   UNL     1      47.043   4.566  15.174  0.00  0.00    +0.000 OA
ATOM     32  C   UNL     1      48.644   5.210  16.796  0.00  0.00    +0.000 A 
ATOM     33  H   UNL     1      46.600   2.637  16.635  0.00  0.00    +0.000 HD
ENDBRANCH  20  23
ENDBRANCH  18  19
ENDBRANCH   4  18
TORSDOF 6
ENDMDL
MODEL 2
REMARK VINA RESULT:    -8.103      1.767      2.262
REMARK INTER + INTRA:         -11.950
REMARK INTER:                 -11.031
REMARK INTRA:                  -0.918
REMARK UNBOUND:                -1.004
REMARK  Name = 
REMARK  6 active torsions:
REMARK  status: ('A' for Active; 'I' for Inactive)
REMARK    1  A    between atoms: C_2  and  C_25
REMARK    2  A    between atoms: N_3  and  C_4
REMARK    3  A    between atoms: C_4  and  C_5
REMARK    4  A    between atoms: C_8  and  C_9
REMARK    5  A    between atoms: C_9  and  N_10
REMARK    6  A    between atoms: C_11  and  C_13
REMARK                            x       y       z     vdW  Elec       q    Type
REMARK                         _______ _______ _______ _____ _____    ______ ____
ROOT
ATOM      1  C   UNL     1      44.724   4.872  11.674  0.00  0.00    +0.000 A 
ATOM      2  C   UNL     1      45.878   4.902  12.469  0.00  0.00    +0.000 A 
ATOM      3  C   UNL     1      46.417   6.121  12.902  0.00  0.00    +0.000 A 
ATOM      4  C   UNL     1      45.801   7.334  12.564  0.00  0.00    +0.000 A 
ATOM      5  C   UNL     1      44.654   7.300  11.759  0.00  0.00    +0.000 A 
ATOM      6  C   UNL     1      44.115   6.085  11.329  0.00  0.00    +0.000 A 
ENDROOT
BRANCH   1   7
ATOM      7  C   UNL     1      44.161   3.567  11.184  0.00  0.00    +0.000 C 
BRANCH   7  10
ATOM      8  O   UNL     1      44.371   4.150   8.475  0.00  0.00    +0.000 OA
ATOM      9  C   UNL     1      45.069   3.250   8.937  0.00  0.00    +0.000 C 
ATOM     10  N   UNL     1      45.034   2.880  10.264  0.00  0.00    +0.000 N 
ATOM     11  H   UNL     1      45.632   2.121  10.572  0.00  0.00    +0.000 HD
BRANCH   9  12
ATOM     12  C   UNL     1      46.016   2.497   8.058  0.00  0.00    +0.000 A 
ATOM     13  C   UNL     1      46.695   3.187   7.075  0.00  0.00    +0.000 A 
ATOM     14  C   UNL     1      47.549   2.434   6.310  0.00  0.00    +0.000 A 
ATOM     15  N   UNL     1      47.724   1.109   6.487  0.00  0.00    +0.000 NA
ATOM     16  C   UNL     1      47.009   0.545   7.471  0.00  0.00    +0.000 A 
ATOM     17  N   UNL     1      46.149   1.169   8.288  0.00  0.00    +0.000 NA
ENDBRANCH   9  12
ENDBRANCH   7  10
ENDBRANCH   1   7
BRANCH   4  18
ATOM     18  C   UNL     1      46.363   8.659  13.025  0.00  0.00    +0.000 C 
BRANCH  18  19
ATOM     19  N   UNL     1      46.851   8.584  14.377  0.00  0.00    +0.000 N 
ATOM     20  C   UNL     1      48.115   9.007  14.711  0.00  0.00    +0.000 C 
ATOM     21  O   UNL     1      48.874   9.512  13.888  0.00  0.00    +0.000 OA
ATOM     22  H   UNL     1      46.372   7.942  14.996  0.00  0.00    +0.000 HD
BRANCH  20  23
ATOM     23  C   UNL     1      48.482   8.893  16.128  0.00  0.00    +0.000 A 
ATOM     24  C   UNL     1      48.525  10.025  16.930  0.00  0.00    +0.000 A 
ATOM     25  S   UNL     1      48.915   9.697  18.558  0.00  0.00    +0.000 S 
ATOM     26  C   UNL     1      49.093   8.034  18.238  0.00  0.00    +0.000 A 
ATOM     27  N   UNL     1      49.456   7.165  19.219  0.00  0.00    +0.000 NA
ATOM     28  C   UNL     1      49.586   5.942  18.827  0.00  0.00    +0.000 A 
ATOM     29  N   UNL     1      49.383   5.506  17.541  0.00  0.00    +0.000 N 
ATOM     30  C   UNL     1      48.984   6.342  16.528  0.00  0.00    +0.000 A 
ATOM     31  O   UNL     1      48.761   5.912  15.400  0.00  0.00    +0.000 OA
ATOM     32  C   UNL     1      48.841   7.734  16.912  0.00  0.00    +0.000 A 
ATOM     33  H   UNL     1      49.491   4.532  17.302  0.00  0.00    +0.000 HD
ENDBRANCH  20  23
ENDBRANCH  18  19
ENDBRANCH   4  18
TORSDOF 6
ENDMDL
MODEL 3
REMARK VINA RESULT:    -7.731      2.163      2.545
REMARK INTER + INTRA:         -11.448
REMARK INTER:                 -10.464
REMARK INTRA:                  -0.984
REMARK UNBOUND:                -1.004
REMARK  Name = 
REMARK  6 active torsions:
REMARK  status: ('A' for Active; 'I' for Inactive)
REMARK    1  A    between atoms: C_2  and  C_25
REMARK    2  A    between atoms: N_3  and  C_4
REMARK    3  A    between atoms: C_4  and  C_5
REMARK    4  A    between atoms: C_8  and  C_9
REMARK    5  A    between atoms: C_9  and  N_10
REMARK    6  A    between atoms: C_11  and  C_13
REMARK                            x       y       z     vdW  Elec       q    Type
REMARK                         _______ _______ _______ _____ _____    ______ ____
ROOT
ATOM      1  C   UNL     1      45.319   5.235  11.722  0.00  0.00    +0.000 A 
ATOM      2  C   UNL     1      45.442   6.621  11.547  0.00  0.00    +0.000 A 
ATOM      3  C   UNL     1      46.333   7.365  12.332  0.00  0.00    +0.000 A 
ATOM      4  C   UNL     1      47.131   6.735  13.297  0.00  0.00    +0.000 A 
ATOM      5  C   UNL     1      46.996   5.352  13.477  0.00  0.00    +0.000 A 
ATOM      6  C   UNL     1      46.110   4.608  12.693  0.00  0.00    +0.000 A 
ENDROOT
BRANCH   1   7
ATOM      7  C   UNL     1      44.343   4.439  10.900  0.00  0.00    +0.000 C 
BRANCH   7  10
ATOM      8  O   UNL     1      45.400   4.926   8.377  0.00  0.00    +0.000 OA
ATOM      9  C   UNL     1      45.475   3.788   8.835  0.00  0.00    +0.000 C 
ATOM     10  N   UNL     1      44.976   3.443  10.072  0.00  0.00    +0.000 N 
ATOM     11  H   UNL     1      45.067   2.480  10.381  0.00  0.00    +0.000 HD
BRANCH   9  12
ATOM     12  C   UNL     1      46.132   2.696   8.051  0.00  0.00    +0.000 A 
ATOM     13  C   UNL     1      46.855   3.034   6.926  0.00  0.00    +0.000 A 
ATOM     14  C   UNL     1      47.432   1.984   6.259  0.00  0.00    +0.000 A 
ATOM     15  N   UNL     1      47.311   0.702   6.657  0.00  0.00    +0.000 NA
ATOM     16  C   UNL     1      46.583   0.492   7.764  0.00  0.00    +0.000 A 
ATOM     17  N   UNL     1      45.975   1.430   8.504  0.00  0.00    +0.000 NA
ENDBRANCH   9  12
ENDBRANCH   7  10
ENDBRANCH   1   7
BRANCH   4  18
ATOM     18  C   UNL     1      48.101   7.518  14.151  0.00  0.00    +0.000 C 
BRANCH  18  19
ATOM     19  N   UNL     1      48.041   7.109  15.529  0.00  0.00    +0.000 N 
ATOM     20  C   UNL     1      49.135   6.587  16.175  0.00  0.00    +0.000 C 
ATOM     21  O   UNL     1      50.230   6.485  15.628  0.00  0.00    +0.000 OA
ATOM     22  H   UNL     1      47.118   6.927  15.908  0.00  0.00    +0.000 HD
BRANCH  20  23
ATOM     23  C   UNL     1      48.944   6.226  17.586  0.00  0.00    +0.000 A 
ATOM     24  C   UNL     1      49.302   4.963  18.036  0.00  0.00    +0.000 A 
ATOM     25  S   UNL     1      49.061   4.739  19.711  0.00  0.00    +0.000 S 
ATOM     26  C   UNL     1      48.420   6.307  19.884  0.00  0.00    +0.000 A 
ATOM     27  N   UNL     1      47.979   6.756  21.090  0.00  0.00    +0.000 NA
ATOM     28  C   UNL     1      47.488   7.949  21.067  0.00  0.00    +0.000 A 
ATOM     29  N   UNL     1      47.398   8.739  19.947  0.00  0.00    +0.000 N 
ATOM     30  C   UNL     1      47.860   8.338  18.718  0.00  0.00    +0.000 A 
ATOM     31  O   UNL     1      47.811   9.087  17.747  0.00  0.00    +0.000 OA
ATOM     32  C   UNL     1      48.407   6.995  18.684  0.00  0.00    +0.000 A 
ATOM     33  H   UNL     1      47.012   9.669  20.000  0.00  0.00    +0.000 HD
ENDBRANCH  20  23
ENDBRANCH  18  19
ENDBRANCH   4  18
TORSDOF 6
ENDMDL
MODEL 4
REMARK VINA RESULT:    -7.339      4.904      9.725
REMARK INTER + INTRA:         -10.918
REMARK INTER:                 -10.108
REMARK INTRA:                  -0.809
REMARK UNBOUND:                -1.004
REMARK  Name = 
REMARK  6 active torsions:
REMARK  status: ('A' for Active; 'I' for Inactive)
REMARK    1  A    between atoms: C_2  and  C_25
REMARK    2  A    between atoms: N_3  and  C_4
REMARK    3  A    between atoms: C_4  and  C_5
REMARK    4  A    between atoms: C_8  and  C_9
REMARK    5  A    between atoms: C_9  and  N_10
REMARK    6  A    between atoms: C_11  and  C_13
REMARK                            x       y       z     vdW  Elec       q    Type
REMARK                         _______ _______ _______ _____ _____    ______ ____
ROOT
ATOM      1  C   UNL     1      51.444   3.022  17.774  0.00  0.00    +0.000 A 
ATOM      2  C   UNL     1      50.738   1.989  17.142  0.00  0.00    +0.000 A 
ATOM      3  C   UNL     1      49.365   2.111  16.890  0.00  0.00    +0.000 A 
ATOM      4  C   UNL     1      48.675   3.277  17.249  0.00  0.00    +0.000 A 
ATOM      5  C   UNL     1      49.382   4.302  17.891  0.00  0.00    +0.000 A 
ATOM      6  C   UNL     1      50.752   4.182  18.140  0.00  0.00    +0.000 A 
ENDROOT
BRANCH   1   7
ATOM      7  C   UNL     1      52.912   2.881  18.071  0.00  0.00    +0.000 C 
BRANCH   7  10
ATOM      8  O   UNL     1      54.711   1.245  16.725  0.00  0.00    +0.000 OA
ATOM      9  C   UNL     1      54.191   0.823  17.755  0.00  0.00    +0.000 C 
ATOM     10  N   UNL     1      53.283   1.552  18.491  0.00  0.00    +0.000 N 
ATOM     11  H   UNL     1      52.888   1.134  19.327  0.00  0.00    +0.000 HD
BRANCH   9  12
ATOM     12  C   UNL     1      54.531  -0.539  18.273  0.00  0.00    +0.000 A 
ATOM     13  C   UNL     1      54.897  -1.516  17.371  0.00  0.00    +0.000 A 
ATOM     14  C   UNL     1      55.198  -2.738  17.917  0.00  0.00    +0.000 A 
ATOM     15  N   UNL     1      55.144  -2.988  19.240  0.00  0.00    +0.000 NA
ATOM     16  C   UNL     1      54.773  -1.963  20.021  0.00  0.00    +0.000 A 
ATOM     17  N   UNL     1      54.459  -0.725  19.612  0.00  0.00    +0.000 NA
ENDBRANCH   9  12
ENDBRANCH   7  10
ENDBRANCH   1   7
BRANCH   4  18
ATOM     18  C   UNL     1      47.195   3.430  16.982  0.00  0.00    +0.000 C 
BRANCH  18  19
ATOM     19  N   UNL     1      46.940   4.432  15.980  0.00  0.00    +0.000 N 
ATOM     20  C   UNL     1      47.035   4.150  14.639  0.00  0.00    +0.000 C 
ATOM     21  O   UNL     1      47.296   3.024  14.225  0.00  0.00    +0.000 OA
ATOM     22  H   UNL     1      46.995   5.398  16.282  0.00  0.00    +0.000 HD
BRANCH  20  23
ATOM     23  C   UNL     1      46.732   5.257  13.722  0.00  0.00    +0.000 A 
ATOM     24  C   UNL     1      47.675   6.249  13.492  0.00  0.00    +0.000 A 
ATOM     25  S   UNL     1      47.173   7.421  12.358  0.00  0.00    +0.000 S 
ATOM     26  C   UNL     1      45.654   6.673  12.175  0.00  0.00    +0.000 A 
ATOM     27  N   UNL     1      44.708   7.198  11.350  0.00  0.00    +0.000 NA
ATOM     28  C   UNL     1      43.595   6.546  11.334  0.00  0.00    +0.000 A 
ATOM     29  N   UNL     1      43.339   5.414  12.066  0.00  0.00    +0.000 N 
ATOM     30  C   UNL     1      44.274   4.833  12.885  0.00  0.00    +0.000 A 
ATOM     31  O   UNL     1      44.032   3.791  13.488  0.00  0.00    +0.000 OA
ATOM     32  C   UNL     1      45.541   5.536  12.954  0.00  0.00    +0.000 A 
ATOM     33  H   UNL     1      42.448   4.945  12.000  0.00  0.00    +0.000 HD
ENDBRANCH  20  23
ENDBRANCH  18  19
ENDBRANCH   4  18
TORSDOF 6
ENDMDL
MODEL 5
REMARK VINA RESULT:    -6.998      3.412      4.730
REMARK INTER + INTRA:         -10.456
REMARK INTER:                  -9.324
REMARK INTRA:                  -1.132
REMARK UNBOUND:                -1.004
REMARK  Name = 
REMARK  6 active torsions:
REMARK  status: ('A' for Active; 'I' for Inactive)
REMARK    1  A    between atoms: C_2  and  C_25
REMARK    2  A    between atoms: N_3  and  C_4
REMARK    3  A    between atoms: C_4  and  C_5
REMARK    4  A    between atoms: C_8  and  C_9
REMARK    5  A    between atoms: C_9  and  N_10
REMARK    6  A    between atoms: C_11  and  C_13
REMARK                            x       y       z     vdW  Elec       q    Type
REMARK                         _______ _______ _______ _____ _____    ______ ____
ROOT
ATOM      1  C   UNL     1      45.542   5.245  11.776  0.00  0.00    +0.000 A 
ATOM      2  C   UNL     1      46.178   6.477  11.569  0.00  0.00    +0.000 A 
ATOM      3  C   UNL     1      47.094   6.976  12.505  0.00  0.00    +0.000 A 
ATOM      4  C   UNL     1      47.406   6.243  13.658  0.00  0.00    +0.000 A 
ATOM      5  C   UNL     1      46.760   5.017  13.867  0.00  0.00    +0.000 A 
ATOM      6  C   UNL     1      45.848   4.518  12.933  0.00  0.00    +0.000 A 
ENDROOT
BRANCH   1   7
ATOM      7  C   UNL     1      44.537   4.722  10.787  0.00  0.00    +0.000 C 
BRANCH   7  10
ATOM      8  O   UNL     1      45.875   5.132   8.386  0.00  0.00    +0.000 OA
ATOM      9  C   UNL     1      45.713   3.979   8.777  0.00  0.00    +0.000 C 
ATOM     10  N   UNL     1      45.058   3.670   9.949  0.00  0.00    +0.000 N 
ATOM     11  H   UNL     1      44.955   2.693  10.205  0.00  0.00    +0.000 HD
BRANCH   9  12
ATOM     12  C   UNL     1      46.237   2.827   7.980  0.00  0.00    +0.000 A 
ATOM     13  C   UNL     1      46.838   3.083   6.765  0.00  0.00    +0.000 A 
ATOM     14  C   UNL     1      47.298   1.981   6.091  0.00  0.00    +0.000 A 
ATOM     15  N   UNL     1      47.176   0.724   6.564  0.00  0.00    +0.000 NA
ATOM     16  C   UNL     1      46.572   0.595   7.754  0.00  0.00    +0.000 A 
ATOM     17  N   UNL     1      46.086   1.590   8.510  0.00  0.00    +0.000 NA
ENDBRANCH   9  12
ENDBRANCH   7  10
ENDBRANCH   1   7
BRANCH   4  18
ATOM     18  C   UNL     1      48.394   6.760  14.678  0.00  0.00    +0.000 C 
BRANCH  18  19
ATOM     19  N   UNL     1      49.655   7.096  14.069  0.00  0.00    +0.000 N 
ATOM     20  C   UNL     1      50.133   8.383  14.064  0.00  0.00    +0.000 C 
ATOM     21  O   UNL     1      49.536   9.304  14.616  0.00  0.00    +0.000 OA
ATOM     22  H   UNL     1      50.019   6.436  13.391  0.00  0.00    +0.000 HD
BRANCH  20  23
ATOM     23  C   UNL     1      51.440   8.586  13.425  0.00  0.00    +0.000 A 
ATOM     24  C   UNL     1      52.481   9.164  14.139  0.00  0.00    +0.000 A 
ATOM     25  S   UNL     1      53.939   9.270  13.258  0.00  0.00    +0.000 S 
ATOM     26  C   UNL     1      53.215   8.595  11.872  0.00  0.00    +0.000 A 
ATOM     27  N   UNL     1      53.921   8.429  10.721  0.00  0.00    +0.000 NA
ATOM     28  C   UNL     1      53.237   7.938   9.743  0.00  0.00    +0.000 A 
ATOM     29  N   UNL     1      51.910   7.593   9.810  0.00  0.00    +0.000 N 
ATOM     30  C   UNL     1      51.169   7.713  10.959  0.00  0.00    +0.000 A 
ATOM     31  O   UNL     1      49.998   7.348  11.000  0.00  0.00    +0.000 OA
ATOM     32  C   UNL     1      51.886   8.278  12.087  0.00  0.00    +0.000 A 
ATOM     33  H   UNL     1      51.436   7.203   9.009  0.00  0.00    +0.000 HD
ENDBRANCH  20  23
ENDBRANCH  18  19
ENDBRANCH   4  18
TORSDOF 6
ENDMDL
MODEL 6
REMARK VINA RESULT:    -6.892      5.001      9.670
REMARK INTER + INTRA:         -10.314
REMARK INTER:                  -9.231
REMARK INTRA:                  -1.083
REMARK UNBOUND:                -1.004
REMARK  Name = 
REMARK  6 active torsions:
REMARK  status: ('A' for Active; 'I' for Inactive)
REMARK    1  A    between atoms: C_2  and  C_25
REMARK    2  A    between atoms: N_3  and  C_4
REMARK    3  A    between atoms: C_4  and  C_5
REMARK    4  A    between atoms: C_8  and  C_9
REMARK    5  A    between atoms: C_9  and  N_10
REMARK    6  A    between atoms: C_11  and  C_13
REMARK                            x       y       z     vdW  Elec       q    Type
REMARK                         _______ _______ _______ _____ _____    ______ ____
ROOT
ATOM      1  C   UNL     1      51.557   2.966  17.683  0.00  0.00    +0.000 A 
ATOM      2  C   UNL     1      50.739   1.963  17.144  0.00  0.00    +0.000 A 
ATOM      3  C   UNL     1      49.370   2.187  16.945  0.00  0.00    +0.000 A 
ATOM      4  C   UNL     1      48.796   3.425  17.263  0.00  0.00    +0.000 A 
ATOM      5  C   UNL     1      49.615   4.421  17.812  0.00  0.00    +0.000 A 
ATOM      6  C   UNL     1      50.981   4.200  18.009  0.00  0.00    +0.000 A 
ENDROOT
BRANCH   1   7
ATOM      7  C   UNL     1      53.021   2.718  17.924  0.00  0.00    +0.000 C 
BRANCH   7  10
ATOM      8  O   UNL     1      54.487   1.270  19.789  0.00  0.00    +0.000 OA
ATOM      9  C   UNL     1      54.121   0.703  18.762  0.00  0.00    +0.000 C 
ATOM     10  N   UNL     1      53.396   1.334  17.775  0.00  0.00    +0.000 N 
ATOM     11  H   UNL     1      53.135   0.803  16.950  0.00  0.00    +0.000 HD
BRANCH   9  12
ATOM     12  C   UNL     1      54.450  -0.738  18.533  0.00  0.00    +0.000 A 
ATOM     13  C   UNL     1      54.855  -1.130  17.274  0.00  0.00    +0.000 A 
ATOM     14  C   UNL     1      55.144  -2.464  17.137  0.00  0.00    +0.000 A 
ATOM     15  N   UNL     1      55.042  -3.348  18.149  0.00  0.00    +0.000 NA
ATOM     16  C   UNL     1      54.636  -2.854  19.327  0.00  0.00    +0.000 A 
ATOM     17  N   UNL     1      54.329  -1.575  19.590  0.00  0.00    +0.000 NA
ENDBRANCH   9  12
ENDBRANCH   7  10
ENDBRANCH   1   7
BRANCH   4  18
ATOM     18  C   UNL     1      47.323   3.689  17.051  0.00  0.00    +0.000 C 
BRANCH  18  19
ATOM     19  N   UNL     1      47.104   4.659  16.011  0.00  0.00    +0.000 N 
ATOM     20  C   UNL     1      47.111   4.306  14.683  0.00  0.00    +0.000 C 
ATOM     21  O   UNL     1      47.258   3.143  14.317  0.00  0.00    +0.000 OA
ATOM     22  H   UNL     1      47.254   5.630  16.259  0.00  0.00    +0.000 HD
BRANCH  20  23
ATOM     23  C   UNL     1      46.857   5.389  13.724  0.00  0.00    +0.000 A 
ATOM     24  C   UNL     1      45.740   5.342  12.901  0.00  0.00    +0.000 A 
ATOM     25  S   UNL     1      45.575   6.708  11.892  0.00  0.00    +0.000 S 
ATOM     26  C   UNL     1      47.020   7.388  12.483  0.00  0.00    +0.000 A 
ATOM     27  N   UNL     1      47.486   8.573  12.004  0.00  0.00    +0.000 NA
ATOM     28  C   UNL     1      48.608   8.951  12.518  0.00  0.00    +0.000 A 
ATOM     29  N   UNL     1      49.308   8.254  13.471  0.00  0.00    +0.000 N 
ATOM     30  C   UNL     1      48.860   7.072  14.004  0.00  0.00    +0.000 A 
ATOM     31  O   UNL     1      49.484   6.498  14.891  0.00  0.00    +0.000 OA
ATOM     32  C   UNL     1      47.609   6.591  13.448  0.00  0.00    +0.000 A 
ATOM     33  H   UNL     1      50.176   8.611  13.839  0.00  0.00    +0.000 HD
ENDBRANCH  20  23
ENDBRANCH  18  19
ENDBRANCH   4  18
TORSDOF 6
ENDMDL
MODEL 7
REMARK VINA RESULT:    -6.876      3.296      8.684
REMARK INTER + INTRA:         -10.292
REMARK INTER:                  -9.446
REMARK INTRA:                  -0.846
REMARK UNBOUND:                -1.004
REMARK  Name = 
REMARK  6 active torsions:
REMARK  status: ('A' for Active; 'I' for Inactive)
REMARK    1  A    between atoms: C_2  and  C_25
REMARK    2  A    between atoms: N_3  and  C_4
REMARK    3  A    between atoms: C_4  and  C_5
REMARK    4  A    between atoms: C_8  and  C_9
REMARK    5  A    between atoms: C_9  and  N_10
REMARK    6  A    between atoms: C_11  and  C_13
REMARK                            x       y       z     vdW  Elec       q    Type
REMARK                         _______ _______ _______ _____ _____    ______ ____
ROOT
ATOM      1  C   UNL     1      50.550   7.462  15.145  0.00  0.00    +0.000 A 
ATOM      2  C   UNL     1      50.920   8.151  13.981  0.00  0.00    +0.000 A 
ATOM      3  C   UNL     1      50.040   8.245  12.895  0.00  0.00    +0.000 A 
ATOM      4  C   UNL     1      48.764   7.668  12.958  0.00  0.00    +0.000 A 
ATOM      5  C   UNL     1      48.402   6.970  14.118  0.00  0.00    +0.000 A 
ATOM      6  C   UNL     1      49.278   6.878  15.203  0.00  0.00    +0.000 A 
ENDROOT
BRANCH   1   7
ATOM      7  C   UNL     1      51.503   7.335  16.300  0.00  0.00    +0.000 C 
BRANCH   7  10
ATOM      8  O   UNL     1      50.302   5.676  18.178  0.00  0.00    +0.000 OA
ATOM      9  C   UNL     1      51.235   5.231  17.513  0.00  0.00    +0.000 C 
ATOM     10  N   UNL     1      51.901   5.974  16.563  0.00  0.00    +0.000 N 
ATOM     11  H   UNL     1      52.668   5.542  16.059  0.00  0.00    +0.000 HD
BRANCH   9  12
ATOM     12  C   UNL     1      51.701   3.823  17.708  0.00  0.00    +0.000 A 
ATOM     13  C   UNL     1      52.887   3.607  18.380  0.00  0.00    +0.000 A 
ATOM     14  C   UNL     1      53.251   2.292  18.524  0.00  0.00    +0.000 A 
ATOM     15  N   UNL     1      52.516   1.267  18.047  0.00  0.00    +0.000 NA
ATOM     16  C   UNL     1      51.384   1.597  17.408  0.00  0.00    +0.000 A 
ATOM     17  N   UNL     1      50.918   2.838  17.207  0.00  0.00    +0.000 NA
ENDBRANCH   9  12
ENDBRANCH   7  10
ENDBRANCH   1   7
BRANCH   4  18
ATOM     18  C   UNL     1      47.797   7.762  11.799  0.00  0.00    +0.000 C 
BRANCH  18  19
ATOM     19  N   UNL     1      47.034   6.551  11.648  0.00  0.00    +0.000 N 
ATOM     20  C   UNL     1      45.663   6.549  11.725  0.00  0.00    +0.000 C 
ATOM     21  O   UNL     1      45.016   7.581  11.880  0.00  0.00    +0.000 OA
ATOM     22  H   UNL     1      47.533   5.681  11.794  0.00  0.00    +0.000 HD
BRANCH  20  23
ATOM     23  C   UNL     1      45.006   5.250  11.535  0.00  0.00    +0.000 A 
ATOM     24  C   UNL     1      44.289   4.673  12.575  0.00  0.00    +0.000 A 
ATOM     25  S   UNL     1      43.548   3.194  12.158  0.00  0.00    +0.000 S 
ATOM     26  C   UNL     1      44.204   3.244  10.588  0.00  0.00    +0.000 A 
ATOM     27  N   UNL     1      43.977   2.239   9.699  0.00  0.00    +0.000 NA
ATOM     28  C   UNL     1      44.562   2.393   8.560  0.00  0.00    +0.000 A 
ATOM     29  N   UNL     1      45.354   3.463   8.224  0.00  0.00    +0.000 N 
ATOM     30  C   UNL     1      45.583   4.514   9.077  0.00  0.00    +0.000 A 
ATOM     31  O   UNL     1      46.255   5.480   8.729  0.00  0.00    +0.000 OA
ATOM     32  C   UNL     1      44.961   4.382  10.381  0.00  0.00    +0.000 A 
ATOM     33  H   UNL     1      45.775   3.528   7.309  0.00  0.00    +0.000 HD
ENDBRANCH  20  23
ENDBRANCH  18  19
ENDBRANCH   4  18
TORSDOF 6
ENDMDL
MODEL 8
REMARK VINA RESULT:    -6.828      1.525      2.036
REMARK INTER + INTRA:         -10.228
REMARK INTER:                  -9.111
REMARK INTRA:                  -1.117
REMARK UNBOUND:                -1.004
REMARK  Name = 
REMARK  6 active torsions:
REMARK  status: ('A' for Active; 'I' for Inactive)
REMARK    1  A    between atoms: C_2  and  C_25
REMARK    2  A    between atoms: N_3  and  C_4
REMARK    3  A    between atoms: C_4  and  C_5
REMARK    4  A    between atoms: C_8  and  C_9
REMARK    5  A    between atoms: C_9  and  N_10
REMARK    6  A    between atoms: C_11  and  C_13
REMARK                            x       y       z     vdW  Elec       q    Type
REMARK                         _______ _______ _______ _____ _____    ______ ____
ROOT
ATOM      1  C   UNL     1      46.057   7.398  11.905  0.00  0.00    +0.000 A 
ATOM      2  C   UNL     1      45.802   8.413  12.837  0.00  0.00    +0.000 A 
ATOM      3  C   UNL     1      46.806   8.854  13.709  0.00  0.00    +0.000 A 
ATOM      4  C   UNL     1      48.093   8.300  13.652  0.00  0.00    +0.000 A 
ATOM      5  C   UNL     1      48.342   7.278  12.727  0.00  0.00    +0.000 A 
ATOM      6  C   UNL     1      47.341   6.839  11.856  0.00  0.00    +0.000 A 
ENDROOT
BRANCH   1   7
ATOM      7  C   UNL     1      44.972   6.903  10.988  0.00  0.00    +0.000 C 
BRANCH   7  10
ATOM      8  O   UNL     1      44.061   4.282  10.829  0.00  0.00    +0.000 OA
ATOM      9  C   UNL     1      44.916   4.656  10.029  0.00  0.00    +0.000 C 
ATOM     10  N   UNL     1      45.437   5.931  10.029  0.00  0.00    +0.000 N 
ATOM     11  H   UNL     1      46.147   6.166   9.343  0.00  0.00    +0.000 HD
BRANCH   9  12
ATOM     12  C   UNL     1      45.442   3.719   8.988  0.00  0.00    +0.000 A 
ATOM     13  C   UNL     1      45.397   2.363   9.238  0.00  0.00    +0.000 A 
ATOM     14  C   UNL     1      45.893   1.563   8.239  0.00  0.00    +0.000 A 
ATOM     15  N   UNL     1      46.397   2.050   7.088  0.00  0.00    +0.000 NA
ATOM     16  C   UNL     1      46.391   3.385   6.956  0.00  0.00    +0.000 A 
ATOM     17  N   UNL     1      45.933   4.269   7.853  0.00  0.00    +0.000 NA
ENDBRANCH   9  12
ENDBRANCH   7  10
ENDBRANCH   1   7
BRANCH   4  18
ATOM     18  C   UNL     1      49.193   8.765  14.580  0.00  0.00    +0.000 C 
BRANCH  18  19
ATOM     19  N   UNL     1      49.297   7.920  15.740  0.00  0.00    +0.000 N 
ATOM     20  C   UNL     1      48.639   8.217  16.909  0.00  0.00    +0.000 C 
ATOM     21  O   UNL     1      47.894   9.187  17.011  0.00  0.00    +0.000 OA
ATOM     22  H   UNL     1      50.092   7.292  15.773  0.00  0.00    +0.000 HD
BRANCH  20  23
ATOM     23  C   UNL     1      48.816   7.262  18.011  0.00  0.00    +0.000 A 
ATOM     24  C   UNL     1      49.168   7.716  19.275  0.00  0.00    +0.000 A 
ATOM     25  S   UNL     1      49.274   6.476  20.443  0.00  0.00    +0.000 S 
ATOM     26  C   UNL     1      48.905   5.281  19.287  0.00  0.00    +0.000 A 
ATOM     27  N   UNL     1      48.861   3.964  19.628  0.00  0.00    +0.000 NA
ATOM     28  C   UNL     1      48.602   3.168  18.646  0.00  0.00    +0.000 A 
ATOM     29  N   UNL     1      48.380   3.567  17.351  0.00  0.00    +0.000 N 
ATOM     30  C   UNL     1      48.383   4.885  16.970  0.00  0.00    +0.000 A 
ATOM     31  O   UNL     1      48.130   5.214  15.815  0.00  0.00    +0.000 OA
ATOM     32  C   UNL     1      48.686   5.824  18.034  0.00  0.00    +0.000 A 
ATOM     33  H   UNL     1      48.172   2.893  16.630  0.00  0.00    +0.000 HD
ENDBRANCH  20  23
ENDBRANCH  18  19
ENDBRANCH   4  18
TORSDOF 6
ENDMDL
MODEL 9
REMARK VINA RESULT:    -6.748      3.167      4.103
REMARK INTER + INTRA:         -10.119
REMARK INTER:                  -9.302
REMARK INTRA:                  -0.818
REMARK UNBOUND:                -1.004
REMARK  Name = 
REMARK  6 active torsions:
REMARK  status: ('A' for Active; 'I' for Inactive)
REMARK    1  A    between atoms: C_2  and  C_25
REMARK    2  A    between atoms: N_3  and  C_4
REMARK    3  A    between atoms: C_4  and  C_5
REMARK    4  A    between atoms: C_8  and  C_9
REMARK    5  A    between atoms: C_9  and  N_10
REMARK    6  A    between atoms: C_11  and  C_13
REMARK                            x       y       z     vdW  Elec       q    Type
REMARK                         _______ _______ _______ _____ _____    ______ ____
ROOT
ATOM      1  C   UNL     1      45.430   4.618  12.050  0.00  0.00    +0.000 A 
ATOM      2  C   UNL     1      45.776   5.964  12.233  0.00  0.00    +0.000 A 
ATOM      3  C   UNL     1      46.641   6.347  13.267  0.00  0.00    +0.000 A 
ATOM      4  C   UNL     1      47.192   5.387  14.128  0.00  0.00    +0.000 A 
ATOM      5  C   UNL     1      46.834   4.044  13.949  0.00  0.00    +0.000 A 
ATOM      6  C   UNL     1      45.974   3.661  12.916  0.00  0.00    +0.000 A 
ENDROOT
BRANCH   1   7
ATOM      7  C   UNL     1      44.480   4.209  10.959  0.00  0.00    +0.000 C 
BRANCH   7  10
ATOM      8  O   UNL     1      45.589   5.066   8.559  0.00  0.00    +0.000 OA
ATOM      9  C   UNL     1      45.609   3.865   8.819  0.00  0.00    +0.000 C 
ATOM     10  N   UNL     1      45.080   3.339   9.977  0.00  0.00    +0.000 N 
ATOM     11  H   UNL     1      45.125   2.335  10.120  0.00  0.00    +0.000 HD
BRANCH   9  12
ATOM     12  C   UNL     1      46.229   2.893   7.866  0.00  0.00    +0.000 A 
ATOM     13  C   UNL     1      46.670   3.357   6.643  0.00  0.00    +0.000 A 
ATOM     14  C   UNL     1      47.230   2.412   5.822  0.00  0.00    +0.000 A 
ATOM     15  N   UNL     1      47.347   1.114   6.165  0.00  0.00    +0.000 NA
ATOM     16  C   UNL     1      46.881   0.777   7.377  0.00  0.00    +0.000 A 
ATOM     17  N   UNL     1      46.320   1.604   8.270  0.00  0.00    +0.000 NA
ENDBRANCH   9  12
ENDBRANCH   7  10
ENDBRANCH   1   7
BRANCH   4  18
ATOM     18  C   UNL     1      48.130   5.778  15.246  0.00  0.00    +0.000 C 
BRANCH  18  19
ATOM     19  N   UNL     1      48.160   7.204  15.437  0.00  0.00    +0.000 N 
ATOM     20  C   UNL     1      48.845   7.778  16.480  0.00  0.00    +0.000 C 
ATOM     21  O   UNL     1      49.504   7.112  17.275  0.00  0.00    +0.000 OA
ATOM     22  H   UNL     1      47.428   7.737  14.982  0.00  0.00    +0.000 HD
BRANCH  20  23
ATOM     23  C   UNL     1      48.810   9.245  16.549  0.00  0.00    +0.000 A 
ATOM     24  C   UNL     1      49.464  10.002  15.588  0.00  0.00    +0.000 A 
ATOM     25  S   UNL     1      49.270  11.685  15.794  0.00  0.00    +0.000 S 
ATOM     26  C   UNL     1      48.348  11.462  17.208  0.00  0.00    +0.000 A 
ATOM     27  N   UNL     1      47.878  12.524  17.915  0.00  0.00    +0.000 NA
ATOM     28  C   UNL     1      47.224  12.207  18.982  0.00  0.00    +0.000 A 
ATOM     29  N   UNL     1      46.993  10.922  19.406  0.00  0.00    +0.000 N 
ATOM     30  C   UNL     1      47.419   9.822  18.706  0.00  0.00    +0.000 A 
ATOM     31  O   UNL     1      47.152   8.685  19.085  0.00  0.00    +0.000 OA
ATOM     32  C   UNL     1      48.177  10.122  17.506  0.00  0.00    +0.000 A 
ATOM     33  H   UNL     1      46.463  10.742  20.246  0.00  0.00    +0.000 HD
ENDBRANCH  20  23
ENDBRANCH  18  19
ENDBRANCH   4  18
TORSDOF 6
ENDMDL
