MODEL 1
REMARK VINA RESULT:    -8.149      0.000      0.000
REMARK INTER + INTRA:         -10.098
REMARK INTER:                  -9.578
REMARK INTRA:                  -0.520
REMARK UNBOUND:                -0.520
REMARK  Name = 
REMARK  3 active torsions:
REMARK  status: ('A' for Active; 'I' for Inactive)
REMARK    1  A    between atoms: N_6  and  C_7
REMARK    2  A    between atoms: C_7  and  C_8
REMARK    3  A    between atoms: C_13  and  C_14
REMARK                            x       y       z     vdW  Elec       q    Type
REMARK                         _______ _______ _______ _____ _____    ______ ____
ROOT
ATOM      1  C   UNL     1      44.763   4.032  11.331  0.00  0.00    +0.000 A 
ATOM      2  C   UNL     1      45.475   3.446  12.378  0.00  0.00    +0.000 A 
ATOM      3  C   UNL     1      46.208   4.245  13.246  0.00  0.00    +0.000 A 
ATOM      4  F   UNL     1      46.911   3.671  14.233  0.00  0.00    +0.000 F 
ATOM      5  C   UNL     1      46.236   5.627  13.107  0.00  0.00    +0.000 A 
ATOM      6  C   UNL     1      45.519   6.265  12.078  0.00  0.00    +0.000 A 
ATOM      7  C   UNL     1      44.788   5.436  11.195  0.00  0.00    +0.000 A 
ENDROOT
BRANCH   6   8
ATOM      8  C   UNL     1      45.528   7.739  11.930  0.00  0.00    +0.000 A 
ATOM      9  C   UNL     1      46.622   8.531  12.310  0.00  0.00    +0.000 A 
ATOM     10  C   UNL     1      46.588   9.919  12.160  0.00  0.00    +0.000 A 
ATOM     11  C   UNL     1      45.452  10.494  11.621  0.00  0.00    +0.000 A 
ATOM     12  N   UNL     1      44.373   9.786  11.240  0.00  0.00    +0.000 NA
ATOM     13  C   UNL     1      44.436   8.440  11.410  0.00  0.00    +0.000 A 
ENDBRANCH   6   8
BRANCH   1  14
ATOM     14  C   UNL     1      43.977   3.173  10.361  0.00  0.00    +0.000 C 
BRANCH  14  20
ATOM     15  F   UNL     1      47.933   2.393   5.513  0.00  0.00    +0.000 F 
ATOM     16  C   UNL     1      47.136   2.319   6.584  0.00  0.00    +0.000 A 
ATOM     17  C   UNL     1      46.426   3.398   7.041  0.00  0.00    +0.000 A 
ATOM     18  N   UNL     1      45.623   3.352   8.129  0.00  0.00    +0.000 NA
ATOM     19  C   UNL     1      45.531   2.175   8.772  0.00  0.00    +0.000 A 
ATOM     20  N   UNL     1      44.775   2.068   9.909  0.00  0.00    +0.000 N 
ATOM     21  N   UNL     1      46.173   1.062   8.382  0.00  0.00    +0.000 NA
ATOM     22  C   UNL     1      46.973   1.161   7.295  0.00  0.00    +0.000 A 
ATOM     23  H   UNL     1      44.615   1.125  10.228  0.00  0.00    +0.000 HD
ENDBRANCH  14  20
ENDBRANCH   1  14
TORSDOF 3
ENDMDL
MODEL 2
REMARK VINA RESULT:    -7.766      1.480      1.963
REMARK INTER + INTRA:          -9.648
REMARK INTER:                  -9.099
REMARK INTRA:                  -0.549
REMARK UNBOUND:                -0.520
REMARK  Name = 
REMARK  3 active torsions:
REMARK  status: ('A' for Active; 'I' for Inactive)
REMARK    1  A    between atoms: N_6  and  C_7
REMARK    2  A    between atoms: C_7  and  C_8
REMARK    3  A    between atoms: C_13  and  C_14
REMARK                            x       y       z     vdW  Elec       q    Type
REMARK                         _______ _______ _______ _____ _____    ______ ____
ROOT
ATOM      1  C   UNL     1      45.092   4.929  11.411  0.00  0.00    +0.000 A 
ATOM      2  C   UNL     1      45.414   4.111  12.495  0.00  0.00    +0.000 A 
ATOM      3  C   UNL     1      46.375   4.525  13.408  0.00  0.00    +0.000 A 
ATOM      4  F   UNL     1      46.698   3.720  14.431  0.00  0.00    +0.000 F 
ATOM      5  C   UNL     1      47.018   5.750  13.278  0.00  0.00    +0.000 A 
ATOM      6  C   UNL     1      46.714   6.616  12.213  0.00  0.00    +0.000 A 
ATOM      7  C   UNL     1      45.740   6.175  11.284  0.00  0.00    +0.000 A 
ENDROOT
BRANCH   6   8
ATOM      8  C   UNL     1      47.379   7.931  12.073  0.00  0.00    +0.000 A 
ATOM      9  C   UNL     1      48.729   8.062  11.711  0.00  0.00    +0.000 A 
ATOM     10  C   UNL     1      49.322   9.321  11.596  0.00  0.00    +0.000 A 
ATOM     11  C   UNL     1      48.544  10.438  11.840  0.00  0.00    +0.000 A 
ATOM     12  N   UNL     1      47.246  10.375  12.190  0.00  0.00    +0.000 NA
ATOM     13  C   UNL     1      46.705   9.134  12.303  0.00  0.00    +0.000 A 
ENDBRANCH   6   8
BRANCH   1  14
ATOM     14  C   UNL     1      44.062   4.483  10.392  0.00  0.00    +0.000 C 
BRANCH  14  20
ATOM     15  F   UNL     1      47.319   0.838   6.411  0.00  0.00    +0.000 F 
ATOM     16  C   UNL     1      46.654   1.784   7.081  0.00  0.00    +0.000 A 
ATOM     17  C   UNL     1      46.132   1.564   8.329  0.00  0.00    +0.000 A 
ATOM     18  N   UNL     1      45.444   2.500   9.022  0.00  0.00    +0.000 NA
ATOM     19  C   UNL     1      45.285   3.701   8.437  0.00  0.00    +0.000 A 
ATOM     20  N   UNL     1      44.558   4.680   9.059  0.00  0.00    +0.000 N 
ATOM     21  N   UNL     1      45.781   4.010   7.228  0.00  0.00    +0.000 NA
ATOM     22  C   UNL     1      46.451   3.037   6.569  0.00  0.00    +0.000 A 
ATOM     23  H   UNL     1      44.633   5.595   8.645  0.00  0.00    +0.000 HD
ENDBRANCH  14  20
ENDBRANCH   1  14
TORSDOF 3
ENDMDL
MODEL 3
REMARK VINA RESULT:    -7.736      2.922      6.831
REMARK INTER + INTRA:          -9.613
REMARK INTER:                  -9.008
REMARK INTRA:                  -0.605
REMARK UNBOUND:                -0.520
REMARK  Name = 
REMARK  3 active torsions:
REMARK  status: ('A' for Active; 'I' for Inactive)
REMARK    1  A    between atoms: N_6  and  C_7
REMARK    2  A    between atoms: C_7  and  C_8
REMARK    3  A    between atoms: C_13  and  C_14
REMARK                            x       y       z     vdW  Elec       q    Type
REMARK                         _______ _______ _______ _____ _____    ______ ____
ROOT
ATOM      1  C   UNL     1      44.758   5.064  10.832  0.00  0.00    +0.000 A 
ATOM      2  C   UNL     1      43.890   4.198  11.500  0.00  0.00    +0.000 A 
ATOM      3  C   UNL     1      43.708   2.906  11.026  0.00  0.00    +0.000 A 
ATOM      4  F   UNL     1      42.851   2.090  11.657  0.00  0.00    +0.000 F 
ATOM      5  C   UNL     1      44.386   2.443   9.905  0.00  0.00    +0.000 A 
ATOM      6  C   UNL     1      45.285   3.272   9.211  0.00  0.00    +0.000 A 
ATOM      7  C   UNL     1      45.451   4.591   9.699  0.00  0.00    +0.000 A 
ENDROOT
BRANCH   6   8
ATOM      8  C   UNL     1      46.027   2.785   8.025  0.00  0.00    +0.000 A 
ATOM      9  C   UNL     1      46.253   3.584   6.893  0.00  0.00    +0.000 A 
ATOM     10  C   UNL     1      46.952   3.085   5.792  0.00  0.00    +0.000 A 
ATOM     11  C   UNL     1      47.423   1.786   5.847  0.00  0.00    +0.000 A 
ATOM     12  N   UNL     1      47.236   0.974   6.903  0.00  0.00    +0.000 NA
ATOM     13  C   UNL     1      46.543   1.488   7.952  0.00  0.00    +0.000 A 
ENDBRANCH   6   8
BRANCH   1  14
ATOM     14  C   UNL     1      44.952   6.486  11.322  0.00  0.00    +0.000 C 
BRANCH  14  20
ATOM     15  F   UNL     1      50.827   7.910  13.113  0.00  0.00    +0.000 F 
ATOM     16  C   UNL     1      49.550   7.544  12.969  0.00  0.00    +0.000 A 
ATOM     17  C   UNL     1      48.905   7.602  11.761  0.00  0.00    +0.000 A 
ATOM     18  N   UNL     1      47.610   7.250  11.593  0.00  0.00    +0.000 NA
ATOM     19  C   UNL     1      46.946   6.818  12.680  0.00  0.00    +0.000 A 
ATOM     20  N   UNL     1      45.620   6.491  12.593  0.00  0.00    +0.000 N 
ATOM     21  N   UNL     1      47.505   6.709  13.896  0.00  0.00    +0.000 NA
ATOM     22  C   UNL     1      48.798   7.085  14.017  0.00  0.00    +0.000 A 
ATOM     23  H   UNL     1      45.244   6.014  13.398  0.00  0.00    +0.000 HD
ENDBRANCH  14  20
ENDBRANCH   1  14
TORSDOF 3
ENDMDL
MODEL 4
REMARK VINA RESULT:    -7.657      2.343      3.957
REMARK INTER + INTRA:          -9.520
REMARK INTER:                  -8.987
REMARK INTRA:                  -0.534
REMARK UNBOUND:                -0.520
REMARK  Name = 
REMARK  3 active torsions:
REMARK  status: ('A' for Active; 'I' for Inactive)
REMARK    1  A    between atoms: N_6  and  C_7
REMARK    2  A    between atoms: C_7  and  C_8
REMARK    3  A    between atoms: C_13  and  C_14
REMARK                            x       y       z     vdW  Elec       q    Type
REMARK                         _______ _______ _______ _____ _____    ______ ____
ROOT
ATOM      1  C   UNL     1      44.742   4.453  11.173  0.00  0.00    +0.000 A 
ATOM      2  C   UNL     1      44.738   5.804  10.821  0.00  0.00    +0.000 A 
ATOM      3  C   UNL     1      45.421   6.723  11.607  0.00  0.00    +0.000 A 
ATOM      4  F   UNL     1      45.389   8.022  11.276  0.00  0.00    +0.000 F 
ATOM      5  C   UNL     1      46.130   6.326  12.734  0.00  0.00    +0.000 A 
ATOM      6  C   UNL     1      46.180   4.974  13.118  0.00  0.00    +0.000 A 
ATOM      7  C   UNL     1      45.468   4.051  12.314  0.00  0.00    +0.000 A 
ENDROOT
BRANCH   6   8
ATOM      8  C   UNL     1      46.945   4.537  14.307  0.00  0.00    +0.000 A 
ATOM      9  C   UNL     1      47.396   5.433  15.289  0.00  0.00    +0.000 A 
ATOM     10  C   UNL     1      48.121   4.981  16.393  0.00  0.00    +0.000 A 
ATOM     11  C   UNL     1      48.379   3.627  16.500  0.00  0.00    +0.000 A 
ATOM     12  N   UNL     1      47.975   2.721  15.591  0.00  0.00    +0.000 NA
ATOM     13  C   UNL     1      47.281   3.197  14.525  0.00  0.00    +0.000 A 
ENDBRANCH   6   8
BRANCH   1  14
ATOM     14  C   UNL     1      43.982   3.440  10.341  0.00  0.00    +0.000 C 
BRANCH  14  20
ATOM     15  F   UNL     1      47.693   2.385   5.354  0.00  0.00    +0.000 F 
ATOM     16  C   UNL     1      46.971   2.380   6.479  0.00  0.00    +0.000 A 
ATOM     17  C   UNL     1      46.201   3.449   6.856  0.00  0.00    +0.000 A 
ATOM     18  N   UNL     1      45.472   3.474   7.995  0.00  0.00    +0.000 NA
ATOM     19  C   UNL     1      45.517   2.379   8.775  0.00  0.00    +0.000 A 
ATOM     20  N   UNL     1      44.842   2.354   9.966  0.00  0.00    +0.000 N 
ATOM     21  N   UNL     1      46.226   1.280   8.472  0.00  0.00    +0.000 NA
ATOM     22  C   UNL     1      46.949   1.308   7.329  0.00  0.00    +0.000 A 
ATOM     23  H   UNL     1      44.781   1.447  10.402  0.00  0.00    +0.000 HD
ENDBRANCH  14  20
ENDBRANCH   1  14
TORSDOF 3
ENDMDL
MODEL 5
REMARK VINA RESULT:    -7.555      3.677      7.374
REMARK INTER + INTRA:          -9.400
REMARK INTER:                  -8.984
REMARK INTRA:                  -0.416
REMARK UNBOUND:                -0.520
REMARK  Name = 
REMARK  3 active torsions:
REMARK  status: ('A' for Active; 'I' for Inactive)
REMARK    1  A    between atoms: N_6  and  C_7
REMARK    2  A    between atoms: C_7  and  C_8
REMARK    3  A    between atoms: C_13  and  C_14
REMARK                            x       y       z     vdW  Elec       q    Type
REMARK                         _______ _______ _______ _____ _____    ______ ____
ROOT
ATOM      1  C   UNL     1      45.239   5.184  12.696  0.00  0.00    +0.000 A 
ATOM      2  C   UNL     1      43.888   5.531  12.751  0.00  0.00    +0.000 A 
ATOM      3  C   UNL     1      43.063   5.258  11.669  0.00  0.00    +0.000 A 
ATOM      4  F   UNL     1      41.772   5.619  11.720  0.00  0.00    +0.000 F 
ATOM      5  C   UNL     1      43.547   4.626  10.530  0.00  0.00    +0.000 A 
ATOM      6  C   UNL     1      44.896   4.241  10.435  0.00  0.00    +0.000 A 
ATOM      7  C   UNL     1      45.728   4.537  11.541  0.00  0.00    +0.000 A 
ENDROOT
BRANCH   6   8
ATOM      8  C   UNL     1      45.420   3.552   9.234  0.00  0.00    +0.000 A 
ATOM      9  C   UNL     1      45.872   4.246   8.100  0.00  0.00    +0.000 A 
ATOM     10  C   UNL     1      46.353   3.559   6.984  0.00  0.00    +0.000 A 
ATOM     11  C   UNL     1      46.380   2.178   7.024  0.00  0.00    +0.000 A 
ATOM     12  N   UNL     1      45.959   1.459   8.081  0.00  0.00    +0.000 NA
ATOM     13  C   UNL     1      45.488   2.159   9.145  0.00  0.00    +0.000 A 
ENDBRANCH   6   8
BRANCH   1  14
ATOM     14  C   UNL     1      46.161   5.496  13.859  0.00  0.00    +0.000 C 
BRANCH  14  20
ATOM     15  F   UNL     1      50.102   4.032  18.557  0.00  0.00    +0.000 F 
ATOM     16  C   UNL     1      49.179   4.115  17.595  0.00  0.00    +0.000 A 
ATOM     17  C   UNL     1      49.028   5.236  16.821  0.00  0.00    +0.000 A 
ATOM     18  N   UNL     1      48.093   5.349  15.851  0.00  0.00    +0.000 NA
ATOM     19  C   UNL     1      47.287   4.291  15.651  0.00  0.00    +0.000 A 
ATOM     20  N   UNL     1      46.286   4.353  14.718  0.00  0.00    +0.000 N 
ATOM     21  N   UNL     1      47.378   3.146  16.346  0.00  0.00    +0.000 NA
ATOM     22  C   UNL     1      48.321   3.085  17.315  0.00  0.00    +0.000 A 
ATOM     23  H   UNL     1      45.846   3.471  14.506  0.00  0.00    +0.000 HD
ENDBRANCH  14  20
ENDBRANCH   1  14
TORSDOF 3
ENDMDL
MODEL 6
REMARK VINA RESULT:    -7.327      1.741      2.101
REMARK INTER + INTRA:          -9.132
REMARK INTER:                  -8.556
REMARK INTRA:                  -0.576
REMARK UNBOUND:                -0.520
REMARK  Name = 
REMARK  3 active torsions:
REMARK  status: ('A' for Active; 'I' for Inactive)
REMARK    1  A    between atoms: N_6  and  C_7
REMARK    2  A    between atoms: C_7  and  C_8
REMARK    3  A    between atoms: C_13  and  C_14
REMARK                            x       y       z     vdW  Elec       q    Type
REMARK                         _______ _______ _______ _____ _____    ______ ____
ROOT
ATOM      1  C   UNL     1      45.350   4.997  11.686  0.00  0.00    +0.000 A 
ATOM      2  C   UNL     1      45.478   4.391  12.938  0.00  0.00    +0.000 A 
ATOM      3  C   UNL     1      46.377   4.905  13.863  0.00  0.00    +0.000 A 
ATOM      4  F   UNL     1      46.513   4.300  15.052  0.00  0.00    +0.000 F 
ATOM      5  C   UNL     1      47.146   6.027  13.579  0.00  0.00    +0.000 A 
ATOM      6  C   UNL     1      47.039   6.683  12.340  0.00  0.00    +0.000 A 
ATOM      7  C   UNL     1      46.127   6.140  11.403  0.00  0.00    +0.000 A 
ENDROOT
BRANCH   6   8
ATOM      8  C   UNL     1      47.840   7.889  12.033  0.00  0.00    +0.000 A 
ATOM      9  C   UNL     1      47.296   9.183  12.044  0.00  0.00    +0.000 A 
ATOM     10  C   UNL     1      48.084  10.294  11.742  0.00  0.00    +0.000 A 
ATOM     11  C   UNL     1      49.417  10.091  11.437  0.00  0.00    +0.000 A 
ATOM     12  N   UNL     1      49.994   8.876  11.409  0.00  0.00    +0.000 NA
ATOM     13  C   UNL     1      49.196   7.816  11.698  0.00  0.00    +0.000 A 
ENDBRANCH   6   8
BRANCH   1  14
ATOM     14  C   UNL     1      44.391   4.435  10.655  0.00  0.00    +0.000 C 
BRANCH  14  20
ATOM     15  F   UNL     1      47.614   1.995   5.817  0.00  0.00    +0.000 F 
ATOM     16  C   UNL     1      46.896   2.277   6.908  0.00  0.00    +0.000 A 
ATOM     17  C   UNL     1      46.596   3.564   7.272  0.00  0.00    +0.000 A 
ATOM     18  N   UNL     1      45.883   3.876   8.378  0.00  0.00    +0.000 NA
ATOM     19  C   UNL     1      45.453   2.853   9.138  0.00  0.00    +0.000 A 
ATOM     20  N   UNL     1      44.767   3.097  10.298  0.00  0.00    +0.000 N 
ATOM     21  N   UNL     1      45.682   1.563   8.846  0.00  0.00    +0.000 NA
ATOM     22  C   UNL     1      46.411   1.302   7.736  0.00  0.00    +0.000 A 
ATOM     23  H   UNL     1      44.331   2.288  10.713  0.00  0.00    +0.000 HD
ENDBRANCH  14  20
ENDBRANCH   1  14
TORSDOF 3
ENDMDL
MODEL 7
REMARK VINA RESULT:    -7.074      3.300      4.998
REMARK INTER + INTRA:          -8.834
REMARK INTER:                  -8.256
REMARK INTRA:                  -0.577
REMARK UNBOUND:                -0.520
REMARK  Name = 
REMARK  3 active torsions:
REMARK  status: ('A' for Active; 'I' for Inactive)
REMARK    1  A    between atoms: N_6  and  C_7
REMARK    2  A    between atoms: C_7  and  C_8
REMARK    3  A    between atoms: C_13  and  C_14
REMARK                            x       y       z     vdW  Elec       q    Type
REMARK                         _______ _______ _______ _____ _____    ______ ____
ROOT
ATOM      1  C   UNL     1      46.484   6.649  12.185  0.00  0.00    +0.000 A 
ATOM      2  C   UNL     1      47.629   7.297  11.717  0.00  0.00    +0.000 A 
ATOM      3  C   UNL     1      48.787   7.285  12.483  0.00  0.00    +0.000 A 
ATOM      4  F   UNL     1      49.874   7.933  12.039  0.00  0.00    +0.000 F 
ATOM      5  C   UNL     1      48.841   6.625  13.704  0.00  0.00    +0.000 A 
ATOM      6  C   UNL     1      47.720   5.943  14.208  0.00  0.00    +0.000 A 
ATOM      7  C   UNL     1      46.543   5.974  13.422  0.00  0.00    +0.000 A 
ENDROOT
BRANCH   6   8
ATOM      8  C   UNL     1      47.770   5.221  15.500  0.00  0.00    +0.000 A 
ATOM      9  C   UNL     1      48.634   5.593  16.541  0.00  0.00    +0.000 A 
ATOM     10  C   UNL     1      48.656   4.882  17.743  0.00  0.00    +0.000 A 
ATOM     11  C   UNL     1      47.800   3.806  17.885  0.00  0.00    +0.000 A 
ATOM     12  N   UNL     1      46.952   3.401  16.922  0.00  0.00    +0.000 NA
ATOM     13  C   UNL     1      46.964   4.109  15.763  0.00  0.00    +0.000 A 
ENDBRANCH   6   8
BRANCH   1  14
ATOM     14  C   UNL     1      45.203   6.672  11.373  0.00  0.00    +0.000 C 
BRANCH  14  20
ATOM     15  F   UNL     1      44.607   1.011   8.661  0.00  0.00    +0.000 F 
ATOM     16  C   UNL     1      44.828   2.280   9.019  0.00  0.00    +0.000 A 
ATOM     17  C   UNL     1      44.536   2.746  10.274  0.00  0.00    +0.000 A 
ATOM     18  N   UNL     1      44.738   4.028  10.656  0.00  0.00    +0.000 NA
ATOM     19  C   UNL     1      45.259   4.864   9.741  0.00  0.00    +0.000 A 
ATOM     20  N   UNL     1      45.445   6.187  10.044  0.00  0.00    +0.000 N 
ATOM     21  N   UNL     1      45.595   4.488   8.497  0.00  0.00    +0.000 NA
ATOM     22  C   UNL     1      45.362   3.200   8.158  0.00  0.00    +0.000 A 
ATOM     23  H   UNL     1      45.996   6.703   9.377  0.00  0.00    +0.000 HD
ENDBRANCH  14  20
ENDBRANCH   1  14
TORSDOF 3
ENDMDL
MODEL 8
REMARK VINA RESULT:    -6.964      3.737      7.273
REMARK INTER + INTRA:          -8.705
REMARK INTER:                  -8.262
REMARK INTRA:                  -0.443
REMARK UNBOUND:                -0.520
REMARK  Name = 
REMARK  3 active torsions:
REMARK  status: ('A' for Active; 'I' for Inactive)
REMARK    1  A    between atoms: N_6  and  C_7
REMARK    2  A    between atoms: C_7  and  C_8
REMARK    3  A    between atoms: C_13  and  C_14
REMARK                            x       y       z     vdW  Elec       q    Type
REMARK                         _______ _______ _______ _____ _____    ______ ____
ROOT
ATOM      1  C   UNL     1      47.474   7.108  13.338  0.00  0.00    +0.000 A 
ATOM      2  C   UNL     1      46.731   8.285  13.442  0.00  0.00    +0.000 A 
ATOM      3  C   UNL     1      45.571   8.434  12.694  0.00  0.00    +0.000 A 
ATOM      4  F   UNL     1      44.878   9.580  12.779  0.00  0.00    +0.000 F 
ATOM      5  C   UNL     1      45.118   7.427  11.851  0.00  0.00    +0.000 A 
ATOM      6  C   UNL     1      45.822   6.216  11.728  0.00  0.00    +0.000 A 
ATOM      7  C   UNL     1      47.009   6.083  12.487  0.00  0.00    +0.000 A 
ENDROOT
BRANCH   6   8
ATOM      8  C   UNL     1      45.340   5.129  10.846  0.00  0.00    +0.000 A 
ATOM      9  C   UNL     1      45.520   5.146   9.454  0.00  0.00    +0.000 A 
ATOM     10  C   UNL     1      45.045   4.104   8.657  0.00  0.00    +0.000 A 
ATOM     11  C   UNL     1      44.397   3.048   9.272  0.00  0.00    +0.000 A 
ATOM     12  N   UNL     1      44.193   2.977  10.600  0.00  0.00    +0.000 NA
ATOM     13  C   UNL     1      44.660   4.013  11.344  0.00  0.00    +0.000 A 
ENDBRANCH   6   8
BRANCH   1  14
ATOM     14  C   UNL     1      48.756   6.936  14.130  0.00  0.00    +0.000 C 
BRANCH  14  20
ATOM     15  F   UNL     1      47.016   2.232  17.951  0.00  0.00    +0.000 F 
ATOM     16  C   UNL     1      47.356   3.371  17.340  0.00  0.00    +0.000 A 
ATOM     17  C   UNL     1      47.687   3.417  16.011  0.00  0.00    +0.000 A 
ATOM     18  N   UNL     1      48.047   4.554  15.374  0.00  0.00    +0.000 NA
ATOM     19  C   UNL     1      48.068   5.684  16.103  0.00  0.00    +0.000 A 
ATOM     20  N   UNL     1      48.471   6.863  15.535  0.00  0.00    +0.000 N 
ATOM     21  N   UNL     1      47.739   5.735  17.404  0.00  0.00    +0.000 NA
ATOM     22  C   UNL     1      47.398   4.570  18.000  0.00  0.00    +0.000 A 
ATOM     23  H   UNL     1      48.292   7.686  16.089  0.00  0.00    +0.000 HD
ENDBRANCH  14  20
ENDBRANCH   1  14
TORSDOF 3
ENDMDL
MODEL 9
REMARK VINA RESULT:    -6.908      3.330      6.922
REMARK INTER + INTRA:          -8.639
REMARK INTER:                  -8.115
REMARK INTRA:                  -0.524
REMARK UNBOUND:                -0.520
REMARK  Name = 
REMARK  3 active torsions:
REMARK  status: ('A' for Active; 'I' for Inactive)
REMARK    1  A    between atoms: N_6  and  C_7
REMARK    2  A    between atoms: C_7  and  C_8
REMARK    3  A    between atoms: C_13  and  C_14
REMARK                            x       y       z     vdW  Elec       q    Type
REMARK                         _______ _______ _______ _____ _____    ______ ____
ROOT
ATOM      1  C   UNL     1      45.213   6.594  11.479  0.00  0.00    +0.000 A 
ATOM      2  C   UNL     1      43.864   6.496  11.821  0.00  0.00    +0.000 A 
ATOM      3  C   UNL     1      43.078   5.507  11.244  0.00  0.00    +0.000 A 
ATOM      4  F   UNL     1      41.775   5.437  11.558  0.00  0.00    +0.000 F 
ATOM      5  C   UNL     1      43.609   4.593  10.342  0.00  0.00    +0.000 A 
ATOM      6  C   UNL     1      44.967   4.640   9.982  0.00  0.00    +0.000 A 
ATOM      7  C   UNL     1      45.753   5.662  10.568  0.00  0.00    +0.000 A 
ENDROOT
BRANCH   6   8
ATOM      8  C   UNL     1      45.549   3.662   9.035  0.00  0.00    +0.000 A 
ATOM      9  C   UNL     1      46.217   4.049   7.862  0.00  0.00    +0.000 A 
ATOM     10  C   UNL     1      46.746   3.095   6.991  0.00  0.00    +0.000 A 
ATOM     11  C   UNL     1      46.604   1.758   7.315  0.00  0.00    +0.000 A 
ATOM     12  N   UNL     1      45.973   1.328   8.423  0.00  0.00    +0.000 NA
ATOM     13  C   UNL     1      45.462   2.282   9.242  0.00  0.00    +0.000 A 
ENDBRANCH   6   8
BRANCH   1  14
ATOM     14  C   UNL     1      46.081   7.682  12.080  0.00  0.00    +0.000 C 
BRANCH  14  20
ATOM     15  F   UNL     1      51.751  10.323  11.283  0.00  0.00    +0.000 F 
ATOM     16  C   UNL     1      50.676   9.558  11.503  0.00  0.00    +0.000 A 
ATOM     17  C   UNL     1      49.400  10.041  11.382  0.00  0.00    +0.000 A 
ATOM     18  N   UNL     1      48.297   9.292  11.612  0.00  0.00    +0.000 NA
ATOM     19  C   UNL     1      48.492   8.010  11.970  0.00  0.00    +0.000 A 
ATOM     20  N   UNL     1      47.423   7.207  12.266  0.00  0.00    +0.000 N 
ATOM     21  N   UNL     1      49.706   7.449  12.091  0.00  0.00    +0.000 NA
ATOM     22  C   UNL     1      50.777   8.242  11.862  0.00  0.00    +0.000 A 
ATOM     23  H   UNL     1      47.637   6.226  12.351  0.00  0.00    +0.000 HD
ENDBRANCH  14  20
ENDBRANCH   1  14
TORSDOF 3
ENDMDL
