MODEL 1
REMARK VINA RESULT:    -7.673      0.000      0.000
REMARK INTER + INTRA:         -11.474
REMARK INTER:                 -10.813
REMARK INTRA:                  -0.661
REMARK UNBOUND:                -0.661
REMARK  Name = 
REMARK  7 active torsions:
REMARK  status: ('A' for Active; 'I' for Inactive)
REMARK    1  A    between atoms: C_2  and  C_4
REMARK    2  A    between atoms: C_7  and  O_8
REMARK    3  A    between atoms: O_8  and  C_9
REMARK    4  A    between atoms: C_9  and  C_10
REMARK    5  A    between atoms: C_11  and  C_12
REMARK    6  A    between atoms: C_16  and  C_17
REMARK    7  A    between atoms: C_17  and  C_18
REMARK                            x       y       z     vdW  Elec       q    Type
REMARK                         _______ _______ _______ _____ _____    ______ ____
ROOT
ATOM      1  C   UNL     1      43.630   3.912  11.279  0.00  0.00    +0.000 C 
ENDROOT
BRANCH   1   2
ATOM      2  C   UNL     1      44.619   4.582  12.180  0.00  0.00    +0.000 C 
ATOM      3  C   UNL     1      45.569   3.943  12.885  0.00  0.00    +0.000 C 
BRANCH   3   4
ATOM      4  C   UNL     1      46.501   4.629  13.790  0.00  0.00    +0.000 A 
ATOM      5  C   UNL     1      47.194   5.758  13.373  0.00  0.00    +0.000 A 
ATOM      6  C   UNL     1      48.070   6.371  14.266  0.00  0.00    +0.000 A 
ATOM      7  C   UNL     1      48.228   5.841  15.543  0.00  0.00    +0.000 A 
ATOM      8  C   UNL     1      47.495   4.712  15.894  0.00  0.00    +0.000 A 
ATOM      9  N   UNL     1      46.652   4.103  15.030  0.00  0.00    +0.000 NA
BRANCH   8  10
ATOM     10  C   UNL     1      47.588   4.101  17.268  0.00  0.00    +0.000 C 
BRANCH  10  11
ATOM     11  C   UNL     1      48.227   5.073  18.244  0.00  0.00    +0.000 C 
ATOM     12  C   UNL     1      48.758   4.531  19.580  0.00  0.00    +0.000 C 
ATOM     13  O   UNL     1      47.888   5.408  20.333  0.00  0.00    +0.000 OA
ATOM     14  C   UNL     1      47.230   5.841  19.123  0.00  0.00    +0.000 C 
ENDBRANCH  10  11
ENDBRANCH   8  10
ENDBRANCH   3   4
ENDBRANCH   1   2
BRANCH   1  15
ATOM     15  O   UNL     1      43.770   4.495   9.986  0.00  0.00    +0.000 OA
BRANCH  15  19
ATOM     16  C   UNL     1      46.460   2.425   7.769  0.00  0.00    +0.000 A 
ATOM     17  C   UNL     1      46.355   3.802   7.623  0.00  0.00    +0.000 A 
ATOM     18  N   UNL     1      45.465   4.543   8.334  0.00  0.00    +0.000 NA
ATOM     19  C   UNL     1      44.696   3.846   9.202  0.00  0.00    +0.000 A 
ATOM     20  C   UNL     1      44.807   2.467   9.350  0.00  0.00    +0.000 A 
ATOM     21  N   UNL     1      45.685   1.714   8.636  0.00  0.00    +0.000 NA
BRANCH  16  23
ATOM     22  N   UNL     1      48.509   2.399   6.484  0.00  0.00    +0.000 N 
ATOM     23  C   UNL     1      47.450   1.670   6.953  0.00  0.00    +0.000 C 
ATOM     24  O   UNL     1      47.330   0.475   6.719  0.00  0.00    +0.000 OA
ATOM     25  H   UNL     1      49.222   1.943   5.933  0.00  0.00    +0.000 HD
ATOM     26  H   UNL     1      48.584   3.385   6.706  0.00  0.00    +0.000 HD
ENDBRANCH  16  23
ENDBRANCH  15  19
ENDBRANCH   1  15
TORSDOF 7
ENDMDL
MODEL 2
REMARK VINA RESULT:    -7.174      2.443      3.729
REMARK INTER + INTRA:         -10.771
REMARK INTER:                  -9.917
REMARK INTRA:                  -0.853
REMARK UNBOUND:                -0.661
REMARK  Name = 
REMARK  7 active torsions:
REMARK  status: ('A' for Active; 'I' for Inactive)
REMARK    1  A    between atoms: C_2  and  C_4
REMARK    2  A    between atoms: C_7  and  O_8
REMARK    3  A    between atoms: O_8  and  C_9
REMARK    4  A    between atoms: C_9  and  C_10
REMARK    5  A    between atoms: C_11  and  C_12
REMARK    6  A    between atoms: C_16  and  C_17
REMARK    7  A    between atoms: C_17  and  C_18
REMARK                            x       y       z     vdW  Elec       q    Type
REMARK                         _______ _______ _______ _____ _____    ______ ____
ROOT
ATOM      1  C   UNL     1      43.770   3.926  11.362  0.00  0.00    +0.000 C 
ENDROOT
BRANCH   1   2
ATOM      2  C   UNL     1      44.706   4.583  12.328  0.00  0.00    +0.000 C 
ATOM      3  C   UNL     1      45.757   3.977  12.907  0.00  0.00    +0.000 C 
BRANCH   3   4
ATOM      4  C   UNL     1      46.634   4.641  13.881  0.00  0.00    +0.000 A 
ATOM      5  C   UNL     1      46.951   4.027  15.086  0.00  0.00    +0.000 A 
ATOM      6  C   UNL     1      47.783   4.698  15.978  0.00  0.00    +0.000 A 
ATOM      7  C   UNL     1      48.272   5.957  15.644  0.00  0.00    +0.000 A 
ATOM      8  C   UNL     1      47.919   6.507  14.417  0.00  0.00    +0.000 A 
ATOM      9  N   UNL     1      47.102   5.869  13.549  0.00  0.00    +0.000 NA
BRANCH   8  10
ATOM     10  C   UNL     1      48.435   7.851  13.971  0.00  0.00    +0.000 C 
BRANCH  10  11
ATOM     11  C   UNL     1      48.360   7.979  12.460  0.00  0.00    +0.000 C 
ATOM     12  C   UNL     1      49.661   7.888  11.648  0.00  0.00    +0.000 C 
ATOM     13  O   UNL     1      49.456   9.207  11.087  0.00  0.00    +0.000 OA
ATOM     14  C   UNL     1      48.315   9.425  11.945  0.00  0.00    +0.000 C 
ENDBRANCH  10  11
ENDBRANCH   8  10
ENDBRANCH   3   4
ENDBRANCH   1   2
BRANCH   1  15
ATOM     15  O   UNL     1      43.927   4.582  10.106  0.00  0.00    +0.000 OA
BRANCH  15  19
ATOM     16  C   UNL     1      46.485   2.517   7.733  0.00  0.00    +0.000 A 
ATOM     17  C   UNL     1      46.410   3.900   7.631  0.00  0.00    +0.000 A 
ATOM     18  N   UNL     1      45.564   4.640   8.396  0.00  0.00    +0.000 NA
ATOM     19  C   UNL     1      44.809   3.935   9.270  0.00  0.00    +0.000 A 
ATOM     20  C   UNL     1      44.890   2.550   9.372  0.00  0.00    +0.000 A 
ATOM     21  N   UNL     1      45.724   1.798   8.605  0.00  0.00    +0.000 NA
BRANCH  16  23
ATOM     22  N   UNL     1      48.494   2.477   6.386  0.00  0.00    +0.000 N 
ATOM     23  C   UNL     1      47.426   1.764   6.859  0.00  0.00    +0.000 C 
ATOM     24  O   UNL     1      47.263   0.583   6.585  0.00  0.00    +0.000 OA
ATOM     25  H   UNL     1      49.176   2.022   5.797  0.00  0.00    +0.000 HD
ATOM     26  H   UNL     1      48.606   3.452   6.642  0.00  0.00    +0.000 HD
ENDBRANCH  16  23
ENDBRANCH  15  19
ENDBRANCH   1  15
TORSDOF 7
ENDMDL
MODEL 3
REMARK VINA RESULT:    -7.035      3.789      5.569
REMARK INTER + INTRA:         -10.576
REMARK INTER:                  -9.810
REMARK INTRA:                  -0.765
REMARK UNBOUND:                -0.661
REMARK  Name = 
REMARK  7 active torsions:
REMARK  status: ('A' for Active; 'I' for Inactive)
REMARK    1  A    between atoms: C_2  and  C_4
REMARK    2  A    between atoms: C_7  and  O_8
REMARK    3  A    between atoms: O_8  and  C_9
REMARK    4  A    between atoms: C_9  and  C_10
REMARK    5  A    between atoms: C_11  and  C_12
REMARK    6  A    between atoms: C_16  and  C_17
REMARK    7  A    between atoms: C_17  and  C_18
REMARK                            x       y       z     vdW  Elec       q    Type
REMARK                         _______ _______ _______ _____ _____    ______ ____
ROOT
ATOM      1  C   UNL     1      44.165   3.202  11.539  0.00  0.00    +0.000 C 
ENDROOT
BRANCH   1   2
ATOM      2  C   UNL     1      44.964   4.411  11.910  0.00  0.00    +0.000 C 
ATOM      3  C   UNL     1      44.466   5.655  12.017  0.00  0.00    +0.000 C 
BRANCH   3   4
ATOM      4  C   UNL     1      45.287   6.827  12.348  0.00  0.00    +0.000 A 
ATOM      5  C   UNL     1      46.476   6.686  13.051  0.00  0.00    +0.000 A 
ATOM      6  C   UNL     1      47.217   7.827  13.345  0.00  0.00    +0.000 A 
ATOM      7  C   UNL     1      46.752   9.072  12.931  0.00  0.00    +0.000 A 
ATOM      8  C   UNL     1      45.556   9.137  12.224  0.00  0.00    +0.000 A 
ATOM      9  N   UNL     1      44.823   8.035  11.945  0.00  0.00    +0.000 NA
BRANCH   8  10
ATOM     10  C   UNL     1      45.005  10.443  11.715  0.00  0.00    +0.000 C 
BRANCH  10  11
ATOM     11  C   UNL     1      43.668  10.229  11.028  0.00  0.00    +0.000 C 
ATOM     12  C   UNL     1      43.507  10.688   9.571  0.00  0.00    +0.000 C 
ATOM     13  O   UNL     1      42.414  11.569   9.922  0.00  0.00    +0.000 OA
ATOM     14  C   UNL     1      42.618  11.309  11.327  0.00  0.00    +0.000 C 
ENDBRANCH  10  11
ENDBRANCH   8  10
ENDBRANCH   3   4
ENDBRANCH   1   2
BRANCH   1  15
ATOM     15  O   UNL     1      43.671   3.408  10.217  0.00  0.00    +0.000 OA
BRANCH  15  19
ATOM     16  C   UNL     1      46.500   2.587   7.432  0.00  0.00    +0.000 A 
ATOM     17  C   UNL     1      45.981   3.871   7.534  0.00  0.00    +0.000 A 
ATOM     18  N   UNL     1      45.026   4.199   8.444  0.00  0.00    +0.000 NA
ATOM     19  C   UNL     1      44.624   3.187   9.249  0.00  0.00    +0.000 A 
ATOM     20  C   UNL     1      45.148   1.903   9.147  0.00  0.00    +0.000 A 
ATOM     21  N   UNL     1      46.096   1.561   8.233  0.00  0.00    +0.000 NA
BRANCH  16  23
ATOM     22  N   UNL     1      47.440   3.001   5.242  0.00  0.00    +0.000 N 
ATOM     23  C   UNL     1      47.538   2.291   6.407  0.00  0.00    +0.000 C 
ATOM     24  O   UNL     1      48.428   1.470   6.594  0.00  0.00    +0.000 OA
ATOM     25  H   UNL     1      48.121   2.855   4.511  0.00  0.00    +0.000 HD
ATOM     26  H   UNL     1      46.698   3.681   5.124  0.00  0.00    +0.000 HD
ENDBRANCH  16  23
ENDBRANCH  15  19
ENDBRANCH   1  15
TORSDOF 7
ENDMDL
MODEL 4
REMARK VINA RESULT:    -6.892      1.545      2.118
REMARK INTER + INTRA:         -10.373
REMARK INTER:                  -9.656
REMARK INTRA:                  -0.718
REMARK UNBOUND:                -0.661
REMARK  Name = 
REMARK  7 active torsions:
REMARK  status: ('A' for Active; 'I' for Inactive)
REMARK    1  A    between atoms: C_2  and  C_4
REMARK    2  A    between atoms: C_7  and  O_8
REMARK    3  A    between atoms: O_8  and  C_9
REMARK    4  A    between atoms: C_9  and  C_10
REMARK    5  A    between atoms: C_11  and  C_12
REMARK    6  A    between atoms: C_16  and  C_17
REMARK    7  A    between atoms: C_17  and  C_18
REMARK                            x       y       z     vdW  Elec       q    Type
REMARK                         _______ _______ _______ _____ _____    ______ ____
ROOT
ATOM      1  C   UNL     1      43.906   3.585  11.624  0.00  0.00    +0.000 C 
ENDROOT
BRANCH   1   2
ATOM      2  C   UNL     1      44.511   4.870  12.095  0.00  0.00    +0.000 C 
ATOM      3  C   UNL     1      45.793   5.020  12.470  0.00  0.00    +0.000 C 
BRANCH   3   4
ATOM      4  C   UNL     1      46.346   6.288  12.963  0.00  0.00    +0.000 A 
ATOM      5  C   UNL     1      45.732   7.496  12.662  0.00  0.00    +0.000 A 
ATOM      6  C   UNL     1      46.297   8.672  13.149  0.00  0.00    +0.000 A 
ATOM      7  C   UNL     1      47.454   8.609  13.920  0.00  0.00    +0.000 A 
ATOM      8  C   UNL     1      48.010   7.362  14.189  0.00  0.00    +0.000 A 
ATOM      9  N   UNL     1      47.475   6.216  13.710  0.00  0.00    +0.000 NA
BRANCH   8  10
ATOM     10  C   UNL     1      49.241   7.211  15.043  0.00  0.00    +0.000 C 
BRANCH  10  11
ATOM     11  C   UNL     1      48.983   6.251  16.190  0.00  0.00    +0.000 C 
ATOM     12  C   UNL     1      48.665   6.830  17.577  0.00  0.00    +0.000 C 
ATOM     13  O   UNL     1      49.801   6.156  18.168  0.00  0.00    +0.000 OA
ATOM     14  C   UNL     1      50.250   5.713  16.870  0.00  0.00    +0.000 C 
ENDBRANCH  10  11
ENDBRANCH   8  10
ENDBRANCH   3   4
ENDBRANCH   1   2
BRANCH   1  15
ATOM     15  O   UNL     1      43.537   3.765  10.258  0.00  0.00    +0.000 OA
BRANCH  15  19
ATOM     16  C   UNL     1      46.470   2.510   7.756  0.00  0.00    +0.000 A 
ATOM     17  C   UNL     1      46.075   3.842   7.747  0.00  0.00    +0.000 A 
ATOM     18  N   UNL     1      45.092   4.313   8.559  0.00  0.00    +0.000 NA
ATOM     19  C   UNL     1      44.533   3.396   9.382  0.00  0.00    +0.000 A 
ATOM     20  C   UNL     1      44.934   2.064   9.391  0.00  0.00    +0.000 A 
ATOM     21  N   UNL     1      45.909   1.579   8.577  0.00  0.00    +0.000 NA
BRANCH  16  23
ATOM     22  N   UNL     1      48.040   3.007   5.983  0.00  0.00    +0.000 N 
ATOM     23  C   UNL     1      47.548   2.056   6.835  0.00  0.00    +0.000 C 
ATOM     24  O   UNL     1      47.973   0.908   6.841  0.00  0.00    +0.000 OA
ATOM     25  H   UNL     1      48.779   2.766   5.340  0.00  0.00    +0.000 HD
ATOM     26  H   UNL     1      47.672   3.952   6.012  0.00  0.00    +0.000 HD
ENDBRANCH  16  23
ENDBRANCH  15  19
ENDBRANCH   1  15
TORSDOF 7
ENDMDL
MODEL 5
REMARK VINA RESULT:    -6.628      3.184      9.094
REMARK INTER + INTRA:         -10.001
REMARK INTER:                  -9.499
REMARK INTRA:                  -0.502
REMARK UNBOUND:                -0.661
REMARK  Name = 
REMARK  7 active torsions:
REMARK  status: ('A' for Active; 'I' for Inactive)
REMARK    1  A    between atoms: C_2  and  C_4
REMARK    2  A    between atoms: C_7  and  O_8
REMARK    3  A    between atoms: O_8  and  C_9
REMARK    4  A    between atoms: C_9  and  C_10
REMARK    5  A    between atoms: C_11  and  C_12
REMARK    6  A    between atoms: C_16  and  C_17
REMARK    7  A    between atoms: C_17  and  C_18
REMARK                            x       y       z     vdW  Elec       q    Type
REMARK                         _______ _______ _______ _____ _____    ______ ____
ROOT
ATOM      1  C   UNL     1      47.334   4.299  15.769  0.00  0.00    +0.000 C 
ENDROOT
BRANCH   1   2
ATOM      2  C   UNL     1      46.370   4.236  14.626  0.00  0.00    +0.000 C 
ATOM      3  C   UNL     1      46.218   5.198  13.700  0.00  0.00    +0.000 C 
BRANCH   3   4
ATOM      4  C   UNL     1      45.234   5.120  12.611  0.00  0.00    +0.000 A 
ATOM      5  C   UNL     1      43.873   5.202  12.875  0.00  0.00    +0.000 A 
ATOM      6  C   UNL     1      42.980   5.119  11.811  0.00  0.00    +0.000 A 
ATOM      7  C   UNL     1      43.469   4.958  10.517  0.00  0.00    +0.000 A 
ATOM      8  C   UNL     1      44.845   4.893  10.326  0.00  0.00    +0.000 A 
ATOM      9  N   UNL     1      45.719   4.959  11.356  0.00  0.00    +0.000 NA
BRANCH   8  10
ATOM     10  C   UNL     1      45.450   4.752   8.954  0.00  0.00    +0.000 C 
BRANCH  10  11
ATOM     11  C   UNL     1      45.093   3.408   8.346  0.00  0.00    +0.000 C 
ATOM     12  C   UNL     1      45.230   2.148   9.215  0.00  0.00    +0.000 C 
ATOM     13  O   UNL     1      46.164   1.553   8.284  0.00  0.00    +0.000 OA
ATOM     14  C   UNL     1      46.210   2.770   7.509  0.00  0.00    +0.000 C 
ENDBRANCH  10  11
ENDBRANCH   8  10
ENDBRANCH   3   4
ENDBRANCH   1   2
BRANCH   1  15
ATOM     15  O   UNL     1      47.653   2.957  16.130  0.00  0.00    +0.000 OA
BRANCH  15  19
ATOM     16  C   UNL     1      51.371   2.756  17.735  0.00  0.00    +0.000 A 
ATOM     17  C   UNL     1      50.903   1.719  16.940  0.00  0.00    +0.000 A 
ATOM     18  N   UNL     1      49.663   1.731  16.384  0.00  0.00    +0.000 NA
ATOM     19  C   UNL     1      48.920   2.830  16.653  0.00  0.00    +0.000 A 
ATOM     20  C   UNL     1      49.394   3.870  17.446  0.00  0.00    +0.000 A 
ATOM     21  N   UNL     1      50.628   3.863  18.016  0.00  0.00    +0.000 NA
BRANCH  16  23
ATOM     22  N   UNL     1      53.606   1.833  17.686  0.00  0.00    +0.000 N 
ATOM     23  C   UNL     1      52.737   2.677  18.321  0.00  0.00    +0.000 C 
ATOM     24  O   UNL     1      53.066   3.327  19.305  0.00  0.00    +0.000 OA
ATOM     25  H   UNL     1      54.552   1.742  18.028  0.00  0.00    +0.000 HD
ATOM     26  H   UNL     1      53.304   1.316  16.867  0.00  0.00    +0.000 HD
ENDBRANCH  16  23
ENDBRANCH  15  19
ENDBRANCH   1  15
TORSDOF 7
ENDMDL
MODEL 6
REMARK VINA RESULT:    -6.545      4.058      4.929
REMARK INTER + INTRA:          -9.884
REMARK INTER:                  -9.271
REMARK INTRA:                  -0.613
REMARK UNBOUND:                -0.661
REMARK  Name = 
REMARK  7 active torsions:
REMARK  status: ('A' for Active; 'I' for Inactive)
REMARK    1  A    between atoms: C_2  and  C_4
REMARK    2  A    between atoms: C_7  and  O_8
REMARK    3  A    between atoms: O_8  and  C_9
REMARK    4  A    between atoms: C_9  and  C_10
REMARK    5  A    between atoms: C_11  and  C_12
REMARK    6  A    between atoms: C_16  and  C_17
REMARK    7  A    between atoms: C_17  and  C_18
REMARK                            x       y       z     vdW  Elec       q    Type
REMARK                         _______ _______ _______ _____ _____    ______ ____
ROOT
ATOM      1  C   UNL     1      44.229   4.114  11.569  0.00  0.00    +0.000 C 
ENDROOT
BRANCH   1   2
ATOM      2  C   UNL     1      44.886   5.454  11.689  0.00  0.00    +0.000 C 
ATOM      3  C   UNL     1      46.190   5.646  11.951  0.00  0.00    +0.000 C 
BRANCH   3   4
ATOM      4  C   UNL     1      46.795   6.976  12.099  0.00  0.00    +0.000 A 
ATOM      5  C   UNL     1      46.005   8.118  12.120  0.00  0.00    +0.000 A 
ATOM      6  C   UNL     1      46.626   9.357  12.257  0.00  0.00    +0.000 A 
ATOM      7  C   UNL     1      48.012   9.420  12.370  0.00  0.00    +0.000 A 
ATOM      8  C   UNL     1      48.739   8.234  12.349  0.00  0.00    +0.000 A 
ATOM      9  N   UNL     1      48.146   7.028  12.203  0.00  0.00    +0.000 NA
BRANCH   8  10
ATOM     10  C   UNL     1      50.238   8.220  12.498  0.00  0.00    +0.000 C 
BRANCH  10  11
ATOM     11  C   UNL     1      50.912   8.322  11.142  0.00  0.00    +0.000 C 
ATOM     12  C   UNL     1      52.381   7.891  11.016  0.00  0.00    +0.000 C 
ATOM     13  O   UNL     1      52.773   9.204  10.550  0.00  0.00    +0.000 OA
ATOM     14  C   UNL     1      51.449   9.720  10.802  0.00  0.00    +0.000 C 
ENDBRANCH  10  11
ENDBRANCH   8  10
ENDBRANCH   3   4
ENDBRANCH   1   2
BRANCH   1  15
ATOM     15  O   UNL     1      43.725   4.005  10.240  0.00  0.00    +0.000 OA
BRANCH  15  19
ATOM     16  C   UNL     1      46.474   2.745   7.539  0.00  0.00    +0.000 A 
ATOM     17  C   UNL     1      45.932   1.845   8.447  0.00  0.00    +0.000 A 
ATOM     18  N   UNL     1      45.014   2.215   9.378  0.00  0.00    +0.000 NA
ATOM     19  C   UNL     1      44.659   3.522   9.351  0.00  0.00    +0.000 A 
ATOM     20  C   UNL     1      45.201   4.419   8.438  0.00  0.00    +0.000 A 
ATOM     21  N   UNL     1      46.128   4.063   7.509  0.00  0.00    +0.000 NA
BRANCH  16  23
ATOM     22  N   UNL     1      47.509   2.957   5.363  0.00  0.00    +0.000 N 
ATOM     23  C   UNL     1      47.483   2.277   6.550  0.00  0.00    +0.000 C 
ATOM     24  O   UNL     1      48.245   1.347   6.781  0.00  0.00    +0.000 OA
ATOM     25  H   UNL     1      48.178   2.696   4.653  0.00  0.00    +0.000 HD
ATOM     26  H   UNL     1      46.871   3.730   5.207  0.00  0.00    +0.000 HD
ENDBRANCH  16  23
ENDBRANCH  15  19
ENDBRANCH   1  15
TORSDOF 7
ENDMDL
MODEL 7
REMARK VINA RESULT:    -6.446      3.244      4.566
REMARK INTER + INTRA:          -9.745
REMARK INTER:                  -9.491
REMARK INTRA:                  -0.255
REMARK UNBOUND:                -0.661
REMARK  Name = 
REMARK  7 active torsions:
REMARK  status: ('A' for Active; 'I' for Inactive)
REMARK    1  A    between atoms: C_2  and  C_4
REMARK    2  A    between atoms: C_7  and  O_8
REMARK    3  A    between atoms: O_8  and  C_9
REMARK    4  A    between atoms: C_9  and  C_10
REMARK    5  A    between atoms: C_11  and  C_12
REMARK    6  A    between atoms: C_16  and  C_17
REMARK    7  A    between atoms: C_17  and  C_18
REMARK                            x       y       z     vdW  Elec       q    Type
REMARK                         _______ _______ _______ _____ _____    ______ ____
ROOT
ATOM      1  C   UNL     1      43.923   3.423  11.307  0.00  0.00    +0.000 C 
ENDROOT
BRANCH   1   2
ATOM      2  C   UNL     1      44.807   4.319  12.116  0.00  0.00    +0.000 C 
ATOM      3  C   UNL     1      45.579   5.294  11.608  0.00  0.00    +0.000 C 
BRANCH   3   4
ATOM      4  C   UNL     1      46.465   6.132  12.427  0.00  0.00    +0.000 A 
ATOM      5  C   UNL     1      47.216   5.577  13.456  0.00  0.00    +0.000 A 
ATOM      6  C   UNL     1      48.037   6.413  14.208  0.00  0.00    +0.000 A 
ATOM      7  C   UNL     1      48.086   7.773  13.913  0.00  0.00    +0.000 A 
ATOM      8  C   UNL     1      47.312   8.257  12.863  0.00  0.00    +0.000 A 
ATOM      9  N   UNL     1      46.502   7.455  12.136  0.00  0.00    +0.000 NA
BRANCH   8  10
ATOM     10  C   UNL     1      47.337   9.709  12.464  0.00  0.00    +0.000 C 
BRANCH  10  11
ATOM     11  C   UNL     1      48.682  10.076  11.863  0.00  0.00    +0.000 C 
ATOM     12  C   UNL     1      49.547  11.124  12.581  0.00  0.00    +0.000 C 
ATOM     13  O   UNL     1      49.559  11.979  11.413  0.00  0.00    +0.000 OA
ATOM     14  C   UNL     1      48.614  11.120  10.739  0.00  0.00    +0.000 C 
ENDBRANCH  10  11
ENDBRANCH   8  10
ENDBRANCH   3   4
ENDBRANCH   1   2
BRANCH   1  15
ATOM     15  O   UNL     1      43.770   4.024  10.023  0.00  0.00    +0.000 OA
BRANCH  15  19
ATOM     16  C   UNL     1      46.599   2.675   7.452  0.00  0.00    +0.000 A 
ATOM     17  C   UNL     1      46.304   4.031   7.508  0.00  0.00    +0.000 A 
ATOM     18  N   UNL     1      45.360   4.536   8.345  0.00  0.00    +0.000 NA
ATOM     19  C   UNL     1      44.734   3.624   9.127  0.00  0.00    +0.000 A 
ATOM     20  C   UNL     1      45.035   2.267   9.070  0.00  0.00    +0.000 A 
ATOM     21  N   UNL     1      45.970   1.750   8.229  0.00  0.00    +0.000 NA
BRANCH  16  23
ATOM     22  N   UNL     1      47.761   2.894   5.341  0.00  0.00    +0.000 N 
ATOM     23  C   UNL     1      47.639   2.186   6.505  0.00  0.00    +0.000 C 
ATOM     24  O   UNL     1      48.344   1.217   6.752  0.00  0.00    +0.000 OA
ATOM     25  H   UNL     1      48.455   2.621   4.662  0.00  0.00    +0.000 HD
ATOM     26  H   UNL     1      47.168   3.700   5.173  0.00  0.00    +0.000 HD
ENDBRANCH  16  23
ENDBRANCH  15  19
ENDBRANCH   1  15
TORSDOF 7
ENDMDL
MODEL 8
REMARK VINA RESULT:    -6.257      3.857      8.752
REMARK INTER + INTRA:          -9.478
REMARK INTER:                  -9.314
REMARK INTRA:                  -0.164
REMARK UNBOUND:                -0.661
REMARK  Name = 
REMARK  7 active torsions:
REMARK  status: ('A' for Active; 'I' for Inactive)
REMARK    1  A    between atoms: C_2  and  C_4
REMARK    2  A    between atoms: C_7  and  O_8
REMARK    3  A    between atoms: O_8  and  C_9
REMARK    4  A    between atoms: C_9  and  C_10
REMARK    5  A    between atoms: C_11  and  C_12
REMARK    6  A    between atoms: C_16  and  C_17
REMARK    7  A    between atoms: C_17  and  C_18
REMARK                            x       y       z     vdW  Elec       q    Type
REMARK                         _______ _______ _______ _____ _____    ______ ____
ROOT
ATOM      1  C   UNL     1      48.090   3.573  16.906  0.00  0.00    +0.000 C 
ENDROOT
BRANCH   1   2
ATOM      2  C   UNL     1      47.344   4.410  15.915  0.00  0.00    +0.000 C 
ATOM      3  C   UNL     1      47.314   4.184  14.590  0.00  0.00    +0.000 C 
BRANCH   3   4
ATOM      4  C   UNL     1      46.602   5.048  13.640  0.00  0.00    +0.000 A 
ATOM      5  C   UNL     1      47.280   6.024  12.921  0.00  0.00    +0.000 A 
ATOM      6  C   UNL     1      46.560   6.822  12.036  0.00  0.00    +0.000 A 
ATOM      7  C   UNL     1      45.190   6.624  11.893  0.00  0.00    +0.000 A 
ATOM      8  C   UNL     1      44.579   5.622  12.640  0.00  0.00    +0.000 A 
ATOM      9  N   UNL     1      45.267   4.851  13.511  0.00  0.00    +0.000 NA
BRANCH   8  10
ATOM     10  C   UNL     1      43.107   5.326  12.515  0.00  0.00    +0.000 C 
BRANCH  10  11
ATOM     11  C   UNL     1      42.861   4.266  11.456  0.00  0.00    +0.000 C 
ATOM     12  C   UNL     1      43.357   2.836  11.718  0.00  0.00    +0.000 C 
ATOM     13  O   UNL     1      44.184   2.857  10.531  0.00  0.00    +0.000 OA
ATOM     14  C   UNL     1      43.889   4.254  10.316  0.00  0.00    +0.000 C 
ENDBRANCH  10  11
ENDBRANCH   8  10
ENDBRANCH   3   4
ENDBRANCH   1   2
BRANCH   1  15
ATOM     15  O   UNL     1      49.315   4.242  17.191  0.00  0.00    +0.000 OA
BRANCH  15  19
ATOM     16  C   UNL     1      52.302   1.549  17.706  0.00  0.00    +0.000 A 
ATOM     17  C   UNL     1      52.517   2.887  18.006  0.00  0.00    +0.000 A 
ATOM     18  N   UNL     1      51.554   3.833  17.844  0.00  0.00    +0.000 NA
ATOM     19  C   UNL     1      50.368   3.375  17.380  0.00  0.00    +0.000 A 
ATOM     20  C   UNL     1      50.154   2.033  17.085  0.00  0.00    +0.000 A 
ATOM     21  N   UNL     1      51.113   1.081  17.232  0.00  0.00    +0.000 NA
BRANCH  16  23
ATOM     22  N   UNL     1      53.037  -0.630  18.457  0.00  0.00    +0.000 N 
ATOM     23  C   UNL     1      53.402   0.564  17.898  0.00  0.00    +0.000 C 
ATOM     24  O   UNL     1      54.557   0.802  17.572  0.00  0.00    +0.000 OA
ATOM     25  H   UNL     1      53.734  -1.345  18.603  0.00  0.00    +0.000 HD
ATOM     26  H   UNL     1      52.068  -0.799  18.706  0.00  0.00    +0.000 HD
ENDBRANCH  16  23
ENDBRANCH  15  19
ENDBRANCH   1  15
TORSDOF 7
ENDMDL
MODEL 9
REMARK VINA RESULT:    -6.154      3.050      4.602
REMARK INTER + INTRA:          -9.333
REMARK INTER:                  -8.444
REMARK INTRA:                  -0.889
REMARK UNBOUND:                -0.661
REMARK  Name = 
REMARK  7 active torsions:
REMARK  status: ('A' for Active; 'I' for Inactive)
REMARK    1  A    between atoms: C_2  and  C_4
REMARK    2  A    between atoms: C_7  and  O_8
REMARK    3  A    between atoms: O_8  and  C_9
REMARK    4  A    between atoms: C_9  and  C_10
REMARK    5  A    between atoms: C_11  and  C_12
REMARK    6  A    between atoms: C_16  and  C_17
REMARK    7  A    between atoms: C_17  and  C_18
REMARK                            x       y       z     vdW  Elec       q    Type
REMARK                         _______ _______ _______ _____ _____    ______ ____
ROOT
ATOM      1  C   UNL     1      48.082   7.733  11.573  0.00  0.00    +0.000 C 
ENDROOT
BRANCH   1   2
ATOM      2  C   UNL     1      48.916   7.179  12.686  0.00  0.00    +0.000 C 
ATOM      3  C   UNL     1      49.195   7.829  13.829  0.00  0.00    +0.000 C 
BRANCH   3   4
ATOM      4  C   UNL     1      50.048   7.270  14.886  0.00  0.00    +0.000 A 
ATOM      5  C   UNL     1      51.377   7.655  15.004  0.00  0.00    +0.000 A 
ATOM      6  C   UNL     1      52.147   7.093  16.020  0.00  0.00    +0.000 A 
ATOM      7  C   UNL     1      51.570   6.168  16.885  0.00  0.00    +0.000 A 
ATOM      8  C   UNL     1      50.231   5.836  16.712  0.00  0.00    +0.000 A 
ATOM      9  N   UNL     1      49.479   6.366  15.721  0.00  0.00    +0.000 NA
BRANCH   8  10
ATOM     10  C   UNL     1      49.529   4.868  17.628  0.00  0.00    +0.000 C 
BRANCH  10  11
ATOM     11  C   UNL     1      48.427   4.132  16.887  0.00  0.00    +0.000 C 
ATOM     12  C   UNL     1      46.977   4.303  17.365  0.00  0.00    +0.000 C 
ATOM     13  O   UNL     1      46.837   2.881  17.593  0.00  0.00    +0.000 OA
ATOM     14  C   UNL     1      48.238   2.670  17.315  0.00  0.00    +0.000 C 
ENDBRANCH  10  11
ENDBRANCH   8  10
ENDBRANCH   3   4
ENDBRANCH   1   2
BRANCH   1  15
ATOM     15  O   UNL     1      46.743   7.829  12.052  0.00  0.00    +0.000 OA
BRANCH  15  19
ATOM     16  C   UNL     1      44.725   4.344  11.585  0.00  0.00    +0.000 A 
ATOM     17  C   UNL     1      44.855   4.905  12.849  0.00  0.00    +0.000 A 
ATOM     18  N   UNL     1      45.528   6.066  13.063  0.00  0.00    +0.000 NA
ATOM     19  C   UNL     1      46.054   6.642  11.956  0.00  0.00    +0.000 A 
ATOM     20  C   UNL     1      45.918   6.080  10.691  0.00  0.00    +0.000 A 
ATOM     21  N   UNL     1      45.257   4.913  10.467  0.00  0.00    +0.000 NA
BRANCH  16  23
ATOM     22  N   UNL     1      43.659   2.414  12.579  0.00  0.00    +0.000 N 
ATOM     23  C   UNL     1      43.983   3.064  11.420  0.00  0.00    +0.000 C 
ATOM     24  O   UNL     1      43.676   2.623  10.321  0.00  0.00    +0.000 OA
ATOM     25  H   UNL     1      43.146   1.545  12.537  0.00  0.00    +0.000 HD
ATOM     26  H   UNL     1      43.919   2.813  13.475  0.00  0.00    +0.000 HD
ENDBRANCH  16  23
ENDBRANCH  15  19
ENDBRANCH   1  15
TORSDOF 7
ENDMDL
