MODEL 1
REMARK VINA RESULT:    -9.101      0.000      0.000
REMARK INTER + INTRA:         -13.310
REMARK INTER:                 -12.293
REMARK INTRA:                  -1.017
REMARK UNBOUND:                -1.017
REMARK  Name = 
REMARK  6 active torsions:
REMARK  status: ('A' for Active; 'I' for Inactive)
REMARK    1  A    between atoms: C_2  and  C_4
REMARK    2  A    between atoms: C_7  and  O_8
REMARK    3  A    between atoms: O_8  and  C_9
REMARK    4  A    between atoms: C_9  and  C_10
REMARK    5  A    between atoms: C_10  and  C_13
REMARK    6  A    between atoms: C_17  and  C_18
REMARK                            x       y       z     vdW  Elec       q    Type
REMARK                         _______ _______ _______ _____ _____    ______ ____
ROOT
ATOM      1  C   UNL     1      43.556   4.680  12.326  0.00  0.00    +0.000 C 
ATOM      2  F   UNL     1      42.602   5.561  12.750  0.00  0.00    +0.000 F 
ATOM      3  F   UNL     1      43.190   3.475  12.870  0.00  0.00    +0.000 F 
ENDROOT
BRANCH   1   4
ATOM      4  C   UNL     1      44.940   5.095  12.781  0.00  0.00    +0.000 A 
ATOM      5  C   UNL     1      45.712   4.265  13.602  0.00  0.00    +0.000 A 
ATOM      6  C   UNL     1      46.994   4.655  13.982  0.00  0.00    +0.000 A 
ATOM      7  C   UNL     1      47.523   5.872  13.538  0.00  0.00    +0.000 A 
ATOM      8  C   UNL     1      46.773   6.749  12.731  0.00  0.00    +0.000 A 
ATOM      9  C   UNL     1      45.472   6.331  12.385  0.00  0.00    +0.000 A 
ATOM     10  F   UNL     1      44.689   7.137  11.649  0.00  0.00    +0.000 F 
BRANCH   8  11
ATOM     11  C   UNL     1      47.334   8.052  12.284  0.00  0.00    +0.000 A 
ATOM     12  C   UNL     1      46.583   9.241  12.335  0.00  0.00    +0.000 A 
ATOM     13  C   UNL     1      47.126  10.472  11.951  0.00  0.00    +0.000 A 
ATOM     14  C   UNL     1      48.432  10.542  11.479  0.00  0.00    +0.000 A 
ATOM     15  C   UNL     1      49.192   9.380  11.390  0.00  0.00    +0.000 A 
ATOM     16  C   UNL     1      48.650   8.154  11.792  0.00  0.00    +0.000 A 
ENDBRANCH   8  11
ENDBRANCH   1   4
BRANCH   1  17
ATOM     17  C   UNL     1      43.474   4.548  10.796  0.00  0.00    +0.000 C 
BRANCH  17  18
ATOM     18  O   UNL     1      43.565   3.170  10.383  0.00  0.00    +0.000 OA
BRANCH  18  22
ATOM     19  C   UNL     1      46.491   2.674   7.524  0.00  0.00    +0.000 A 
ATOM     20  C   UNL     1      45.986   3.950   7.778  0.00  0.00    +0.000 A 
ATOM     21  C   UNL     1      44.993   4.108   8.750  0.00  0.00    +0.000 A 
ATOM     22  C   UNL     1      44.544   2.983   9.426  0.00  0.00    +0.000 A 
ATOM     23  N   UNL     1      45.008   1.737   9.191  0.00  0.00    +0.000 NA
ATOM     24  C   UNL     1      45.964   1.608   8.239  0.00  0.00    +0.000 A 
BRANCH  19  26
ATOM     25  N   UNL     1      47.483   3.090   5.344  0.00  0.00    +0.000 N 
ATOM     26  C   UNL     1      47.535   2.389   6.517  0.00  0.00    +0.000 C 
ATOM     27  O   UNL     1      48.435   1.590   6.737  0.00  0.00    +0.000 OA
ATOM     28  H   UNL     1      48.273   2.969   4.721  0.00  0.00    +0.000 HD
ATOM     29  H   UNL     1      46.932   3.929   5.238  0.00  0.00    +0.000 HD
ENDBRANCH  19  26
ENDBRANCH  18  22
ENDBRANCH  17  18
ENDBRANCH   1  17
TORSDOF 6
ENDMDL
MODEL 2
REMARK VINA RESULT:    -8.395      2.016      3.318
REMARK INTER + INTRA:         -12.356
REMARK INTER:                 -11.560
REMARK INTRA:                  -0.796
REMARK UNBOUND:                -1.017
REMARK  Name = 
REMARK  6 active torsions:
REMARK  status: ('A' for Active; 'I' for Inactive)
REMARK    1  A    between atoms: C_2  and  C_4
REMARK    2  A    between atoms: C_7  and  O_8
REMARK    3  A    between atoms: O_8  and  C_9
REMARK    4  A    between atoms: C_9  and  C_10
REMARK    5  A    between atoms: C_10  and  C_13
REMARK    6  A    between atoms: C_17  and  C_18
REMARK                            x       y       z     vdW  Elec       q    Type
REMARK                         _______ _______ _______ _____ _____    ______ ____
ROOT
ATOM      1  C   UNL     1      44.612   4.566  12.273  0.00  0.00    +0.000 C 
ATOM      2  F   UNL     1      43.712   4.781  13.277  0.00  0.00    +0.000 F 
ATOM      3  F   UNL     1      44.899   3.227  12.337  0.00  0.00    +0.000 F 
ENDROOT
BRANCH   1   4
ATOM      4  C   UNL     1      45.859   5.409  12.451  0.00  0.00    +0.000 A 
ATOM      5  C   UNL     1      46.315   6.252  11.431  0.00  0.00    +0.000 A 
ATOM      6  C   UNL     1      47.445   7.041  11.630  0.00  0.00    +0.000 A 
ATOM      7  C   UNL     1      48.126   7.004  12.851  0.00  0.00    +0.000 A 
ATOM      8  C   UNL     1      47.718   6.153  13.897  0.00  0.00    +0.000 A 
ATOM      9  C   UNL     1      46.582   5.354  13.651  0.00  0.00    +0.000 A 
ATOM     10  F   UNL     1      46.162   4.491  14.591  0.00  0.00    +0.000 F 
BRANCH   8  11
ATOM     11  C   UNL     1      48.462   6.102  15.183  0.00  0.00    +0.000 A 
ATOM     12  C   UNL     1      48.100   5.217  16.216  0.00  0.00    +0.000 A 
ATOM     13  C   UNL     1      48.826   5.144  17.410  0.00  0.00    +0.000 A 
ATOM     14  C   UNL     1      49.922   5.975  17.613  0.00  0.00    +0.000 A 
ATOM     15  C   UNL     1      50.288   6.880  16.622  0.00  0.00    +0.000 A 
ATOM     16  C   UNL     1      49.570   6.938  15.422  0.00  0.00    +0.000 A 
ENDBRANCH   8  11
ENDBRANCH   1   4
BRANCH   1  17
ATOM     17  C   UNL     1      43.930   4.836  10.921  0.00  0.00    +0.000 C 
BRANCH  17  18
ATOM     18  O   UNL     1      43.636   3.607  10.228  0.00  0.00    +0.000 OA
BRANCH  18  22
ATOM     19  C   UNL     1      46.517   2.622   7.451  0.00  0.00    +0.000 A 
ATOM     20  C   UNL     1      45.971   1.625   8.261  0.00  0.00    +0.000 A 
ATOM     21  C   UNL     1      44.994   1.969   9.201  0.00  0.00    +0.000 A 
ATOM     22  C   UNL     1      44.604   3.297   9.293  0.00  0.00    +0.000 A 
ATOM     23  N   UNL     1      45.125   4.281   8.531  0.00  0.00    +0.000 NA
ATOM     24  C   UNL     1      46.075   3.925   7.632  0.00  0.00    +0.000 A 
BRANCH  19  26
ATOM     25  N   UNL     1      47.434   3.030   5.238  0.00  0.00    +0.000 N 
ATOM     26  C   UNL     1      47.558   2.375   6.431  0.00  0.00    +0.000 C 
ATOM     27  O   UNL     1      48.516   1.648   6.658  0.00  0.00    +0.000 OA
ATOM     28  H   UNL     1      48.218   2.943   4.602  0.00  0.00    +0.000 HD
ATOM     29  H   UNL     1      46.823   3.825   5.116  0.00  0.00    +0.000 HD
ENDBRANCH  19  26
ENDBRANCH  18  22
ENDBRANCH  17  18
ENDBRANCH   1  17
TORSDOF 6
ENDMDL
MODEL 3
REMARK VINA RESULT:    -8.209      1.567      2.396
REMARK INTER + INTRA:         -12.106
REMARK INTER:                 -11.499
REMARK INTRA:                  -0.607
REMARK UNBOUND:                -1.017
REMARK  Name = 
REMARK  6 active torsions:
REMARK  status: ('A' for Active; 'I' for Inactive)
REMARK    1  A    between atoms: C_2  and  C_4
REMARK    2  A    between atoms: C_7  and  O_8
REMARK    3  A    between atoms: O_8  and  C_9
REMARK    4  A    between atoms: C_9  and  C_10
REMARK    5  A    between atoms: C_10  and  C_13
REMARK    6  A    between atoms: C_17  and  C_18
REMARK                            x       y       z     vdW  Elec       q    Type
REMARK                         _______ _______ _______ _____ _____    ______ ____
ROOT
ATOM      1  C   UNL     1      43.793   4.623  12.536  0.00  0.00    +0.000 C 
ATOM      2  F   UNL     1      42.643   4.803  13.250  0.00  0.00    +0.000 F 
ATOM      3  F   UNL     1      44.590   3.848  13.339  0.00  0.00    +0.000 F 
ENDROOT
BRANCH   1   4
ATOM      4  C   UNL     1      44.458   5.944  12.206  0.00  0.00    +0.000 A 
ATOM      5  C   UNL     1      43.726   7.008  11.667  0.00  0.00    +0.000 A 
ATOM      6  C   UNL     1      44.352   8.224  11.402  0.00  0.00    +0.000 A 
ATOM      7  C   UNL     1      45.712   8.393  11.682  0.00  0.00    +0.000 A 
ATOM      8  C   UNL     1      46.493   7.343  12.202  0.00  0.00    +0.000 A 
ATOM      9  C   UNL     1      45.830   6.121  12.438  0.00  0.00    +0.000 A 
ATOM     10  F   UNL     1      46.524   5.067  12.897  0.00  0.00    +0.000 F 
BRANCH   8  11
ATOM     11  C   UNL     1      47.944   7.525  12.474  0.00  0.00    +0.000 A 
ATOM     12  C   UNL     1      48.868   7.770  11.441  0.00  0.00    +0.000 A 
ATOM     13  C   UNL     1      50.227   7.980  11.704  0.00  0.00    +0.000 A 
ATOM     14  C   UNL     1      50.701   7.925  13.009  0.00  0.00    +0.000 A 
ATOM     15  C   UNL     1      49.818   7.657  14.049  0.00  0.00    +0.000 A 
ATOM     16  C   UNL     1      48.458   7.465  13.784  0.00  0.00    +0.000 A 
ENDBRANCH   8  11
ENDBRANCH   1   4
BRANCH   1  17
ATOM     17  C   UNL     1      43.476   3.813  11.267  0.00  0.00    +0.000 C 
BRANCH  17  18
ATOM     18  O   UNL     1      43.783   4.564  10.076  0.00  0.00    +0.000 OA
BRANCH  18  22
ATOM     19  C   UNL     1      46.474   2.543   7.697  0.00  0.00    +0.000 A 
ATOM     20  C   UNL     1      45.683   1.832   8.600  0.00  0.00    +0.000 A 
ATOM     21  C   UNL     1      44.773   2.527   9.403  0.00  0.00    +0.000 A 
ATOM     22  C   UNL     1      44.693   3.905   9.272  0.00  0.00    +0.000 A 
ATOM     23  N   UNL     1      45.455   4.618   8.416  0.00  0.00    +0.000 NA
ATOM     24  C   UNL     1      46.335   3.924   7.654  0.00  0.00    +0.000 A 
BRANCH  19  26
ATOM     25  N   UNL     1      48.541   2.679   6.425  0.00  0.00    +0.000 N 
ATOM     26  C   UNL     1      47.472   1.916   6.806  0.00  0.00    +0.000 C 
ATOM     27  O   UNL     1      47.372   0.748   6.456  0.00  0.00    +0.000 OA
ATOM     28  H   UNL     1      49.271   2.195   5.917  0.00  0.00    +0.000 HD
ATOM     29  H   UNL     1      48.792   3.534   6.898  0.00  0.00    +0.000 HD
ENDBRANCH  19  26
ENDBRANCH  18  22
ENDBRANCH  17  18
ENDBRANCH   1  17
TORSDOF 6
ENDMDL
MODEL 4
REMARK VINA RESULT:    -8.045      3.600      7.338
REMARK INTER + INTRA:         -11.884
REMARK INTER:                 -11.195
REMARK INTRA:                  -0.689
REMARK UNBOUND:                -1.017
REMARK  Name = 
REMARK  6 active torsions:
REMARK  status: ('A' for Active; 'I' for Inactive)
REMARK    1  A    between atoms: C_2  and  C_4
REMARK    2  A    between atoms: C_7  and  O_8
REMARK    3  A    between atoms: O_8  and  C_9
REMARK    4  A    between atoms: C_9  and  C_10
REMARK    5  A    between atoms: C_10  and  C_13
REMARK    6  A    between atoms: C_17  and  C_18
REMARK                            x       y       z     vdW  Elec       q    Type
REMARK                         _______ _______ _______ _____ _____    ______ ____
ROOT
ATOM      1  C   UNL     1      44.823   6.392  11.968  0.00  0.00    +0.000 C 
ATOM      2  F   UNL     1      43.901   6.735  12.915  0.00  0.00    +0.000 F 
ATOM      3  F   UNL     1      44.721   7.364  11.007  0.00  0.00    +0.000 F 
ENDROOT
BRANCH   1   4
ATOM      4  C   UNL     1      44.549   5.016  11.396  0.00  0.00    +0.000 A 
ATOM      5  C   UNL     1      43.612   4.160  11.985  0.00  0.00    +0.000 A 
ATOM      6  C   UNL     1      43.354   2.912  11.423  0.00  0.00    +0.000 A 
ATOM      7  C   UNL     1      44.022   2.510  10.262  0.00  0.00    +0.000 A 
ATOM      8  C   UNL     1      44.990   3.328   9.648  0.00  0.00    +0.000 A 
ATOM      9  C   UNL     1      45.240   4.574  10.258  0.00  0.00    +0.000 A 
ATOM     10  F   UNL     1      46.179   5.387   9.747  0.00  0.00    +0.000 F 
BRANCH   8  11
ATOM     11  C   UNL     1      45.712   2.882   8.427  0.00  0.00    +0.000 A 
ATOM     12  C   UNL     1      45.894   3.731   7.320  0.00  0.00    +0.000 A 
ATOM     13  C   UNL     1      46.609   3.322   6.188  0.00  0.00    +0.000 A 
ATOM     14  C   UNL     1      47.139   2.039   6.124  0.00  0.00    +0.000 A 
ATOM     15  C   UNL     1      46.953   1.166   7.190  0.00  0.00    +0.000 A 
ATOM     16  C   UNL     1      46.254   1.585   8.328  0.00  0.00    +0.000 A 
ENDBRANCH   8  11
ENDBRANCH   1   4
BRANCH   1  17
ATOM     17  C   UNL     1      46.231   6.484  12.582  0.00  0.00    +0.000 C 
BRANCH  17  18
ATOM     18  O   UNL     1      46.766   5.176  12.864  0.00  0.00    +0.000 OA
BRANCH  18  22
ATOM     19  C   UNL     1      48.183   4.945  16.727  0.00  0.00    +0.000 A 
ATOM     20  C   UNL     1      48.527   6.038  15.931  0.00  0.00    +0.000 A 
ATOM     21  C   UNL     1      48.042   6.107  14.621  0.00  0.00    +0.000 A 
ATOM     22  C   UNL     1      47.233   5.078  14.160  0.00  0.00    +0.000 A 
ATOM     23  N   UNL     1      46.896   4.005  14.905  0.00  0.00    +0.000 NA
ATOM     24  C   UNL     1      47.384   3.956  16.169  0.00  0.00    +0.000 A 
BRANCH  19  26
ATOM     25  N   UNL     1      47.816   4.083  18.970  0.00  0.00    +0.000 N 
ATOM     26  C   UNL     1      48.642   4.764  18.120  0.00  0.00    +0.000 C 
ATOM     27  O   UNL     1      49.737   5.168  18.490  0.00  0.00    +0.000 OA
ATOM     28  H   UNL     1      48.201   3.865  19.881  0.00  0.00    +0.000 HD
ATOM     29  H   UNL     1      47.050   3.514  18.641  0.00  0.00    +0.000 HD
ENDBRANCH  19  26
ENDBRANCH  18  22
ENDBRANCH  17  18
ENDBRANCH   1  17
TORSDOF 6
ENDMDL
MODEL 5
REMARK VINA RESULT:    -7.904      2.563      3.262
REMARK INTER + INTRA:         -11.693
REMARK INTER:                 -10.873
REMARK INTRA:                  -0.820
REMARK UNBOUND:                -1.017
REMARK  Name = 
REMARK  6 active torsions:
REMARK  status: ('A' for Active; 'I' for Inactive)
REMARK    1  A    between atoms: C_2  and  C_4
REMARK    2  A    between atoms: C_7  and  O_8
REMARK    3  A    between atoms: O_8  and  C_9
REMARK    4  A    between atoms: C_9  and  C_10
REMARK    5  A    between atoms: C_10  and  C_13
REMARK    6  A    between atoms: C_17  and  C_18
REMARK                            x       y       z     vdW  Elec       q    Type
REMARK                         _______ _______ _______ _____ _____    ______ ____
ROOT
ATOM      1  C   UNL     1      44.064   5.184  11.907  0.00  0.00    +0.000 C 
ATOM      2  F   UNL     1      43.089   4.974  12.839  0.00  0.00    +0.000 F 
ATOM      3  F   UNL     1      45.059   4.297  12.229  0.00  0.00    +0.000 F 
ENDROOT
BRANCH   1   4
ATOM      4  C   UNL     1      44.566   6.614  11.939  0.00  0.00    +0.000 A 
ATOM      5  C   UNL     1      45.798   6.937  12.519  0.00  0.00    +0.000 A 
ATOM      6  C   UNL     1      46.253   8.253  12.509  0.00  0.00    +0.000 A 
ATOM      7  C   UNL     1      45.487   9.259  11.909  0.00  0.00    +0.000 A 
ATOM      8  C   UNL     1      44.231   8.985  11.335  0.00  0.00    +0.000 A 
ATOM      9  C   UNL     1      43.794   7.645  11.383  0.00  0.00    +0.000 A 
ATOM     10  F   UNL     1      42.589   7.322  10.888  0.00  0.00    +0.000 F 
BRANCH   8  11
ATOM     11  C   UNL     1      43.413  10.065  10.722  0.00  0.00    +0.000 A 
ATOM     12  C   UNL     1      42.304  10.624  11.384  0.00  0.00    +0.000 A 
ATOM     13  C   UNL     1      41.560  11.668  10.822  0.00  0.00    +0.000 A 
ATOM     14  C   UNL     1      41.892  12.164   9.567  0.00  0.00    +0.000 A 
ATOM     15  C   UNL     1      42.966  11.614   8.874  0.00  0.00    +0.000 A 
ATOM     16  C   UNL     1      43.718  10.583   9.448  0.00  0.00    +0.000 A 
ENDBRANCH   8  11
ENDBRANCH   1   4
BRANCH   1  17
ATOM     17  C   UNL     1      43.524   4.800  10.519  0.00  0.00    +0.000 C 
BRANCH  17  18
ATOM     18  O   UNL     1      43.660   3.386  10.277  0.00  0.00    +0.000 OA
BRANCH  18  22
ATOM     19  C   UNL     1      46.578   2.641   7.463  0.00  0.00    +0.000 A 
ATOM     20  C   UNL     1      46.099   3.941   7.632  0.00  0.00    +0.000 A 
ATOM     21  C   UNL     1      45.108   4.183   8.589  0.00  0.00    +0.000 A 
ATOM     22  C   UNL     1      44.635   3.115   9.337  0.00  0.00    +0.000 A 
ATOM     23  N   UNL     1      45.073   1.848   9.185  0.00  0.00    +0.000 NA
ATOM     24  C   UNL     1      46.027   1.635   8.247  0.00  0.00    +0.000 A 
BRANCH  19  26
ATOM     25  N   UNL     1      47.754   3.068   5.380  0.00  0.00    +0.000 N 
ATOM     26  C   UNL     1      47.616   2.267   6.480  0.00  0.00    +0.000 C 
ATOM     27  O   UNL     1      48.352   1.307   6.661  0.00  0.00    +0.000 OA
ATOM     28  H   UNL     1      48.548   2.867   4.784  0.00  0.00    +0.000 HD
ATOM     29  H   UNL     1      47.361   3.996   5.332  0.00  0.00    +0.000 HD
ENDBRANCH  19  26
ENDBRANCH  18  22
ENDBRANCH  17  18
ENDBRANCH   1  17
TORSDOF 6
ENDMDL
MODEL 6
REMARK VINA RESULT:    -7.522      5.306      6.957
REMARK INTER + INTRA:         -11.176
REMARK INTER:                 -10.285
REMARK INTRA:                  -0.891
REMARK UNBOUND:                -1.017
REMARK  Name = 
REMARK  6 active torsions:
REMARK  status: ('A' for Active; 'I' for Inactive)
REMARK    1  A    between atoms: C_2  and  C_4
REMARK    2  A    between atoms: C_7  and  O_8
REMARK    3  A    between atoms: O_8  and  C_9
REMARK    4  A    between atoms: C_9  and  C_10
REMARK    5  A    between atoms: C_10  and  C_13
REMARK    6  A    between atoms: C_17  and  C_18
REMARK                            x       y       z     vdW  Elec       q    Type
REMARK                         _______ _______ _______ _____ _____    ______ ____
ROOT
ATOM      1  C   UNL     1      47.950   3.133  16.879  0.00  0.00    +0.000 C 
ATOM      2  F   UNL     1      47.006   2.455  17.596  0.00  0.00    +0.000 F 
ATOM      3  F   UNL     1      48.706   2.158  16.279  0.00  0.00    +0.000 F 
ENDROOT
BRANCH   1   4
ATOM      4  C   UNL     1      48.796   4.020  17.769  0.00  0.00    +0.000 A 
ATOM      5  C   UNL     1      50.186   3.869  17.832  0.00  0.00    +0.000 A 
ATOM      6  C   UNL     1      50.946   4.717  18.634  0.00  0.00    +0.000 A 
ATOM      7  C   UNL     1      50.327   5.731  19.373  0.00  0.00    +0.000 A 
ATOM      8  C   UNL     1      48.930   5.905  19.359  0.00  0.00    +0.000 A 
ATOM      9  C   UNL     1      48.192   5.015  18.553  0.00  0.00    +0.000 A 
ATOM     10  F   UNL     1      46.852   5.100  18.524  0.00  0.00    +0.000 F 
BRANCH   8  11
ATOM     11  C   UNL     1      48.279   6.971  20.167  0.00  0.00    +0.000 A 
ATOM     12  C   UNL     1      47.943   8.221  19.614  0.00  0.00    +0.000 A 
ATOM     13  C   UNL     1      47.294   9.208  20.366  0.00  0.00    +0.000 A 
ATOM     14  C   UNL     1      46.988   8.978  21.701  0.00  0.00    +0.000 A 
ATOM     15  C   UNL     1      47.332   7.763  22.285  0.00  0.00    +0.000 A 
ATOM     16  C   UNL     1      47.964   6.773  21.525  0.00  0.00    +0.000 A 
ENDBRANCH   8  11
ENDBRANCH   1   4
BRANCH   1  17
ATOM     17  C   UNL     1      47.254   3.937  15.768  0.00  0.00    +0.000 C 
BRANCH  17  18
ATOM     18  O   UNL     1      47.518   3.372  14.468  0.00  0.00    +0.000 OA
BRANCH  18  22
ATOM     19  C   UNL     1      44.808   4.698  11.660  0.00  0.00    +0.000 A 
ATOM     20  C   UNL     1      45.618   5.620  12.326  0.00  0.00    +0.000 A 
ATOM     21  C   UNL     1      46.533   5.160  13.278  0.00  0.00    +0.000 A 
ATOM     22  C   UNL     1      46.601   3.797  13.526  0.00  0.00    +0.000 A 
ATOM     23  N   UNL     1      45.822   2.887  12.905  0.00  0.00    +0.000 NA
ATOM     24  C   UNL     1      44.937   3.357  11.992  0.00  0.00    +0.000 A 
BRANCH  19  26
ATOM     25  N   UNL     1      44.028   4.660   9.359  0.00  0.00    +0.000 N 
ATOM     26  C   UNL     1      43.803   5.070  10.643  0.00  0.00    +0.000 C 
ATOM     27  O   UNL     1      42.786   5.683  10.943  0.00  0.00    +0.000 OA
ATOM     28  H   UNL     1      43.272   4.819   8.704  0.00  0.00    +0.000 HD
ATOM     29  H   UNL     1      44.698   3.941   9.129  0.00  0.00    +0.000 HD
ENDBRANCH  19  26
ENDBRANCH  18  22
ENDBRANCH  17  18
ENDBRANCH   1  17
TORSDOF 6
ENDMDL
MODEL 7
REMARK VINA RESULT:    -7.302      3.488      6.681
REMARK INTER + INTRA:         -10.880
REMARK INTER:                  -9.954
REMARK INTRA:                  -0.926
REMARK UNBOUND:                -1.017
REMARK  Name = 
REMARK  6 active torsions:
REMARK  status: ('A' for Active; 'I' for Inactive)
REMARK    1  A    between atoms: C_2  and  C_4
REMARK    2  A    between atoms: C_7  and  O_8
REMARK    3  A    between atoms: O_8  and  C_9
REMARK    4  A    between atoms: C_9  and  C_10
REMARK    5  A    between atoms: C_10  and  C_13
REMARK    6  A    between atoms: C_17  and  C_18
REMARK                            x       y       z     vdW  Elec       q    Type
REMARK                         _______ _______ _______ _____ _____    ______ ____
ROOT
ATOM      1  C   UNL     1      44.140   5.983  12.164  0.00  0.00    +0.000 C 
ATOM      2  F   UNL     1      43.106   6.163  13.038  0.00  0.00    +0.000 F 
ATOM      3  F   UNL     1      43.975   6.960  11.216  0.00  0.00    +0.000 F 
ENDROOT
BRANCH   1   4
ATOM      4  C   UNL     1      44.113   4.600  11.545  0.00  0.00    +0.000 A 
ATOM      5  C   UNL     1      43.331   3.576  12.092  0.00  0.00    +0.000 A 
ATOM      6  C   UNL     1      43.298   2.322  11.488  0.00  0.00    +0.000 A 
ATOM      7  C   UNL     1      44.036   2.080  10.324  0.00  0.00    +0.000 A 
ATOM      8  C   UNL     1      44.855   3.073   9.752  0.00  0.00    +0.000 A 
ATOM      9  C   UNL     1      44.880   4.322  10.404  0.00  0.00    +0.000 A 
ATOM     10  F   UNL     1      45.670   5.301   9.933  0.00  0.00    +0.000 F 
BRANCH   8  11
ATOM     11  C   UNL     1      45.655   2.798   8.529  0.00  0.00    +0.000 A 
ATOM     12  C   UNL     1      46.259   1.548   8.302  0.00  0.00    +0.000 A 
ATOM     13  C   UNL     1      46.979   1.279   7.131  0.00  0.00    +0.000 A 
ATOM     14  C   UNL     1      47.135   2.267   6.166  0.00  0.00    +0.000 A 
ATOM     15  C   UNL     1      46.574   3.523   6.374  0.00  0.00    +0.000 A 
ATOM     16  C   UNL     1      45.840   3.781   7.537  0.00  0.00    +0.000 A 
ENDBRANCH   8  11
ENDBRANCH   1   4
BRANCH   1  17
ATOM     17  C   UNL     1      45.467   6.255  12.893  0.00  0.00    +0.000 C 
BRANCH  17  18
ATOM     18  O   UNL     1      45.786   7.661  12.892  0.00  0.00    +0.000 OA
BRANCH  18  22
ATOM     19  C   UNL     1      49.774   8.270  12.047  0.00  0.00    +0.000 A 
ATOM     20  C   UNL     1      49.259   6.973  12.043  0.00  0.00    +0.000 A 
ATOM     21  C   UNL     1      47.904   6.777  12.332  0.00  0.00    +0.000 A 
ATOM     22  C   UNL     1      47.121   7.886  12.614  0.00  0.00    +0.000 A 
ATOM     23  N   UNL     1      47.596   9.148  12.636  0.00  0.00    +0.000 NA
ATOM     24  C   UNL     1      48.913   9.313  12.361  0.00  0.00    +0.000 A 
BRANCH  19  26
ATOM     25  N   UNL     1      52.112   8.246  12.709  0.00  0.00    +0.000 N 
ATOM     26  C   UNL     1      51.187   8.595  11.765  0.00  0.00    +0.000 C 
ATOM     27  O   UNL     1      51.526   9.115  10.710  0.00  0.00    +0.000 OA
ATOM     28  H   UNL     1      53.082   8.366  12.445  0.00  0.00    +0.000 HD
ATOM     29  H   UNL     1      51.910   7.590  13.449  0.00  0.00    +0.000 HD
ENDBRANCH  19  26
ENDBRANCH  18  22
ENDBRANCH  17  18
ENDBRANCH   1  17
TORSDOF 6
ENDMDL
MODEL 8
REMARK VINA RESULT:    -6.942      4.100      7.692
REMARK INTER + INTRA:         -10.393
REMARK INTER:                  -9.254
REMARK INTRA:                  -1.139
REMARK UNBOUND:                -1.017
REMARK  Name = 
REMARK  6 active torsions:
REMARK  status: ('A' for Active; 'I' for Inactive)
REMARK    1  A    between atoms: C_2  and  C_4
REMARK    2  A    between atoms: C_7  and  O_8
REMARK    3  A    between atoms: O_8  and  C_9
REMARK    4  A    between atoms: C_9  and  C_10
REMARK    5  A    between atoms: C_10  and  C_13
REMARK    6  A    between atoms: C_17  and  C_18
REMARK                            x       y       z     vdW  Elec       q    Type
REMARK                         _______ _______ _______ _____ _____    ______ ____
ROOT
ATOM      1  C   UNL     1      48.462   8.594  12.706  0.00  0.00    +0.000 C 
ATOM      2  F   UNL     1      48.916   9.829  12.339  0.00  0.00    +0.000 F 
ATOM      3  F   UNL     1      49.335   7.710  12.125  0.00  0.00    +0.000 F 
ENDROOT
BRANCH   1   4
ATOM      4  C   UNL     1      47.041   8.359  12.235  0.00  0.00    +0.000 A 
ATOM      5  C   UNL     1      46.133   9.418  12.116  0.00  0.00    +0.000 A 
ATOM      6  C   UNL     1      44.842   9.182  11.652  0.00  0.00    +0.000 A 
ATOM      7  C   UNL     1      44.446   7.890  11.291  0.00  0.00    +0.000 A 
ATOM      8  C   UNL     1      45.318   6.791  11.417  0.00  0.00    +0.000 A 
ATOM      9  C   UNL     1      46.610   7.065  11.911  0.00  0.00    +0.000 A 
ATOM     10  F   UNL     1      47.479   6.057  12.092  0.00  0.00    +0.000 F 
BRANCH   8  11
ATOM     11  C   UNL     1      44.881   5.417  11.054  0.00  0.00    +0.000 A 
ATOM     12  C   UNL     1      45.148   4.863   9.788  0.00  0.00    +0.000 A 
ATOM     13  C   UNL     1      44.770   3.554   9.463  0.00  0.00    +0.000 A 
ATOM     14  C   UNL     1      44.091   2.774  10.390  0.00  0.00    +0.000 A 
ATOM     15  C   UNL     1      43.787   3.302  11.641  0.00  0.00    +0.000 A 
ATOM     16  C   UNL     1      44.182   4.604  11.968  0.00  0.00    +0.000 A 
ENDBRANCH   8  11
ENDBRANCH   1   4
BRANCH   1  17
ATOM     17  C   UNL     1      48.589   8.446  14.231  0.00  0.00    +0.000 C 
BRANCH  17  18
ATOM     18  O   UNL     1      49.616   7.496  14.582  0.00  0.00    +0.000 OA
BRANCH  18  22
ATOM     19  C   UNL     1      48.204   4.507  17.043  0.00  0.00    +0.000 A 
ATOM     20  C   UNL     1      49.274   5.297  17.463  0.00  0.00    +0.000 A 
ATOM     21  C   UNL     1      49.746   6.309  16.620  0.00  0.00    +0.000 A 
ATOM     22  C   UNL     1      49.130   6.487  15.391  0.00  0.00    +0.000 A 
ATOM     23  N   UNL     1      48.102   5.729  14.956  0.00  0.00    +0.000 NA
ATOM     24  C   UNL     1      47.666   4.750  15.786  0.00  0.00    +0.000 A 
BRANCH  19  26
ATOM     25  N   UNL     1      48.267   3.080  19.009  0.00  0.00    +0.000 N 
ATOM     26  C   UNL     1      47.628   3.407  17.845  0.00  0.00    +0.000 C 
ATOM     27  O   UNL     1      46.597   2.841  17.508  0.00  0.00    +0.000 OA
ATOM     28  H   UNL     1      47.791   2.411  19.602  0.00  0.00    +0.000 HD
ATOM     29  H   UNL     1      48.944   3.688  19.445  0.00  0.00    +0.000 HD
ENDBRANCH  19  26
ENDBRANCH  18  22
ENDBRANCH  17  18
ENDBRANCH   1  17
TORSDOF 6
ENDMDL
MODEL 9
REMARK VINA RESULT:    -6.833      3.769      6.387
REMARK INTER + INTRA:         -10.246
REMARK INTER:                  -8.770
REMARK INTRA:                  -1.476
REMARK UNBOUND:                -1.017
REMARK  Name = 
REMARK  6 active torsions:
REMARK  status: ('A' for Active; 'I' for Inactive)
REMARK    1  A    between atoms: C_2  and  C_4
REMARK    2  A    between atoms: C_7  and  O_8
REMARK    3  A    between atoms: O_8  and  C_9
REMARK    4  A    between atoms: C_9  and  C_10
REMARK    5  A    between atoms: C_10  and  C_13
REMARK    6  A    between atoms: C_17  and  C_18
REMARK                            x       y       z     vdW  Elec       q    Type
REMARK                         _______ _______ _______ _____ _____    ______ ____
ROOT
ATOM      1  C   UNL     1      48.176   8.974  13.858  0.00  0.00    +0.000 C 
ATOM      2  F   UNL     1      49.236   8.639  13.065  0.00  0.00    +0.000 F 
ATOM      3  F   UNL     1      48.129  10.344  13.827  0.00  0.00    +0.000 F 
ENDROOT
BRANCH   1   4
ATOM      4  C   UNL     1      48.351   8.457  15.272  0.00  0.00    +0.000 A 
ATOM      5  C   UNL     1      48.148   9.291  16.378  0.00  0.00    +0.000 A 
ATOM      6  C   UNL     1      48.285   8.785  17.668  0.00  0.00    +0.000 A 
ATOM      7  C   UNL     1      48.616   7.441  17.868  0.00  0.00    +0.000 A 
ATOM      8  C   UNL     1      48.854   6.572  16.786  0.00  0.00    +0.000 A 
ATOM      9  C   UNL     1      48.727   7.124  15.495  0.00  0.00    +0.000 A 
ATOM     10  F   UNL     1      48.977   6.361  14.418  0.00  0.00    +0.000 F 
BRANCH   8  11
ATOM     11  C   UNL     1      49.229   5.150  17.008  0.00  0.00    +0.000 A 
ATOM     12  C   UNL     1      48.313   4.101  16.810  0.00  0.00    +0.000 A 
ATOM     13  C   UNL     1      48.680   2.761  16.981  0.00  0.00    +0.000 A 
ATOM     14  C   UNL     1      49.970   2.437  17.382  0.00  0.00    +0.000 A 
ATOM     15  C   UNL     1      50.892   3.453  17.614  0.00  0.00    +0.000 A 
ATOM     16  C   UNL     1      50.526   4.790  17.424  0.00  0.00    +0.000 A 
ENDBRANCH   8  11
ENDBRANCH   1   4
BRANCH   1  17
ATOM     17  C   UNL     1      46.882   8.445  13.215  0.00  0.00    +0.000 C 
BRANCH  17  18
ATOM     18  O   UNL     1      47.155   7.754  11.980  0.00  0.00    +0.000 OA
BRANCH  18  22
ATOM     19  C   UNL     1      44.885   4.329  11.663  0.00  0.00    +0.000 A 
ATOM     20  C   UNL     1      45.292   4.772  12.923  0.00  0.00    +0.000 A 
ATOM     21  C   UNL     1      46.063   5.935  13.019  0.00  0.00    +0.000 A 
ATOM     22  C   UNL     1      46.397   6.607  11.853  0.00  0.00    +0.000 A 
ATOM     23  N   UNL     1      46.026   6.193  10.623  0.00  0.00    +0.000 NA
ATOM     24  C   UNL     1      45.286   5.060  10.553  0.00  0.00    +0.000 A 
BRANCH  19  26
ATOM     25  N   UNL     1      43.708   2.395  12.545  0.00  0.00    +0.000 N 
ATOM     26  C   UNL     1      44.076   3.113  11.442  0.00  0.00    +0.000 C 
ATOM     27  O   UNL     1      43.711   2.783  10.321  0.00  0.00    +0.000 OA
ATOM     28  H   UNL     1      43.055   1.637  12.383  0.00  0.00    +0.000 HD
ATOM     29  H   UNL     1      43.757   2.773  13.480  0.00  0.00    +0.000 HD
ENDBRANCH  19  26
ENDBRANCH  18  22
ENDBRANCH  17  18
ENDBRANCH   1  17
TORSDOF 6
ENDMDL
