MODEL 1
REMARK VINA RESULT:    -7.557      0.000      0.000
REMARK INTER + INTRA:         -10.078
REMARK INTER:                  -9.324
REMARK INTRA:                  -0.754
REMARK UNBOUND:                -0.754
REMARK  Name = 
REMARK  6 active torsions:
REMARK  status: ('A' for Active; 'I' for Inactive)
REMARK    1  A    between atoms: C_1  and  C_2
REMARK    2  A    between atoms: C_4  and  C_5
REMARK    3  A    between atoms: C_7  and  O_8
REMARK    4  A    between atoms: O_8  and  C_9
REMARK    5  A    between atoms: C_9  and  C_10
REMARK    6  A    between atoms: C_14  and  C_15
REMARK                            x       y       z     vdW  Elec       q    Type
REMARK                         _______ _______ _______ _____ _____    ______ ____
ROOT
ATOM      1  C   UNL     1      45.155   6.087  11.513  0.00  0.00    +0.000 A 
ATOM      2  C   UNL     1      43.791   5.875  11.745  0.00  0.00    +0.000 A 
ATOM      3  C   UNL     1      43.114   4.909  11.024  0.00  0.00    +0.000 A 
ATOM      4  N   UNL     1      43.689   4.143  10.077  0.00  0.00    +0.000 NA
ATOM      5  C   UNL     1      45.013   4.319   9.849  0.00  0.00    +0.000 A 
ATOM      6  C   UNL     1      45.759   5.266  10.552  0.00  0.00    +0.000 A 
ENDROOT
BRANCH   5   7
ATOM      7  C   UNL     1      45.602   3.479   8.792  0.00  0.00    +0.000 A 
ATOM      8  C   UNL     1      46.163   4.053   7.642  0.00  0.00    +0.000 A 
ATOM      9  C   UNL     1      46.733   3.233   6.680  0.00  0.00    +0.000 A 
ATOM     10  N   UNL     1      46.784   1.889   6.774  0.00  0.00    +0.000 NA
ATOM     11  C   UNL     1      46.229   1.351   7.875  0.00  0.00    +0.000 A 
ATOM     12  F   UNL     1      46.260   0.016   7.997  0.00  0.00    +0.000 F 
ATOM     13  C   UNL     1      45.638   2.083   8.889  0.00  0.00    +0.000 A 
ENDBRANCH   5   7
BRANCH   1  14
ATOM     14  C   UNL     1      45.924   7.184  12.230  0.00  0.00    +0.000 C 
ATOM     15  C   UNL     1      46.976   6.809  13.273  0.00  0.00    +0.000 C 
ATOM     16  C   UNL     1      47.405   7.299  11.933  0.00  0.00    +0.000 C 
BRANCH  14  17
ATOM     17  O   UNL     1      45.177   8.334  12.693  0.00  0.00    +0.000 OA
BRANCH  17  24
ATOM     18  C   UNL     1      42.928  10.734   9.123  0.00  0.00    +0.000 C 
ATOM     19  C   UNL     1      44.036  10.631  10.127  0.00  0.00    +0.000 A 
ATOM     20  C   UNL     1      45.007  11.626  10.249  0.00  0.00    +0.000 A 
ATOM     21  C   UNL     1      46.020  11.476  11.194  0.00  0.00    +0.000 A 
ATOM     22  C   UNL     1      47.097  12.508  11.344  0.00  0.00    +0.000 C 
ATOM     23  N   UNL     1      46.100  10.408  12.022  0.00  0.00    +0.000 NA
ATOM     24  C   UNL     1      45.157   9.456  11.885  0.00  0.00    +0.000 A 
ATOM     25  C   UNL     1      44.115   9.525  10.974  0.00  0.00    +0.000 A 
ENDBRANCH  17  24
ENDBRANCH  14  17
ENDBRANCH   1  14
TORSDOF 4
ENDMDL
MODEL 2
REMARK VINA RESULT:    -7.494      0.579      1.728
REMARK INTER + INTRA:         -10.000
REMARK INTER:                  -9.320
REMARK INTRA:                  -0.680
REMARK UNBOUND:                -0.754
REMARK  Name = 
REMARK  6 active torsions:
REMARK  status: ('A' for Active; 'I' for Inactive)
REMARK    1  A    between atoms: C_1  and  C_2
REMARK    2  A    between atoms: C_4  and  C_5
REMARK    3  A    between atoms: C_7  and  O_8
REMARK    4  A    between atoms: O_8  and  C_9
REMARK    5  A    between atoms: C_9  and  C_10
REMARK    6  A    between atoms: C_14  and  C_15
REMARK                            x       y       z     vdW  Elec       q    Type
REMARK                         _______ _______ _______ _____ _____    ______ ____
ROOT
ATOM      1  C   UNL     1      45.159   6.240  11.533  0.00  0.00    +0.000 A 
ATOM      2  C   UNL     1      43.794   6.042  11.772  0.00  0.00    +0.000 A 
ATOM      3  C   UNL     1      43.108   5.071  11.067  0.00  0.00    +0.000 A 
ATOM      4  N   UNL     1      43.674   4.286  10.131  0.00  0.00    +0.000 NA
ATOM      5  C   UNL     1      44.999   4.449   9.897  0.00  0.00    +0.000 A 
ATOM      6  C   UNL     1      45.755   5.400  10.583  0.00  0.00    +0.000 A 
ENDROOT
BRANCH   5   7
ATOM      7  C   UNL     1      45.578   3.588   8.851  0.00  0.00    +0.000 A 
ATOM      8  C   UNL     1      46.173   4.141   7.707  0.00  0.00    +0.000 A 
ATOM      9  C   UNL     1      46.732   3.301   6.756  0.00  0.00    +0.000 A 
ATOM     10  N   UNL     1      46.742   1.957   6.855  0.00  0.00    +0.000 NA
ATOM     11  C   UNL     1      46.157   1.439   7.950  0.00  0.00    +0.000 A 
ATOM     12  F   UNL     1      46.147   0.104   8.076  0.00  0.00    +0.000 F 
ATOM     13  C   UNL     1      45.572   2.191   8.953  0.00  0.00    +0.000 A 
ENDBRANCH   5   7
BRANCH   1  14
ATOM     14  C   UNL     1      45.939   7.341  12.231  0.00  0.00    +0.000 C 
ATOM     15  C   UNL     1      46.971   6.975  13.297  0.00  0.00    +0.000 C 
ATOM     16  C   UNL     1      47.425   7.423  11.951  0.00  0.00    +0.000 C 
BRANCH  14  17
ATOM     17  O   UNL     1      45.207   8.516  12.656  0.00  0.00    +0.000 OA
BRANCH  17  24
ATOM     18  C   UNL     1      47.109  12.647  10.959  0.00  0.00    +0.000 C 
ATOM     19  C   UNL     1      46.043  11.595  10.928  0.00  0.00    +0.000 A 
ATOM     20  C   UNL     1      44.978  11.660  10.027  0.00  0.00    +0.000 A 
ATOM     21  C   UNL     1      44.010  10.657  10.046  0.00  0.00    +0.000 A 
ATOM     22  C   UNL     1      42.837  10.698   9.113  0.00  0.00    +0.000 C 
ATOM     23  N   UNL     1      44.060   9.602  10.893  0.00  0.00    +0.000 NA
ATOM     24  C   UNL     1      45.092   9.561  11.758  0.00  0.00    +0.000 A 
ATOM     25  C   UNL     1      46.099  10.513  11.807  0.00  0.00    +0.000 A 
ENDBRANCH  17  24
ENDBRANCH  14  17
ENDBRANCH   1  14
TORSDOF 4
ENDMDL
MODEL 3
REMARK VINA RESULT:    -7.086      2.399      4.292
REMARK INTER + INTRA:          -9.497
REMARK INTER:                  -8.838
REMARK INTRA:                  -0.659
REMARK UNBOUND:                -0.754
REMARK  Name = 
REMARK  6 active torsions:
REMARK  status: ('A' for Active; 'I' for Inactive)
REMARK    1  A    between atoms: C_1  and  C_2
REMARK    2  A    between atoms: C_4  and  C_5
REMARK    3  A    between atoms: C_7  and  O_8
REMARK    4  A    between atoms: O_8  and  C_9
REMARK    5  A    between atoms: C_9  and  C_10
REMARK    6  A    between atoms: C_14  and  C_15
REMARK                            x       y       z     vdW  Elec       q    Type
REMARK                         _______ _______ _______ _____ _____    ______ ____
ROOT
ATOM      1  C   UNL     1      44.915   5.218  11.081  0.00  0.00    +0.000 A 
ATOM      2  C   UNL     1      43.761   4.568  11.534  0.00  0.00    +0.000 A 
ATOM      3  C   UNL     1      43.358   3.389  10.935  0.00  0.00    +0.000 A 
ATOM      4  N   UNL     1      44.010   2.810   9.908  0.00  0.00    +0.000 NA
ATOM      5  C   UNL     1      45.140   3.414   9.467  0.00  0.00    +0.000 A 
ATOM      6  C   UNL     1      45.611   4.598  10.036  0.00  0.00    +0.000 A 
ENDROOT
BRANCH   5   7
ATOM      7  C   UNL     1      45.814   2.765   8.328  0.00  0.00    +0.000 A 
ATOM      8  C   UNL     1      46.201   1.419   8.389  0.00  0.00    +0.000 A 
ATOM      9  C   UNL     1      46.809   0.834   7.289  0.00  0.00    +0.000 A 
ATOM     10  N   UNL     1      47.063   1.486   6.137  0.00  0.00    +0.000 NA
ATOM     11  C   UNL     1      46.700   2.781   6.097  0.00  0.00    +0.000 A 
ATOM     12  F   UNL     1      46.942   3.459   4.966  0.00  0.00    +0.000 F 
ATOM     13  C   UNL     1      46.089   3.453   7.140  0.00  0.00    +0.000 A 
ENDBRANCH   5   7
BRANCH   1  14
ATOM     14  C   UNL     1      45.358   6.551  11.661  0.00  0.00    +0.000 C 
ATOM     15  C   UNL     1      44.675   7.838  11.202  0.00  0.00    +0.000 C 
ATOM     16  C   UNL     1      44.374   7.281  12.550  0.00  0.00    +0.000 C 
BRANCH  14  17
ATOM     17  O   UNL     1      46.781   6.784  11.794  0.00  0.00    +0.000 OA
BRANCH  17  24
ATOM     18  C   UNL     1      47.261   3.978  15.726  0.00  0.00    +0.000 C 
ATOM     19  C   UNL     1      47.574   5.240  14.980  0.00  0.00    +0.000 A 
ATOM     20  C   UNL     1      48.401   6.224  15.523  0.00  0.00    +0.000 A 
ATOM     21  C   UNL     1      48.652   7.382  14.788  0.00  0.00    +0.000 A 
ATOM     22  C   UNL     1      49.515   8.475  15.342  0.00  0.00    +0.000 C 
ATOM     23  N   UNL     1      48.142   7.593  13.553  0.00  0.00    +0.000 NA
ATOM     24  C   UNL     1      47.342   6.634  13.049  0.00  0.00    +0.000 A 
ATOM     25  C   UNL     1      47.040   5.453  13.709  0.00  0.00    +0.000 A 
ENDBRANCH  17  24
ENDBRANCH  14  17
ENDBRANCH   1  14
TORSDOF 4
ENDMDL
MODEL 4
REMARK VINA RESULT:    -6.831      3.632      6.320
REMARK INTER + INTRA:          -9.182
REMARK INTER:                  -8.380
REMARK INTRA:                  -0.802
REMARK UNBOUND:                -0.754
REMARK  Name = 
REMARK  6 active torsions:
REMARK  status: ('A' for Active; 'I' for Inactive)
REMARK    1  A    between atoms: C_1  and  C_2
REMARK    2  A    between atoms: C_4  and  C_5
REMARK    3  A    between atoms: C_7  and  O_8
REMARK    4  A    between atoms: O_8  and  C_9
REMARK    5  A    between atoms: C_9  and  C_10
REMARK    6  A    between atoms: C_14  and  C_15
REMARK                            x       y       z     vdW  Elec       q    Type
REMARK                         _______ _______ _______ _____ _____    ______ ____
ROOT
ATOM      1  C   UNL     1      47.725   7.633  13.519  0.00  0.00    +0.000 A 
ATOM      2  C   UNL     1      46.842   8.718  13.574  0.00  0.00    +0.000 A 
ATOM      3  C   UNL     1      45.607   8.629  12.959  0.00  0.00    +0.000 A 
ATOM      4  N   UNL     1      45.185   7.544  12.281  0.00  0.00    +0.000 NA
ATOM      5  C   UNL     1      46.017   6.476  12.232  0.00  0.00    +0.000 A 
ATOM      6  C   UNL     1      47.272   6.493  12.842  0.00  0.00    +0.000 A 
ENDROOT
BRANCH   5   7
ATOM      7  C   UNL     1      45.531   5.316  11.464  0.00  0.00    +0.000 A 
ATOM      8  C   UNL     1      45.094   4.152  12.111  0.00  0.00    +0.000 A 
ATOM      9  C   UNL     1      44.618   3.090  11.357  0.00  0.00    +0.000 A 
ATOM     10  N   UNL     1      44.548   3.098  10.011  0.00  0.00    +0.000 NA
ATOM     11  C   UNL     1      44.985   4.215   9.402  0.00  0.00    +0.000 A 
ATOM     12  F   UNL     1      44.931   4.253   8.062  0.00  0.00    +0.000 F 
ATOM     13  C   UNL     1      45.476   5.325  10.064  0.00  0.00    +0.000 A 
ENDBRANCH   5   7
BRANCH   1  14
ATOM     14  C   UNL     1      49.119   7.709  14.118  0.00  0.00    +0.000 C 
ATOM     15  C   UNL     1      50.254   8.339  13.312  0.00  0.00    +0.000 C 
ATOM     16  C   UNL     1      49.655   9.085  14.454  0.00  0.00    +0.000 C 
BRANCH  14  17
ATOM     17  O   UNL     1      49.616   6.539  14.811  0.00  0.00    +0.000 OA
BRANCH  17  24
ATOM     18  C   UNL     1      48.217   7.794  19.286  0.00  0.00    +0.000 C 
ATOM     19  C   UNL     1      48.283   6.790  18.176  0.00  0.00    +0.000 A 
ATOM     20  C   UNL     1      47.712   5.522  18.302  0.00  0.00    +0.000 A 
ATOM     21  C   UNL     1      47.809   4.625  17.240  0.00  0.00    +0.000 A 
ATOM     22  C   UNL     1      47.232   3.245  17.340  0.00  0.00    +0.000 C 
ATOM     23  N   UNL     1      48.421   4.931  16.072  0.00  0.00    +0.000 NA
ATOM     24  C   UNL     1      48.970   6.157  15.972  0.00  0.00    +0.000 A 
ATOM     25  C   UNL     1      48.919   7.112  16.976  0.00  0.00    +0.000 A 
ENDBRANCH  17  24
ENDBRANCH  14  17
ENDBRANCH   1  14
TORSDOF 4
ENDMDL
MODEL 5
REMARK VINA RESULT:    -6.632      3.339      5.820
REMARK INTER + INTRA:          -8.937
REMARK INTER:                  -8.207
REMARK INTRA:                  -0.730
REMARK UNBOUND:                -0.754
REMARK  Name = 
REMARK  6 active torsions:
REMARK  status: ('A' for Active; 'I' for Inactive)
REMARK    1  A    between atoms: C_1  and  C_2
REMARK    2  A    between atoms: C_4  and  C_5
REMARK    3  A    between atoms: C_7  and  O_8
REMARK    4  A    between atoms: O_8  and  C_9
REMARK    5  A    between atoms: C_9  and  C_10
REMARK    6  A    between atoms: C_14  and  C_15
REMARK                            x       y       z     vdW  Elec       q    Type
REMARK                         _______ _______ _______ _____ _____    ______ ____
ROOT
ATOM      1  C   UNL     1      47.268   7.521  13.022  0.00  0.00    +0.000 A 
ATOM      2  C   UNL     1      46.336   8.564  13.083  0.00  0.00    +0.000 A 
ATOM      3  C   UNL     1      45.116   8.432  12.447  0.00  0.00    +0.000 A 
ATOM      4  N   UNL     1      44.753   7.343  11.744  0.00  0.00    +0.000 NA
ATOM      5  C   UNL     1      45.633   6.314  11.688  0.00  0.00    +0.000 A 
ATOM      6  C   UNL     1      46.876   6.375  12.319  0.00  0.00    +0.000 A 
ENDROOT
BRANCH   5   7
ATOM      7  C   UNL     1      45.211   5.148  10.892  0.00  0.00    +0.000 A 
ATOM      8  C   UNL     1      44.494   4.094  11.476  0.00  0.00    +0.000 A 
ATOM      9  C   UNL     1      44.090   3.025  10.690  0.00  0.00    +0.000 A 
ATOM     10  N   UNL     1      44.348   2.926   9.371  0.00  0.00    +0.000 NA
ATOM     11  C   UNL     1      45.048   3.937   8.825  0.00  0.00    +0.000 A 
ATOM     12  F   UNL     1      45.322   3.866   7.514  0.00  0.00    +0.000 F 
ATOM     13  C   UNL     1      45.494   5.044   9.524  0.00  0.00    +0.000 A 
ENDBRANCH   5   7
BRANCH   1  14
ATOM     14  C   UNL     1      48.648   7.648  13.645  0.00  0.00    +0.000 C 
ATOM     15  C   UNL     1      49.770   8.328  12.862  0.00  0.00    +0.000 C 
ATOM     16  C   UNL     1      49.124   9.041  13.998  0.00  0.00    +0.000 C 
BRANCH  14  17
ATOM     17  O   UNL     1      49.179   6.493  14.339  0.00  0.00    +0.000 OA
BRANCH  17  24
ATOM     18  C   UNL     1      47.017   3.417  17.409  0.00  0.00    +0.000 C 
ATOM     19  C   UNL     1      47.678   4.734  17.134  0.00  0.00    +0.000 A 
ATOM     20  C   UNL     1      47.851   5.689  18.138  0.00  0.00    +0.000 A 
ATOM     21  C   UNL     1      48.465   6.900  17.825  0.00  0.00    +0.000 A 
ATOM     22  C   UNL     1      48.651   7.963  18.865  0.00  0.00    +0.000 C 
ATOM     23  N   UNL     1      48.923   7.193  16.586  0.00  0.00    +0.000 NA
ATOM     24  C   UNL     1      48.741   6.262  15.630  0.00  0.00    +0.000 A 
ATOM     25  C   UNL     1      48.143   5.031  15.853  0.00  0.00    +0.000 A 
ENDBRANCH  17  24
ENDBRANCH  14  17
ENDBRANCH   1  14
TORSDOF 4
ENDMDL
MODEL 6
REMARK VINA RESULT:    -6.159      5.232      7.639
REMARK INTER + INTRA:          -8.353
REMARK INTER:                  -7.694
REMARK INTRA:                  -0.659
REMARK UNBOUND:                -0.754
REMARK  Name = 
REMARK  6 active torsions:
REMARK  status: ('A' for Active; 'I' for Inactive)
REMARK    1  A    between atoms: C_1  and  C_2
REMARK    2  A    between atoms: C_4  and  C_5
REMARK    3  A    between atoms: C_7  and  O_8
REMARK    4  A    between atoms: O_8  and  C_9
REMARK    5  A    between atoms: C_9  and  C_10
REMARK    6  A    between atoms: C_14  and  C_15
REMARK                            x       y       z     vdW  Elec       q    Type
REMARK                         _______ _______ _______ _____ _____    ______ ____
ROOT
ATOM      1  C   UNL     1      47.698   4.939  15.682  0.00  0.00    +0.000 A 
ATOM      2  C   UNL     1      48.418   6.032  15.187  0.00  0.00    +0.000 A 
ATOM      3  C   UNL     1      48.048   6.611  13.987  0.00  0.00    +0.000 A 
ATOM      4  N   UNL     1      47.021   6.177  13.232  0.00  0.00    +0.000 NA
ATOM      5  C   UNL     1      46.300   5.130  13.702  0.00  0.00    +0.000 A 
ATOM      6  C   UNL     1      46.609   4.509  14.912  0.00  0.00    +0.000 A 
ENDROOT
BRANCH   5   7
ATOM      7  C   UNL     1      45.198   4.669  12.839  0.00  0.00    +0.000 A 
ATOM      8  C   UNL     1      43.913   5.218  12.952  0.00  0.00    +0.000 A 
ATOM      9  C   UNL     1      42.907   4.778  12.105  0.00  0.00    +0.000 A 
ATOM     10  N   UNL     1      43.082   3.833  11.159  0.00  0.00    +0.000 NA
ATOM     11  C   UNL     1      44.316   3.305  11.072  0.00  0.00    +0.000 A 
ATOM     12  F   UNL     1      44.521   2.359  10.142  0.00  0.00    +0.000 F 
ATOM     13  C   UNL     1      45.383   3.676  11.869  0.00  0.00    +0.000 A 
ENDBRANCH   5   7
BRANCH   1  14
ATOM     14  C   UNL     1      48.109   4.226  16.959  0.00  0.00    +0.000 C 
ATOM     15  C   UNL     1      48.552   2.765  16.900  0.00  0.00    +0.000 C 
ATOM     16  C   UNL     1      49.566   3.838  17.099  0.00  0.00    +0.000 C 
BRANCH  14  17
ATOM     17  O   UNL     1      47.288   4.431  18.134  0.00  0.00    +0.000 OA
BRANCH  17  24
ATOM     18  C   UNL     1      47.304   9.035  19.672  0.00  0.00    +0.000 C 
ATOM     19  C   UNL     1      47.731   7.607  19.831  0.00  0.00    +0.000 A 
ATOM     20  C   UNL     1      48.542   7.200  20.892  0.00  0.00    +0.000 A 
ATOM     21  C   UNL     1      48.915   5.860  20.987  0.00  0.00    +0.000 A 
ATOM     22  C   UNL     1      49.803   5.383  22.096  0.00  0.00    +0.000 C 
ATOM     23  N   UNL     1      48.511   4.920  20.101  0.00  0.00    +0.000 NA
ATOM     24  C   UNL     1      47.735   5.334  19.081  0.00  0.00    +0.000 A 
ATOM     25  C   UNL     1      47.315   6.644  18.911  0.00  0.00    +0.000 A 
ENDBRANCH  17  24
ENDBRANCH  14  17
ENDBRANCH   1  14
TORSDOF 4
ENDMDL
MODEL 7
REMARK VINA RESULT:    -6.121      3.594      5.811
REMARK INTER + INTRA:          -8.306
REMARK INTER:                  -7.608
REMARK INTRA:                  -0.698
REMARK UNBOUND:                -0.754
REMARK  Name = 
REMARK  6 active torsions:
REMARK  status: ('A' for Active; 'I' for Inactive)
REMARK    1  A    between atoms: C_1  and  C_2
REMARK    2  A    between atoms: C_4  and  C_5
REMARK    3  A    between atoms: C_7  and  O_8
REMARK    4  A    between atoms: O_8  and  C_9
REMARK    5  A    between atoms: C_9  and  C_10
REMARK    6  A    between atoms: C_14  and  C_15
REMARK                            x       y       z     vdW  Elec       q    Type
REMARK                         _______ _______ _______ _____ _____    ______ ____
ROOT
ATOM      1  C   UNL     1      47.588   7.635  12.437  0.00  0.00    +0.000 A 
ATOM      2  C   UNL     1      46.729   8.736  12.535  0.00  0.00    +0.000 A 
ATOM      3  C   UNL     1      45.416   8.621  12.118  0.00  0.00    +0.000 A 
ATOM      4  N   UNL     1      44.892   7.495  11.598  0.00  0.00    +0.000 NA
ATOM      5  C   UNL     1      45.701   6.412  11.511  0.00  0.00    +0.000 A 
ATOM      6  C   UNL     1      47.033   6.454  11.927  0.00  0.00    +0.000 A 
ENDROOT
BRANCH   5   7
ATOM      7  C   UNL     1      45.101   5.205  10.916  0.00  0.00    +0.000 A 
ATOM      8  C   UNL     1      45.315   4.879   9.569  0.00  0.00    +0.000 A 
ATOM      9  C   UNL     1      44.756   3.721   9.051  0.00  0.00    +0.000 A 
ATOM     10  N   UNL     1      44.000   2.867   9.769  0.00  0.00    +0.000 NA
ATOM     11  C   UNL     1      43.791   3.198  11.055  0.00  0.00    +0.000 A 
ATOM     12  F   UNL     1      43.039   2.369  11.796  0.00  0.00    +0.000 F 
ATOM     13  C   UNL     1      44.304   4.329  11.664  0.00  0.00    +0.000 A 
ENDBRANCH   5   7
BRANCH   1  14
ATOM     14  C   UNL     1      49.056   7.733  12.816  0.00  0.00    +0.000 C 
ATOM     15  C   UNL     1      50.115   7.819  11.719  0.00  0.00    +0.000 C 
ATOM     16  C   UNL     1      49.767   9.033  12.507  0.00  0.00    +0.000 C 
BRANCH  14  17
ATOM     17  O   UNL     1      49.532   6.871  13.877  0.00  0.00    +0.000 OA
BRANCH  17  24
ATOM     18  C   UNL     1      52.751   7.875  17.369  0.00  0.00    +0.000 C 
ATOM     19  C   UNL     1      51.354   7.932  16.829  0.00  0.00    +0.000 A 
ATOM     20  C   UNL     1      50.320   8.540  17.543  0.00  0.00    +0.000 A 
ATOM     21  C   UNL     1      49.037   8.559  16.997  0.00  0.00    +0.000 A 
ATOM     22  C   UNL     1      47.892   9.180  17.738  0.00  0.00    +0.000 C 
ATOM     23  N   UNL     1      48.746   8.027  15.787  0.00  0.00    +0.000 NA
ATOM     24  C   UNL     1      49.757   7.440  15.117  0.00  0.00    +0.000 A 
ATOM     25  C   UNL     1      51.060   7.377  15.584  0.00  0.00    +0.000 A 
ENDBRANCH  17  24
ENDBRANCH  14  17
ENDBRANCH   1  14
TORSDOF 4
ENDMDL
MODEL 8
REMARK VINA RESULT:    -6.099      4.217      7.277
REMARK INTER + INTRA:          -8.279
REMARK INTER:                  -7.828
REMARK INTRA:                  -0.451
REMARK UNBOUND:                -0.754
REMARK  Name = 
REMARK  6 active torsions:
REMARK  status: ('A' for Active; 'I' for Inactive)
REMARK    1  A    between atoms: C_1  and  C_2
REMARK    2  A    between atoms: C_4  and  C_5
REMARK    3  A    between atoms: C_7  and  O_8
REMARK    4  A    between atoms: O_8  and  C_9
REMARK    5  A    between atoms: C_9  and  C_10
REMARK    6  A    between atoms: C_14  and  C_15
REMARK                            x       y       z     vdW  Elec       q    Type
REMARK                         _______ _______ _______ _____ _____    ______ ____
ROOT
ATOM      1  C   UNL     1      48.119   7.842  14.034  0.00  0.00    +0.000 A 
ATOM      2  C   UNL     1      48.213   8.973  14.853  0.00  0.00    +0.000 A 
ATOM      3  C   UNL     1      48.464   8.823  16.204  0.00  0.00    +0.000 A 
ATOM      4  N   UNL     1      48.619   7.629  16.809  0.00  0.00    +0.000 NA
ATOM      5  C   UNL     1      48.550   6.522  16.031  0.00  0.00    +0.000 A 
ATOM      6  C   UNL     1      48.314   6.602  14.658  0.00  0.00    +0.000 A 
ENDROOT
BRANCH   5   7
ATOM      7  C   UNL     1      48.701   5.234  16.730  0.00  0.00    +0.000 A 
ATOM      8  C   UNL     1      49.937   4.843  17.266  0.00  0.00    +0.000 A 
ATOM      9  C   UNL     1      50.036   3.636  17.941  0.00  0.00    +0.000 A 
ATOM     10  N   UNL     1      49.002   2.789  18.118  0.00  0.00    +0.000 NA
ATOM     11  C   UNL     1      47.827   3.169  17.586  0.00  0.00    +0.000 A 
ATOM     12  F   UNL     1      46.779   2.346  17.743  0.00  0.00    +0.000 F 
ATOM     13  C   UNL     1      47.627   4.351  16.897  0.00  0.00    +0.000 A 
ENDBRANCH   5   7
BRANCH   1  14
ATOM     14  C   UNL     1      47.775   7.952  12.559  0.00  0.00    +0.000 C 
ATOM     15  C   UNL     1      48.613   8.855  11.654  0.00  0.00    +0.000 C 
ATOM     16  C   UNL     1      48.768   7.376  11.571  0.00  0.00    +0.000 C 
BRANCH  14  17
ATOM     17  O   UNL     1      46.378   8.081  12.204  0.00  0.00    +0.000 OA
BRANCH  17  24
ATOM     18  C   UNL     1      45.553   4.652   8.869  0.00  0.00    +0.000 C 
ATOM     19  C   UNL     1      45.295   5.242  10.222  0.00  0.00    +0.000 A 
ATOM     20  C   UNL     1      44.400   4.653  11.117  0.00  0.00    +0.000 A 
ATOM     21  C   UNL     1      44.192   5.249  12.361  0.00  0.00    +0.000 A 
ATOM     22  C   UNL     1      43.223   4.664  13.344  0.00  0.00    +0.000 C 
ATOM     23  N   UNL     1      44.834   6.373  12.754  0.00  0.00    +0.000 NA
ATOM     24  C   UNL     1      45.689   6.929  11.873  0.00  0.00    +0.000 A 
ATOM     25  C   UNL     1      45.957   6.404  10.619  0.00  0.00    +0.000 A 
ENDBRANCH  17  24
ENDBRANCH  14  17
ENDBRANCH   1  14
TORSDOF 4
ENDMDL
MODEL 9
REMARK VINA RESULT:    -6.098      4.549      7.626
REMARK INTER + INTRA:          -8.278
REMARK INTER:                  -7.635
REMARK INTRA:                  -0.642
REMARK UNBOUND:                -0.754
REMARK  Name = 
REMARK  6 active torsions:
REMARK  status: ('A' for Active; 'I' for Inactive)
REMARK    1  A    between atoms: C_1  and  C_2
REMARK    2  A    between atoms: C_4  and  C_5
REMARK    3  A    between atoms: C_7  and  O_8
REMARK    4  A    between atoms: O_8  and  C_9
REMARK    5  A    between atoms: C_9  and  C_10
REMARK    6  A    between atoms: C_14  and  C_15
REMARK                            x       y       z     vdW  Elec       q    Type
REMARK                         _______ _______ _______ _____ _____    ______ ____
ROOT
ATOM      1  C   UNL     1      48.762   7.368  13.918  0.00  0.00    +0.000 A 
ATOM      2  C   UNL     1      49.481   7.819  12.805  0.00  0.00    +0.000 A 
ATOM      3  C   UNL     1      48.966   7.637  11.535  0.00  0.00    +0.000 A 
ATOM      4  N   UNL     1      47.790   7.030  11.285  0.00  0.00    +0.000 NA
ATOM      5  C   UNL     1      47.069   6.603  12.350  0.00  0.00    +0.000 A 
ATOM      6  C   UNL     1      47.523   6.767  13.659  0.00  0.00    +0.000 A 
ENDROOT
BRANCH   5   7
ATOM      7  C   UNL     1      45.799   5.924  12.037  0.00  0.00    +0.000 A 
ATOM      8  C   UNL     1      45.498   5.522  10.728  0.00  0.00    +0.000 A 
ATOM      9  C   UNL     1      44.305   4.861  10.475  0.00  0.00    +0.000 A 
ATOM     10  N   UNL     1      43.391   4.574  11.423  0.00  0.00    +0.000 NA
ATOM     11  C   UNL     1      43.686   4.978  12.672  0.00  0.00    +0.000 A 
ATOM     12  F   UNL     1      42.795   4.710  13.638  0.00  0.00    +0.000 F 
ATOM     13  C   UNL     1      44.847   5.642  13.024  0.00  0.00    +0.000 A 
ENDBRANCH   5   7
BRANCH   1  14
ATOM     14  C   UNL     1      49.319   7.481  15.327  0.00  0.00    +0.000 C 
ATOM     15  C   UNL     1      49.845   8.827  15.825  0.00  0.00    +0.000 C 
ATOM     16  C   UNL     1      48.535   8.316  16.317  0.00  0.00    +0.000 C 
BRANCH  14  17
ATOM     17  O   UNL     1      50.194   6.424  15.789  0.00  0.00    +0.000 OA
BRANCH  17  24
ATOM     18  C   UNL     1      50.621   5.132  20.448  0.00  0.00    +0.000 C 
ATOM     19  C   UNL     1      49.957   4.989  19.112  0.00  0.00    +0.000 A 
ATOM     20  C   UNL     1      48.917   4.080  18.906  0.00  0.00    +0.000 A 
ATOM     21  C   UNL     1      48.340   3.983  17.640  0.00  0.00    +0.000 A 
ATOM     22  C   UNL     1      47.237   3.005  17.368  0.00  0.00    +0.000 C 
ATOM     23  N   UNL     1      48.730   4.748  16.594  0.00  0.00    +0.000 NA
ATOM     24  C   UNL     1      49.739   5.614  16.812  0.00  0.00    +0.000 A 
ATOM     25  C   UNL     1      50.368   5.777  18.037  0.00  0.00    +0.000 A 
ENDBRANCH  17  24
ENDBRANCH  14  17
ENDBRANCH   1  14
TORSDOF 4
ENDMDL
