MODEL 1
REMARK VINA RESULT:    -7.948      0.000      0.000
REMARK INTER + INTRA:         -11.053
REMARK INTER:                 -10.038
REMARK INTRA:                  -1.014
REMARK UNBOUND:                -1.014
REMARK  Name = 
REMARK  5 active torsions:
REMARK  status: ('A' for Active; 'I' for Inactive)
REMARK    1  A    between atoms: C_2  and  C_13
REMARK    2  A    between atoms: N_3  and  CA_4
REMARK    3  A    between atoms: CA_4  and  C_5
REMARK    4  A    between atoms: CA_4  and  C_7
REMARK    5  A    between atoms: C_5  and  O_6
REMARK                            x       y       z     vdW  Elec       q    Type
REMARK                         _______ _______ _______ _____ _____    ______ ____
ROOT
ATOM      1  O   UNL     1      42.847   6.030  11.299  0.00  0.00    +0.000 OA
ATOM      2  C   UNL     1      44.074   5.998  11.245  0.00  0.00    +0.000 C 
ATOM      3  N   UNL     1      44.758   4.992  10.627  0.00  0.00    +0.000 N 
ATOM      4  H   UNL     1      45.769   4.973  10.679  0.00  0.00    +0.000 HD
ENDROOT
BRANCH   2   5
ATOM      5  C   UNL     1      44.904   7.074  11.799  0.00  0.00    +0.000 A 
ATOM      6  C   UNL     1      44.663   8.397  11.456  0.00  0.00    +0.000 A 
ATOM      7  S   UNL     1      45.747   9.495  12.186  0.00  0.00    +0.000 S 
ATOM      8  C   UNL     1      46.545   8.244  13.021  0.00  0.00    +0.000 A 
ATOM      9  N   UNL     1      47.575   8.507  13.866  0.00  0.00    +0.000 NA
ATOM     10  C   UNL     1      48.072   7.468  14.450  0.00  0.00    +0.000 A 
ATOM     11  N   UNL     1      47.630   6.182  14.259  0.00  0.00    +0.000 N 
ATOM     12  C   UNL     1      46.598   5.866  13.408  0.00  0.00    +0.000 A 
ATOM     13  O   UNL     1      46.239   4.702  13.243  0.00  0.00    +0.000 OA
ATOM     14  C   UNL     1      46.006   7.004  12.731  0.00  0.00    +0.000 A 
ATOM     15  H   UNL     1      48.067   5.412  14.744  0.00  0.00    +0.000 HD
ENDBRANCH   2   5
BRANCH   3  16
ATOM     16  CA  UNL     1      44.130   3.811  10.057  0.00  0.00    +0.000 C 
BRANCH  16  17
ATOM     17  C   UNL     1      45.055   3.235   8.997  0.00  0.00    +0.000 A 
ATOM     18  C   UNL     1      45.698   4.094   8.092  0.00  0.00    +0.000 A 
ATOM     19  C   UNL     1      46.624   3.597   7.172  0.00  0.00    +0.000 A 
ATOM     20  C   UNL     1      46.927   2.237   7.147  0.00  0.00    +0.000 A 
ATOM     21  C   UNL     1      46.293   1.369   8.031  0.00  0.00    +0.000 A 
ATOM     22  C   UNL     1      45.359   1.863   8.944  0.00  0.00    +0.000 A 
ENDBRANCH  16  17
BRANCH  16  23
ATOM     23  C   UNL     1      43.719   2.809  11.162  0.00  0.00    +0.000 C 
BRANCH  23  24
ATOM     24  O   UNL     1      44.630   2.767  12.264  0.00  0.00    +0.000 OA
ATOM     25  H   UNL     1      44.578   1.869  12.647  0.00  0.00    +0.000 HD
ENDBRANCH  23  24
ENDBRANCH  16  23
ENDBRANCH   3  16
TORSDOF 5
ENDMDL
MODEL 2
REMARK VINA RESULT:    -7.841      1.464      1.763
REMARK INTER + INTRA:         -10.919
REMARK INTER:                  -9.867
REMARK INTRA:                  -1.052
REMARK UNBOUND:                -1.014
REMARK  Name = 
REMARK  5 active torsions:
REMARK  status: ('A' for Active; 'I' for Inactive)
REMARK    1  A    between atoms: C_2  and  C_13
REMARK    2  A    between atoms: N_3  and  CA_4
REMARK    3  A    between atoms: CA_4  and  C_5
REMARK    4  A    between atoms: CA_4  and  C_7
REMARK    5  A    between atoms: C_5  and  O_6
REMARK                            x       y       z     vdW  Elec       q    Type
REMARK                         _______ _______ _______ _____ _____    ______ ____
ROOT
ATOM      1  O   UNL     1      44.763   6.796  11.014  0.00  0.00    +0.000 OA
ATOM      2  C   UNL     1      45.589   5.993  11.442  0.00  0.00    +0.000 C 
ATOM      3  N   UNL     1      45.582   4.673  11.095  0.00  0.00    +0.000 N 
ATOM      4  H   UNL     1      46.236   4.040  11.536  0.00  0.00    +0.000 HD
ENDROOT
BRANCH   2   5
ATOM      5  C   UNL     1      46.688   6.404  12.323  0.00  0.00    +0.000 A 
ATOM      6  C   UNL     1      47.505   7.472  11.979  0.00  0.00    +0.000 A 
ATOM      7  S   UNL     1      48.735   7.781  13.121  0.00  0.00    +0.000 S 
ATOM      8  C   UNL     1      48.188   6.529  14.137  0.00  0.00    +0.000 A 
ATOM      9  N   UNL     1      48.794   6.270  15.324  0.00  0.00    +0.000 NA
ATOM     10  C   UNL     1      48.262   5.309  16.003  0.00  0.00    +0.000 A 
ATOM     11  N   UNL     1      47.173   4.577  15.595  0.00  0.00    +0.000 N 
ATOM     12  C   UNL     1      46.533   4.796  14.399  0.00  0.00    +0.000 A 
ATOM     13  O   UNL     1      45.573   4.111  14.053  0.00  0.00    +0.000 OA
ATOM     14  C   UNL     1      47.096   5.870  13.602  0.00  0.00    +0.000 A 
ATOM     15  H   UNL     1      46.809   3.835  16.173  0.00  0.00    +0.000 HD
ENDBRANCH   2   5
BRANCH   3  16
ATOM     16  CA  UNL     1      44.555   4.054  10.273  0.00  0.00    +0.000 C 
BRANCH  16  17
ATOM     17  C   UNL     1      45.231   3.338   9.113  0.00  0.00    +0.000 A 
ATOM     18  C   UNL     1      45.765   4.084   8.051  0.00  0.00    +0.000 A 
ATOM     19  C   UNL     1      46.472   3.456   7.024  0.00  0.00    +0.000 A 
ATOM     20  C   UNL     1      46.662   2.075   7.045  0.00  0.00    +0.000 A 
ATOM     21  C   UNL     1      46.132   1.319   8.085  0.00  0.00    +0.000 A 
ATOM     22  C   UNL     1      45.416   1.944   9.109  0.00  0.00    +0.000 A 
ENDBRANCH  16  17
BRANCH  16  23
ATOM     23  C   UNL     1      43.623   3.158  11.123  0.00  0.00    +0.000 C 
BRANCH  23  24
ATOM     24  O   UNL     1      44.274   2.563  12.251  0.00  0.00    +0.000 OA
ATOM     25  H   UNL     1      43.605   2.481  12.958  0.00  0.00    +0.000 HD
ENDBRANCH  23  24
ENDBRANCH  16  23
ENDBRANCH   3  16
TORSDOF 5
ENDMDL
MODEL 3
REMARK VINA RESULT:    -6.904      1.649      2.570
REMARK INTER + INTRA:          -9.735
REMARK INTER:                  -9.663
REMARK INTRA:                  -0.072
REMARK UNBOUND:                -1.014
REMARK  Name = 
REMARK  5 active torsions:
REMARK  status: ('A' for Active; 'I' for Inactive)
REMARK    1  A    between atoms: C_2  and  C_13
REMARK    2  A    between atoms: N_3  and  CA_4
REMARK    3  A    between atoms: CA_4  and  C_5
REMARK    4  A    between atoms: CA_4  and  C_7
REMARK    5  A    between atoms: C_5  and  O_6
REMARK                            x       y       z     vdW  Elec       q    Type
REMARK                         _______ _______ _______ _____ _____    ______ ____
ROOT
ATOM      1  O   UNL     1      45.497   4.201  12.222  0.00  0.00    +0.000 OA
ATOM      2  C   UNL     1      45.485   5.137  11.426  0.00  0.00    +0.000 C 
ATOM      3  N   UNL     1      44.881   5.057  10.205  0.00  0.00    +0.000 N 
ATOM      4  H   UNL     1      44.967   5.829   9.556  0.00  0.00    +0.000 HD
ENDROOT
BRANCH   2   5
ATOM      5  C   UNL     1      46.075   6.440  11.750  0.00  0.00    +0.000 A 
ATOM      6  C   UNL     1      47.412   6.539  12.109  0.00  0.00    +0.000 A 
ATOM      7  S   UNL     1      47.903   8.134  12.466  0.00  0.00    +0.000 S 
ATOM      8  C   UNL     1      46.358   8.753  12.109  0.00  0.00    +0.000 A 
ATOM      9  N   UNL     1      46.097  10.084  12.185  0.00  0.00    +0.000 NA
ATOM     10  C   UNL     1      44.891  10.416  11.865  0.00  0.00    +0.000 A 
ATOM     11  N   UNL     1      43.916   9.530  11.477  0.00  0.00    +0.000 N 
ATOM     12  C   UNL     1      44.129   8.175  11.394  0.00  0.00    +0.000 A 
ATOM     13  O   UNL     1      43.231   7.405  11.063  0.00  0.00    +0.000 OA
ATOM     14  C   UNL     1      45.473   7.754  11.743  0.00  0.00    +0.000 A 
ATOM     15  H   UNL     1      42.990   9.856  11.244  0.00  0.00    +0.000 HD
ENDBRANCH   2   5
BRANCH   3  16
ATOM     16  CA  UNL     1      44.281   3.845   9.672  0.00  0.00    +0.000 C 
BRANCH  16  17
ATOM     17  C   UNL     1      45.262   3.206   8.701  0.00  0.00    +0.000 A 
ATOM     18  C   UNL     1      45.970   4.011   7.794  0.00  0.00    +0.000 A 
ATOM     19  C   UNL     1      46.943   3.459   6.960  0.00  0.00    +0.000 A 
ATOM     20  C   UNL     1      47.230   2.096   7.023  0.00  0.00    +0.000 A 
ATOM     21  C   UNL     1      46.532   1.282   7.908  0.00  0.00    +0.000 A 
ATOM     22  C   UNL     1      45.551   1.830   8.737  0.00  0.00    +0.000 A 
ENDBRANCH  16  17
BRANCH  16  23
ATOM     23  C   UNL     1      43.805   2.910  10.809  0.00  0.00    +0.000 C 
BRANCH  23  24
ATOM     24  O   UNL     1      42.618   3.367  11.466  0.00  0.00    +0.000 OA
ATOM     25  H   UNL     1      42.286   2.624  12.009  0.00  0.00    +0.000 HD
ENDBRANCH  23  24
ENDBRANCH  16  23
ENDBRANCH   3  16
TORSDOF 5
ENDMDL
MODEL 4
REMARK VINA RESULT:    -6.825      3.009      7.326
REMARK INTER + INTRA:          -9.635
REMARK INTER:                  -8.551
REMARK INTRA:                  -1.084
REMARK UNBOUND:                -1.014
REMARK  Name = 
REMARK  5 active torsions:
REMARK  status: ('A' for Active; 'I' for Inactive)
REMARK    1  A    between atoms: C_2  and  C_13
REMARK    2  A    between atoms: N_3  and  CA_4
REMARK    3  A    between atoms: CA_4  and  C_5
REMARK    4  A    between atoms: CA_4  and  C_7
REMARK    5  A    between atoms: C_5  and  O_6
REMARK                            x       y       z     vdW  Elec       q    Type
REMARK                         _______ _______ _______ _____ _____    ______ ____
ROOT
ATOM      1  O   UNL     1      48.661   6.154  13.781  0.00  0.00    +0.000 OA
ATOM      2  C   UNL     1      47.527   5.753  14.030  0.00  0.00    +0.000 C 
ATOM      3  N   UNL     1      47.205   5.135  15.203  0.00  0.00    +0.000 N 
ATOM      4  H   UNL     1      46.275   4.755  15.326  0.00  0.00    +0.000 HD
ENDROOT
BRANCH   2   5
ATOM      5  C   UNL     1      46.409   5.957  13.102  0.00  0.00    +0.000 A 
ATOM      6  C   UNL     1      46.072   7.234  12.675  0.00  0.00    +0.000 A 
ATOM      7  S   UNL     1      44.735   7.265  11.615  0.00  0.00    +0.000 S 
ATOM      8  C   UNL     1      44.590   5.569  11.654  0.00  0.00    +0.000 A 
ATOM      9  N   UNL     1      43.641   4.926  10.925  0.00  0.00    +0.000 NA
ATOM     10  C   UNL     1      43.660   3.639  11.031  0.00  0.00    +0.000 A 
ATOM     11  N   UNL     1      44.547   2.934  11.808  0.00  0.00    +0.000 N 
ATOM     12  C   UNL     1      45.517   3.541  12.569  0.00  0.00    +0.000 A 
ATOM     13  O   UNL     1      46.283   2.884  13.271  0.00  0.00    +0.000 OA
ATOM     14  C   UNL     1      45.535   4.989  12.480  0.00  0.00    +0.000 A 
ATOM     15  H   UNL     1      44.504   1.927  11.850  0.00  0.00    +0.000 HD
ENDBRANCH   2   5
BRANCH   3  16
ATOM     16  CA  UNL     1      48.171   4.794  16.235  0.00  0.00    +0.000 C 
BRANCH  16  17
ATOM     17  C   UNL     1      47.996   5.759  17.399  0.00  0.00    +0.000 A 
ATOM     18  C   UNL     1      47.280   5.355  18.536  0.00  0.00    +0.000 A 
ATOM     19  C   UNL     1      47.187   6.188  19.653  0.00  0.00    +0.000 A 
ATOM     20  C   UNL     1      47.813   7.433  19.653  0.00  0.00    +0.000 A 
ATOM     21  C   UNL     1      48.520   7.853  18.531  0.00  0.00    +0.000 A 
ATOM     22  C   UNL     1      48.605   7.026  17.410  0.00  0.00    +0.000 A 
ENDBRANCH  16  17
BRANCH  16  23
ATOM     23  C   UNL     1      48.074   3.300  16.622  0.00  0.00    +0.000 C 
BRANCH  23  24
ATOM     24  O   UNL     1      48.367   2.409  15.540  0.00  0.00    +0.000 OA
ATOM     25  H   UNL     1      48.165   2.887  14.712  0.00  0.00    +0.000 HD
ENDBRANCH  23  24
ENDBRANCH  16  23
ENDBRANCH   3  16
TORSDOF 5
ENDMDL
MODEL 5
REMARK VINA RESULT:    -6.398      3.821      7.008
REMARK INTER + INTRA:          -9.095
REMARK INTER:                  -8.698
REMARK INTRA:                  -0.397
REMARK UNBOUND:                -1.014
REMARK  Name = 
REMARK  5 active torsions:
REMARK  status: ('A' for Active; 'I' for Inactive)
REMARK    1  A    between atoms: C_2  and  C_13
REMARK    2  A    between atoms: N_3  and  CA_4
REMARK    3  A    between atoms: CA_4  and  C_5
REMARK    4  A    between atoms: CA_4  and  C_7
REMARK    5  A    between atoms: C_5  and  O_6
REMARK                            x       y       z     vdW  Elec       q    Type
REMARK                         _______ _______ _______ _____ _____    ______ ____
ROOT
ATOM      1  O   UNL     1      47.276   3.287  14.813  0.00  0.00    +0.000 OA
ATOM      2  C   UNL     1      47.307   4.509  14.935  0.00  0.00    +0.000 C 
ATOM      3  N   UNL     1      47.607   5.124  16.116  0.00  0.00    +0.000 N 
ATOM      4  H   UNL     1      47.543   6.131  16.182  0.00  0.00    +0.000 HD
ENDROOT
BRANCH   2   5
ATOM      5  C   UNL     1      47.077   5.409  13.800  0.00  0.00    +0.000 A 
ATOM      6  C   UNL     1      48.065   6.293  13.391  0.00  0.00    +0.000 A 
ATOM      7  S   UNL     1      47.600   7.268  12.069  0.00  0.00    +0.000 S 
ATOM      8  C   UNL     1      46.079   6.508  11.969  0.00  0.00    +0.000 A 
ATOM      9  N   UNL     1      45.180   6.855  11.012  0.00  0.00    +0.000 NA
ATOM     10  C   UNL     1      44.078   6.183  11.039  0.00  0.00    +0.000 A 
ATOM     11  N   UNL     1      43.792   5.191  11.945  0.00  0.00    +0.000 N 
ATOM     12  C   UNL     1      44.665   4.812  12.936  0.00  0.00    +0.000 A 
ATOM     13  O   UNL     1      44.373   3.935  13.745  0.00  0.00    +0.000 OA
ATOM     14  C   UNL     1      45.920   5.540  12.944  0.00  0.00    +0.000 A 
ATOM     15  H   UNL     1      42.908   4.707  11.913  0.00  0.00    +0.000 HD
ENDBRANCH   2   5
BRANCH   3  16
ATOM     16  CA  UNL     1      47.821   4.417  17.369  0.00  0.00    +0.000 C 
BRANCH  16  17
ATOM     17  C   UNL     1      49.220   3.819  17.354  0.00  0.00    +0.000 A 
ATOM     18  C   UNL     1      50.331   4.638  17.603  0.00  0.00    +0.000 A 
ATOM     19  C   UNL     1      51.614   4.093  17.688  0.00  0.00    +0.000 A 
ATOM     20  C   UNL     1      51.805   2.722  17.531  0.00  0.00    +0.000 A 
ATOM     21  C   UNL     1      50.716   1.895  17.275  0.00  0.00    +0.000 A 
ATOM     22  C   UNL     1      49.433   2.440  17.180  0.00  0.00    +0.000 A 
ENDBRANCH  16  17
BRANCH  16  23
ATOM     23  C   UNL     1      47.529   5.331  18.583  0.00  0.00    +0.000 C 
BRANCH  23  24
ATOM     24  O   UNL     1      46.133   5.479  18.864  0.00  0.00    +0.000 OA
ATOM     25  H   UNL     1      46.020   6.341  19.312  0.00  0.00    +0.000 HD
ENDBRANCH  23  24
ENDBRANCH  16  23
ENDBRANCH   3  16
TORSDOF 5
ENDMDL
MODEL 6
REMARK VINA RESULT:    -6.358      3.154      5.307
REMARK INTER + INTRA:          -9.045
REMARK INTER:                  -8.167
REMARK INTRA:                  -0.878
REMARK UNBOUND:                -1.014
REMARK  Name = 
REMARK  5 active torsions:
REMARK  status: ('A' for Active; 'I' for Inactive)
REMARK    1  A    between atoms: C_2  and  C_13
REMARK    2  A    between atoms: N_3  and  CA_4
REMARK    3  A    between atoms: CA_4  and  C_5
REMARK    4  A    between atoms: CA_4  and  C_7
REMARK    5  A    between atoms: C_5  and  O_6
REMARK                            x       y       z     vdW  Elec       q    Type
REMARK                         _______ _______ _______ _____ _____    ______ ____
ROOT
ATOM      1  O   UNL     1      49.078   6.529  13.175  0.00  0.00    +0.000 OA
ATOM      2  C   UNL     1      48.179   6.476  14.010  0.00  0.00    +0.000 C 
ATOM      3  N   UNL     1      46.859   6.587  13.681  0.00  0.00    +0.000 N 
ATOM      4  H   UNL     1      46.164   6.614  14.416  0.00  0.00    +0.000 HD
ENDROOT
BRANCH   2   5
ATOM      5  C   UNL     1      48.453   6.233  15.431  0.00  0.00    +0.000 A 
ATOM      6  C   UNL     1      49.024   7.224  16.218  0.00  0.00    +0.000 A 
ATOM      7  S   UNL     1      49.281   6.742  17.835  0.00  0.00    +0.000 S 
ATOM      8  C   UNL     1      48.594   5.210  17.550  0.00  0.00    +0.000 A 
ATOM      9  N   UNL     1      48.474   4.296  18.547  0.00  0.00    +0.000 NA
ATOM     10  C   UNL     1      47.914   3.186  18.196  0.00  0.00    +0.000 A 
ATOM     11  N   UNL     1      47.464   2.907  16.929  0.00  0.00    +0.000 N 
ATOM     12  C   UNL     1      47.572   3.797  15.887  0.00  0.00    +0.000 A 
ATOM     13  O   UNL     1      47.179   3.510  14.758  0.00  0.00    +0.000 OA
ATOM     14  C   UNL     1      48.194   5.060  16.235  0.00  0.00    +0.000 A 
ATOM     15  H   UNL     1      47.040   2.017  16.720  0.00  0.00    +0.000 HD
ENDBRANCH   2   5
BRANCH   3  16
ATOM     16  CA  UNL     1      46.378   6.876  12.340  0.00  0.00    +0.000 C 
BRANCH  16  17
ATOM     17  C   UNL     1      45.216   5.944  12.032  0.00  0.00    +0.000 A 
ATOM     18  C   UNL     1      45.117   5.348  10.765  0.00  0.00    +0.000 A 
ATOM     19  C   UNL     1      44.113   4.417  10.491  0.00  0.00    +0.000 A 
ATOM     20  C   UNL     1      43.198   4.061  11.480  0.00  0.00    +0.000 A 
ATOM     21  C   UNL     1      43.275   4.648  12.739  0.00  0.00    +0.000 A 
ATOM     22  C   UNL     1      44.272   5.587  13.012  0.00  0.00    +0.000 A 
ENDBRANCH  16  17
BRANCH  16  23
ATOM     23  C   UNL     1      46.053   8.380  12.175  0.00  0.00    +0.000 C 
BRANCH  23  24
ATOM     24  O   UNL     1      45.860   9.063  13.417  0.00  0.00    +0.000 OA
ATOM     25  H   UNL     1      46.528   8.718  14.042  0.00  0.00    +0.000 HD
ENDBRANCH  23  24
ENDBRANCH  16  23
ENDBRANCH   3  16
TORSDOF 5
ENDMDL
MODEL 7
REMARK VINA RESULT:    -6.186      3.986      6.920
REMARK INTER + INTRA:          -8.828
REMARK INTER:                  -8.176
REMARK INTRA:                  -0.652
REMARK UNBOUND:                -1.014
REMARK  Name = 
REMARK  5 active torsions:
REMARK  status: ('A' for Active; 'I' for Inactive)
REMARK    1  A    between atoms: C_2  and  C_13
REMARK    2  A    between atoms: N_3  and  CA_4
REMARK    3  A    between atoms: CA_4  and  C_5
REMARK    4  A    between atoms: CA_4  and  C_7
REMARK    5  A    between atoms: C_5  and  O_6
REMARK                            x       y       z     vdW  Elec       q    Type
REMARK                         _______ _______ _______ _____ _____    ______ ____
ROOT
ATOM      1  O   UNL     1      47.210   3.270  14.818  0.00  0.00    +0.000 OA
ATOM      2  C   UNL     1      47.313   4.490  14.914  0.00  0.00    +0.000 C 
ATOM      3  N   UNL     1      47.661   5.111  16.079  0.00  0.00    +0.000 N 
ATOM      4  H   UNL     1      47.655   6.122  16.124  0.00  0.00    +0.000 HD
ENDROOT
BRANCH   2   5
ATOM      5  C   UNL     1      47.123   5.379  13.763  0.00  0.00    +0.000 A 
ATOM      6  C   UNL     1      46.023   5.228  12.931  0.00  0.00    +0.000 A 
ATOM      7  S   UNL     1      45.991   6.343  11.638  0.00  0.00    +0.000 S 
ATOM      8  C   UNL     1      47.421   7.094  12.174  0.00  0.00    +0.000 A 
ATOM      9  N   UNL     1      47.942   8.165  11.520  0.00  0.00    +0.000 NA
ATOM     10  C   UNL     1      49.016   8.649  12.048  0.00  0.00    +0.000 A 
ATOM     11  N   UNL     1      49.621   8.153  13.177  0.00  0.00    +0.000 N 
ATOM     12  C   UNL     1      49.137   7.067  13.866  0.00  0.00    +0.000 A 
ATOM     13  O   UNL     1      49.713   6.634  14.862  0.00  0.00    +0.000 OA
ATOM     14  C   UNL     1      47.928   6.490  13.310  0.00  0.00    +0.000 A 
ATOM     15  H   UNL     1      50.464   8.577  13.535  0.00  0.00    +0.000 HD
ENDBRANCH   2   5
BRANCH   3  16
ATOM     16  CA  UNL     1      47.847   4.420  17.345  0.00  0.00    +0.000 C 
BRANCH  16  17
ATOM     17  C   UNL     1      49.238   3.804  17.359  0.00  0.00    +0.000 A 
ATOM     18  C   UNL     1      50.354   4.609  17.633  0.00  0.00    +0.000 A 
ATOM     19  C   UNL     1      51.628   4.048  17.745  0.00  0.00    +0.000 A 
ATOM     20  C   UNL     1      51.805   2.675  17.590  0.00  0.00    +0.000 A 
ATOM     21  C   UNL     1      50.712   1.862  17.309  0.00  0.00    +0.000 A 
ATOM     22  C   UNL     1      49.438   2.423  17.188  0.00  0.00    +0.000 A 
ENDBRANCH  16  17
BRANCH  16  23
ATOM     23  C   UNL     1      47.548   5.354  18.541  0.00  0.00    +0.000 C 
BRANCH  23  24
ATOM     24  O   UNL     1      46.155   5.455  18.854  0.00  0.00    +0.000 OA
ATOM     25  H   UNL     1      45.663   5.301  18.023  0.00  0.00    +0.000 HD
ENDBRANCH  23  24
ENDBRANCH  16  23
ENDBRANCH   3  16
TORSDOF 5
ENDMDL
MODEL 8
REMARK VINA RESULT:    -5.855      3.041      6.869
REMARK INTER + INTRA:          -8.409
REMARK INTER:                  -8.276
REMARK INTRA:                  -0.133
REMARK UNBOUND:                -1.014
REMARK  Name = 
REMARK  5 active torsions:
REMARK  status: ('A' for Active; 'I' for Inactive)
REMARK    1  A    between atoms: C_2  and  C_13
REMARK    2  A    between atoms: N_3  and  CA_4
REMARK    3  A    between atoms: CA_4  and  C_5
REMARK    4  A    between atoms: CA_4  and  C_7
REMARK    5  A    between atoms: C_5  and  O_6
REMARK                            x       y       z     vdW  Elec       q    Type
REMARK                         _______ _______ _______ _____ _____    ______ ____
ROOT
ATOM      1  O   UNL     1      48.848   5.953  12.991  0.00  0.00    +0.000 OA
ATOM      2  C   UNL     1      47.765   6.211  13.509  0.00  0.00    +0.000 C 
ATOM      3  N   UNL     1      47.650   6.669  14.789  0.00  0.00    +0.000 N 
ATOM      4  H   UNL     1      46.731   6.792  15.193  0.00  0.00    +0.000 HD
ENDROOT
BRANCH   2   5
ATOM      5  C   UNL     1      46.503   6.098  12.768  0.00  0.00    +0.000 A 
ATOM      6  C   UNL     1      45.937   7.214  12.168  0.00  0.00    +0.000 A 
ATOM      7  S   UNL     1      44.464   6.882  11.373  0.00  0.00    +0.000 S 
ATOM      8  C   UNL     1      44.557   5.228  11.764  0.00  0.00    +0.000 A 
ATOM      9  N   UNL     1      43.605   4.352  11.350  0.00  0.00    +0.000 NA
ATOM     10  C   UNL     1      43.813   3.125  11.698  0.00  0.00    +0.000 A 
ATOM     11  N   UNL     1      44.893   2.696  12.430  0.00  0.00    +0.000 N 
ATOM     12  C   UNL     1      45.876   3.546  12.878  0.00  0.00    +0.000 A 
ATOM     13  O   UNL     1      46.820   3.135  13.549  0.00  0.00    +0.000 OA
ATOM     14  C   UNL     1      45.685   4.936  12.509  0.00  0.00    +0.000 A 
ATOM     15  H   UNL     1      44.994   1.722  12.672  0.00  0.00    +0.000 HD
ENDBRANCH   2   5
BRANCH   3  16
ATOM     16  CA  UNL     1      48.770   6.806  15.707  0.00  0.00    +0.000 C 
BRANCH  16  17
ATOM     17  C   UNL     1      48.951   5.491  16.450  0.00  0.00    +0.000 A 
ATOM     18  C   UNL     1      50.173   5.208  17.080  0.00  0.00    +0.000 A 
ATOM     19  C   UNL     1      50.329   4.051  17.845  0.00  0.00    +0.000 A 
ATOM     20  C   UNL     1      49.266   3.163  17.999  0.00  0.00    +0.000 A 
ATOM     21  C   UNL     1      48.050   3.423  17.375  0.00  0.00    +0.000 A 
ATOM     22  C   UNL     1      47.895   4.574  16.600  0.00  0.00    +0.000 A 
ENDBRANCH  16  17
BRANCH  16  23
ATOM     23  C   UNL     1      50.037   7.306  14.973  0.00  0.00    +0.000 C 
BRANCH  23  24
ATOM     24  O   UNL     1      49.876   8.593  14.366  0.00  0.00    +0.000 OA
ATOM     25  H   UNL     1      50.580   8.683  13.694  0.00  0.00    +0.000 HD
ENDBRANCH  23  24
ENDBRANCH  16  23
ENDBRANCH   3  16
TORSDOF 5
ENDMDL
