MODEL 1
REMARK VINA RESULT:    -7.899      0.000      0.000
REMARK INTER + INTRA:         -12.762
REMARK INTER:                 -11.132
REMARK INTRA:                  -1.630
REMARK UNBOUND:                -1.630
REMARK  Name = 
REMARK  9 active torsions:
REMARK  status: ('A' for Active; 'I' for Inactive)
REMARK    1  A    between atoms: C_1  and  C_2
REMARK    2  A    between atoms: C_2  and  N_3
REMARK    3  A    between atoms: C_2  and  C_26
REMARK    4  A    between atoms: N_3  and  C_4
REMARK    5  A    between atoms: C_4  and  C_5
REMARK    6  A    between atoms: C_9  and  C_10
REMARK    7  A    between atoms: C_10  and  N_11
REMARK    8  A    between atoms: N_11  and  C_12
REMARK    9  A    between atoms: C_13  and  C_15
REMARK                            x       y       z     vdW  Elec       q    Type
REMARK                         _______ _______ _______ _____ _____    ______ ____
ROOT
ATOM      1  C   UNL     1      46.673   5.973  12.574  0.00  0.00    +0.000 A 
ATOM      2  C   UNL     1      46.918   6.951  11.596  0.00  0.00    +0.000 A 
ATOM      3  C   UNL     1      47.988   7.829  11.715  0.00  0.00    +0.000 A 
ATOM      4  C   UNL     1      48.802   7.776  12.840  0.00  0.00    +0.000 A 
ATOM      5  C   UNL     1      48.527   6.867  13.872  0.00  0.00    +0.000 A 
ATOM      6  C   UNL     1      47.469   5.962  13.729  0.00  0.00    +0.000 A 
ENDROOT
BRANCH   1   7
ATOM      7  C   UNL     1      45.574   4.948  12.401  0.00  0.00    +0.000 C 
BRANCH   7   8
ATOM      8  N   UNL     1      44.759   5.240  11.220  0.00  0.00    +0.000 NA
ATOM      9  H   UNL     1      43.974   5.824  11.500  0.00  0.00    +0.000 HD
BRANCH   8  11
ATOM     10  C   UNL     1      44.158   2.841  11.532  0.00  0.00    +0.000 C 
ATOM     11  C   UNL     1      44.215   4.038  10.576  0.00  0.00    +0.000 C 
BRANCH  11  12
ATOM     12  C   UNL     1      45.046   3.628   9.362  0.00  0.00    +0.000 A 
ATOM     13  C   UNL     1      45.673   4.571   8.530  0.00  0.00    +0.000 A 
ATOM     14  C   UNL     1      46.529   4.164   7.504  0.00  0.00    +0.000 A 
ATOM     15  C   UNL     1      46.783   2.808   7.302  0.00  0.00    +0.000 A 
ATOM     16  C   UNL     1      46.159   1.864   8.114  0.00  0.00    +0.000 A 
ATOM     17 CL   UNL     1      46.492   0.190   7.888  0.00  0.00    +0.000 Cl
ATOM     18  C   UNL     1      45.289   2.263   9.129  0.00  0.00    +0.000 A 
ENDBRANCH  11  12
ENDBRANCH   8  11
ENDBRANCH   7   8
ENDBRANCH   1   7
BRANCH   5  19
ATOM     19  C   UNL     1      49.390   6.833  15.102  0.00  0.00    +0.000 C 
BRANCH  19  20
ATOM     20  N   UNL     1      48.889   7.491  16.307  0.00  0.00    +0.000 N 
ATOM     21  C   UNL     1      49.130   8.926  16.447  0.00  0.00    +0.000 C 
ATOM     22  C   UNL     1      48.497   6.790  17.470  0.00  0.00    +0.000 C 
ATOM     23  O   UNL     1      48.223   7.399  18.504  0.00  0.00    +0.000 OA
BRANCH  22  24
ATOM     24  C   UNL     1      48.459   5.307  17.485  0.00  0.00    +0.000 A 
ATOM     25  C   UNL     1      47.348   4.525  17.210  0.00  0.00    +0.000 A 
ATOM     26  S   UNL     1      47.627   2.848  17.276  0.00  0.00    +0.000 S 
ATOM     27  C   UNL     1      49.294   3.095  17.449  0.00  0.00    +0.000 A 
ATOM     28  N   UNL     1      50.156   2.046  17.395  0.00  0.00    +0.000 NA
ATOM     29  C   UNL     1      51.399   2.379  17.449  0.00  0.00    +0.000 A 
ATOM     30  N   UNL     1      51.859   3.660  17.600  0.00  0.00    +0.000 N 
ATOM     31  C   UNL     1      51.020   4.732  17.836  0.00  0.00    +0.000 A 
ATOM     32  O   UNL     1      51.465   5.796  18.244  0.00  0.00    +0.000 OA
ATOM     33  C   UNL     1      49.614   4.432  17.614  0.00  0.00    +0.000 A 
ATOM     34  H   UNL     1      52.843   3.843  17.717  0.00  0.00    +0.000 HD
ENDBRANCH  22  24
ENDBRANCH  19  20
ENDBRANCH   5  19
TORSDOF 7
ENDMDL
MODEL 2
REMARK VINA RESULT:    -7.840      2.318      3.331
REMARK INTER + INTRA:         -12.679
REMARK INTER:                 -11.273
REMARK INTRA:                  -1.407
REMARK UNBOUND:                -1.630
REMARK  Name = 
REMARK  9 active torsions:
REMARK  status: ('A' for Active; 'I' for Inactive)
REMARK    1  A    between atoms: C_1  and  C_2
REMARK    2  A    between atoms: C_2  and  N_3
REMARK    3  A    between atoms: C_2  and  C_26
REMARK    4  A    between atoms: N_3  and  C_4
REMARK    5  A    between atoms: C_4  and  C_5
REMARK    6  A    between atoms: C_9  and  C_10
REMARK    7  A    between atoms: C_10  and  N_11
REMARK    8  A    between atoms: N_11  and  C_12
REMARK    9  A    between atoms: C_13  and  C_15
REMARK                            x       y       z     vdW  Elec       q    Type
REMARK                         _______ _______ _______ _____ _____    ______ ____
ROOT
ATOM      1  C   UNL     1      45.470   5.414  12.087  0.00  0.00    +0.000 A 
ATOM      2  C   UNL     1      45.843   4.295  12.850  0.00  0.00    +0.000 A 
ATOM      3  C   UNL     1      46.759   4.411  13.889  0.00  0.00    +0.000 A 
ATOM      4  C   UNL     1      47.353   5.639  14.150  0.00  0.00    +0.000 A 
ATOM      5  C   UNL     1      47.064   6.752  13.348  0.00  0.00    +0.000 A 
ATOM      6  C   UNL     1      46.115   6.636  12.327  0.00  0.00    +0.000 A 
ENDROOT
BRANCH   1   7
ATOM      7  C   UNL     1      44.399   5.317  11.023  0.00  0.00    +0.000 C 
BRANCH   7   8
ATOM      8  N   UNL     1      44.977   4.988   9.718  0.00  0.00    +0.000 NA
ATOM      9  H   UNL     1      44.755   5.737   9.064  0.00  0.00    +0.000 HD
BRANCH   8  11
ATOM     10  C   UNL     1      44.032   2.741  10.239  0.00  0.00    +0.000 C 
ATOM     11  C   UNL     1      44.466   3.733   9.154  0.00  0.00    +0.000 C 
BRANCH  11  12
ATOM     12  C   UNL     1      45.512   3.044   8.281  0.00  0.00    +0.000 A 
ATOM     13  C   UNL     1      46.444   3.767   7.516  0.00  0.00    +0.000 A 
ATOM     14  C   UNL     1      47.468   3.112   6.828  0.00  0.00    +0.000 A 
ATOM     15  C   UNL     1      47.585   1.724   6.905  0.00  0.00    +0.000 A 
ATOM     16  C   UNL     1      46.661   0.997   7.652  0.00  0.00    +0.000 A 
ATOM     17 CL   UNL     1      46.819  -0.713   7.774  0.00  0.00    +0.000 Cl
ATOM     18  C   UNL     1      45.626   1.644   8.326  0.00  0.00    +0.000 A 
ENDBRANCH  11  12
ENDBRANCH   8  11
ENDBRANCH   7   8
ENDBRANCH   1   7
BRANCH   5  19
ATOM     19  C   UNL     1      47.734   8.071  13.613  0.00  0.00    +0.000 C 
BRANCH  19  20
ATOM     20  N   UNL     1      49.194   8.105  13.638  0.00  0.00    +0.000 N 
ATOM     21  C   UNL     1      49.905   7.602  12.464  0.00  0.00    +0.000 C 
ATOM     22  C   UNL     1      49.948   8.272  14.822  0.00  0.00    +0.000 C 
ATOM     23  O   UNL     1      51.172   8.147  14.806  0.00  0.00    +0.000 OA
BRANCH  22  24
ATOM     24  C   UNL     1      49.277   8.549  16.116  0.00  0.00    +0.000 A 
ATOM     25  C   UNL     1      48.718   9.760  16.492  0.00  0.00    +0.000 A 
ATOM     26  S   UNL     1      47.989   9.757  18.030  0.00  0.00    +0.000 S 
ATOM     27  C   UNL     1      48.185   8.080  18.161  0.00  0.00    +0.000 A 
ATOM     28  N   UNL     1      47.616   7.397  19.188  0.00  0.00    +0.000 NA
ATOM     29  C   UNL     1      47.765   6.119  19.121  0.00  0.00    +0.000 A 
ATOM     30  N   UNL     1      48.472   5.465  18.147  0.00  0.00    +0.000 N 
ATOM     31  C   UNL     1      49.212   6.128  17.188  0.00  0.00    +0.000 A 
ATOM     32  O   UNL     1      50.047   5.533  16.520  0.00  0.00    +0.000 OA
ATOM     33  C   UNL     1      48.936   7.556  17.122  0.00  0.00    +0.000 A 
ATOM     34  H   UNL     1      48.619   4.469  18.198  0.00  0.00    +0.000 HD
ENDBRANCH  22  24
ENDBRANCH  19  20
ENDBRANCH   5  19
TORSDOF 7
ENDMDL
MODEL 3
REMARK VINA RESULT:    -7.600      3.731      8.038
REMARK INTER + INTRA:         -12.340
REMARK INTER:                 -10.653
REMARK INTRA:                  -1.687
REMARK UNBOUND:                -1.630
REMARK  Name = 
REMARK  9 active torsions:
REMARK  status: ('A' for Active; 'I' for Inactive)
REMARK    1  A    between atoms: C_1  and  C_2
REMARK    2  A    between atoms: C_2  and  N_3
REMARK    3  A    between atoms: C_2  and  C_26
REMARK    4  A    between atoms: N_3  and  C_4
REMARK    5  A    between atoms: C_4  and  C_5
REMARK    6  A    between atoms: C_9  and  C_10
REMARK    7  A    between atoms: C_10  and  N_11
REMARK    8  A    between atoms: N_11  and  C_12
REMARK    9  A    between atoms: C_13  and  C_15
REMARK                            x       y       z     vdW  Elec       q    Type
REMARK                         _______ _______ _______ _____ _____    ______ ____
ROOT
ATOM      1  C   UNL     1      49.932   7.728  14.037  0.00  0.00    +0.000 A 
ATOM      2  C   UNL     1      50.555   7.998  12.807  0.00  0.00    +0.000 A 
ATOM      3  C   UNL     1      49.877   7.821  11.607  0.00  0.00    +0.000 A 
ATOM      4  C   UNL     1      48.579   7.325  11.616  0.00  0.00    +0.000 A 
ATOM      5  C   UNL     1      47.965   6.966  12.824  0.00  0.00    +0.000 A 
ATOM      6  C   UNL     1      48.641   7.180  14.030  0.00  0.00    +0.000 A 
ENDROOT
BRANCH   1   7
ATOM      7  C   UNL     1      50.628   8.016  15.349  0.00  0.00    +0.000 C 
BRANCH   7   8
ATOM      8  N   UNL     1      49.863   7.485  16.481  0.00  0.00    +0.000 NA
ATOM      9  H   UNL     1      49.600   8.258  17.089  0.00  0.00    +0.000 HD
BRANCH   8  11
ATOM     10  C   UNL     1      52.054   6.336  16.791  0.00  0.00    +0.000 C 
ATOM     11  C   UNL     1      50.615   6.516  17.287  0.00  0.00    +0.000 C 
BRANCH  11  12
ATOM     12  C   UNL     1      49.944   5.144  17.282  0.00  0.00    +0.000 A 
ATOM     13  C   UNL     1      48.581   4.977  16.983  0.00  0.00    +0.000 A 
ATOM     14  C   UNL     1      48.025   3.701  16.861  0.00  0.00    +0.000 A 
ATOM     15  C   UNL     1      48.826   2.571  17.025  0.00  0.00    +0.000 A 
ATOM     16  C   UNL     1      50.176   2.725  17.333  0.00  0.00    +0.000 A 
ATOM     17 CL   UNL     1      51.175   1.334  17.506  0.00  0.00    +0.000 Cl
ATOM     18  C   UNL     1      50.732   3.996  17.472  0.00  0.00    +0.000 A 
ENDBRANCH  11  12
ENDBRANCH   8  11
ENDBRANCH   7   8
ENDBRANCH   1   7
BRANCH   5  19
ATOM     19  C   UNL     1      46.573   6.399  12.827  0.00  0.00    +0.000 C 
BRANCH  19  20
ATOM     20  N   UNL     1      45.508   7.193  12.220  0.00  0.00    +0.000 N 
ATOM     21  C   UNL     1      45.448   8.616  12.552  0.00  0.00    +0.000 C 
ATOM     22  C   UNL     1      44.362   6.626  11.617  0.00  0.00    +0.000 C 
ATOM     23  O   UNL     1      43.430   7.342  11.252  0.00  0.00    +0.000 OA
BRANCH  22  24
ATOM     24  C   UNL     1      44.236   5.156  11.459  0.00  0.00    +0.000 A 
ATOM     25  C   UNL     1      43.477   4.320  12.261  0.00  0.00    +0.000 A 
ATOM     26  S   UNL     1      43.508   2.680  11.807  0.00  0.00    +0.000 S 
ATOM     27  C   UNL     1      44.350   3.053  10.384  0.00  0.00    +0.000 A 
ATOM     28  N   UNL     1      44.555   2.102   9.436  0.00  0.00    +0.000 NA
ATOM     29  C   UNL     1      45.127   2.536   8.367  0.00  0.00    +0.000 A 
ATOM     30  N   UNL     1      45.555   3.823   8.177  0.00  0.00    +0.000 N 
ATOM     31  C   UNL     1      45.527   4.775   9.178  0.00  0.00    +0.000 A 
ATOM     32  O   UNL     1      46.166   5.813   9.071  0.00  0.00    +0.000 OA
ATOM     33  C   UNL     1      44.740   4.380  10.336  0.00  0.00    +0.000 A 
ATOM     34  H   UNL     1      46.069   4.078   7.348  0.00  0.00    +0.000 HD
ENDBRANCH  22  24
ENDBRANCH  19  20
ENDBRANCH   5  19
TORSDOF 7
ENDMDL
MODEL 4
REMARK VINA RESULT:    -7.517      2.644      3.698
REMARK INTER + INTRA:         -12.224
REMARK INTER:                 -10.799
REMARK INTRA:                  -1.424
REMARK UNBOUND:                -1.630
REMARK  Name = 
REMARK  9 active torsions:
REMARK  status: ('A' for Active; 'I' for Inactive)
REMARK    1  A    between atoms: C_1  and  C_2
REMARK    2  A    between atoms: C_2  and  N_3
REMARK    3  A    between atoms: C_2  and  C_26
REMARK    4  A    between atoms: N_3  and  C_4
REMARK    5  A    between atoms: C_4  and  C_5
REMARK    6  A    between atoms: C_9  and  C_10
REMARK    7  A    between atoms: C_10  and  N_11
REMARK    8  A    between atoms: N_11  and  C_12
REMARK    9  A    between atoms: C_13  and  C_15
REMARK                            x       y       z     vdW  Elec       q    Type
REMARK                         _______ _______ _______ _____ _____    ______ ____
ROOT
ATOM      1  C   UNL     1      44.916   6.487  11.873  0.00  0.00    +0.000 A 
ATOM      2  C   UNL     1      44.713   7.862  11.663  0.00  0.00    +0.000 A 
ATOM      3  C   UNL     1      45.751   8.771  11.828  0.00  0.00    +0.000 A 
ATOM      4  C   UNL     1      46.996   8.327  12.254  0.00  0.00    +0.000 A 
ATOM      5  C   UNL     1      47.201   6.973  12.553  0.00  0.00    +0.000 A 
ATOM      6  C   UNL     1      46.162   6.057  12.351  0.00  0.00    +0.000 A 
ENDROOT
BRANCH   1   7
ATOM      7  C   UNL     1      43.821   5.481  11.597  0.00  0.00    +0.000 C 
BRANCH   7   8
ATOM      8  N   UNL     1      43.858   5.028  10.204  0.00  0.00    +0.000 NA
ATOM      9  H   UNL     1      42.990   5.303   9.748  0.00  0.00    +0.000 HD
BRANCH   8  11
ATOM     10  C   UNL     1      44.465   2.909  11.367  0.00  0.00    +0.000 C 
ATOM     11  C   UNL     1      43.993   3.572  10.068  0.00  0.00    +0.000 C 
BRANCH  11  12
ATOM     12  C   UNL     1      44.985   3.203   8.967  0.00  0.00    +0.000 A 
ATOM     13  C   UNL     1      45.655   4.175   8.205  0.00  0.00    +0.000 A 
ATOM     14  C   UNL     1      46.649   3.810   7.293  0.00  0.00    +0.000 A 
ATOM     15  C   UNL     1      46.996   2.469   7.138  0.00  0.00    +0.000 A 
ATOM     16  C   UNL     1      46.331   1.496   7.880  0.00  0.00    +0.000 A 
ATOM     17 CL   UNL     1      46.777  -0.158   7.714  0.00  0.00    +0.000 Cl
ATOM     18  C   UNL     1      45.326   1.852   8.780  0.00  0.00    +0.000 A 
ENDBRANCH  11  12
ENDBRANCH   8  11
ENDBRANCH   7   8
ENDBRANCH   1   7
BRANCH   5  19
ATOM     19  C   UNL     1      48.541   6.499  13.045  0.00  0.00    +0.000 C 
BRANCH  19  20
ATOM     20  N   UNL     1      49.672   7.418  12.941  0.00  0.00    +0.000 N 
ATOM     21  C   UNL     1      50.244   7.644  11.614  0.00  0.00    +0.000 C 
ATOM     22  C   UNL     1      50.444   7.831  14.051  0.00  0.00    +0.000 C 
ATOM     23  O   UNL     1      51.471   8.488  13.888  0.00  0.00    +0.000 OA
BRANCH  22  24
ATOM     24  C   UNL     1      50.061   7.437  15.429  0.00  0.00    +0.000 A 
ATOM     25  C   UNL     1      50.646   6.423  16.171  0.00  0.00    +0.000 A 
ATOM     26  S   UNL     1      50.009   6.232  17.738  0.00  0.00    +0.000 S 
ATOM     27  C   UNL     1      49.086   7.643  17.574  0.00  0.00    +0.000 A 
ATOM     28  N   UNL     1      48.417   8.157  18.639  0.00  0.00    +0.000 NA
ATOM     29  C   UNL     1      47.829   9.278  18.403  0.00  0.00    +0.000 A 
ATOM     30  N   UNL     1      47.808   9.909  17.189  0.00  0.00    +0.000 N 
ATOM     31  C   UNL     1      48.322   9.339  16.041  0.00  0.00    +0.000 A 
ATOM     32  O   UNL     1      48.040   9.789  14.938  0.00  0.00    +0.000 OA
ATOM     33  C   UNL     1      49.139   8.161  16.291  0.00  0.00    +0.000 A 
ATOM     34  H   UNL     1      47.260  10.745  17.051  0.00  0.00    +0.000 HD
ENDBRANCH  22  24
ENDBRANCH  19  20
ENDBRANCH   5  19
TORSDOF 7
ENDMDL
MODEL 5
REMARK VINA RESULT:    -7.466      1.084      1.536
REMARK INTER + INTRA:         -12.152
REMARK INTER:                 -10.506
REMARK INTRA:                  -1.646
REMARK UNBOUND:                -1.630
REMARK  Name = 
REMARK  9 active torsions:
REMARK  status: ('A' for Active; 'I' for Inactive)
REMARK    1  A    between atoms: C_1  and  C_2
REMARK    2  A    between atoms: C_2  and  N_3
REMARK    3  A    between atoms: C_2  and  C_26
REMARK    4  A    between atoms: N_3  and  C_4
REMARK    5  A    between atoms: C_4  and  C_5
REMARK    6  A    between atoms: C_9  and  C_10
REMARK    7  A    between atoms: C_10  and  N_11
REMARK    8  A    between atoms: N_11  and  C_12
REMARK    9  A    between atoms: C_13  and  C_15
REMARK                            x       y       z     vdW  Elec       q    Type
REMARK                         _______ _______ _______ _____ _____    ______ ____
ROOT
ATOM      1  C   UNL     1      46.928   6.856  12.830  0.00  0.00    +0.000 A 
ATOM      2  C   UNL     1      47.562   7.376  11.689  0.00  0.00    +0.000 A 
ATOM      3  C   UNL     1      48.920   7.670  11.697  0.00  0.00    +0.000 A 
ATOM      4  C   UNL     1      49.657   7.495  12.862  0.00  0.00    +0.000 A 
ATOM      5  C   UNL     1      49.030   7.060  14.038  0.00  0.00    +0.000 A 
ATOM      6  C   UNL     1      47.670   6.732  14.013  0.00  0.00    +0.000 A 
ENDROOT
BRANCH   1   7
ATOM      7  C   UNL     1      45.475   6.437  12.798  0.00  0.00    +0.000 C 
BRANCH   7   8
ATOM      8  N   UNL     1      44.896   6.634  11.467  0.00  0.00    +0.000 NA
ATOM      9  H   UNL     1      44.496   7.569  11.420  0.00  0.00    +0.000 HD
BRANCH   8  11
ATOM     10  C   UNL     1      43.140   5.132  12.401  0.00  0.00    +0.000 C 
ATOM     11  C   UNL     1      43.832   5.674  11.146  0.00  0.00    +0.000 C 
BRANCH  11  12
ATOM     12  C   UNL     1      44.372   4.483  10.358  0.00  0.00    +0.000 A 
ATOM     13  C   UNL     1      43.950   3.166  10.607  0.00  0.00    +0.000 A 
ATOM     14  C   UNL     1      44.366   2.114   9.787  0.00  0.00    +0.000 A 
ATOM     15  C   UNL     1      45.199   2.364   8.697  0.00  0.00    +0.000 A 
ATOM     16  C   UNL     1      45.633   3.664   8.447  0.00  0.00    +0.000 A 
ATOM     17 CL   UNL     1      46.637   3.983   7.087  0.00  0.00    +0.000 Cl
ATOM     18  C   UNL     1      45.235   4.716   9.273  0.00  0.00    +0.000 A 
ENDBRANCH  11  12
ENDBRANCH   8  11
ENDBRANCH   7   8
ENDBRANCH   1   7
BRANCH   5  19
ATOM     19  C   UNL     1      49.823   6.904  15.306  0.00  0.00    +0.000 C 
BRANCH  19  20
ATOM     20  N   UNL     1      49.277   7.484  16.530  0.00  0.00    +0.000 N 
ATOM     21  C   UNL     1      49.594   8.882  16.819  0.00  0.00    +0.000 C 
ATOM     22  C   UNL     1      48.760   6.711  17.594  0.00  0.00    +0.000 C 
ATOM     23  O   UNL     1      48.449   7.243  18.660  0.00  0.00    +0.000 OA
BRANCH  22  24
ATOM     24  C   UNL     1      48.630   5.238  17.469  0.00  0.00    +0.000 A 
ATOM     25  C   UNL     1      47.499   4.561  17.042  0.00  0.00    +0.000 A 
ATOM     26  S   UNL     1      47.669   2.869  16.972  0.00  0.00    +0.000 S 
ATOM     27  C   UNL     1      49.329   2.986  17.288  0.00  0.00    +0.000 A 
ATOM     28  N   UNL     1      50.127   1.890  17.200  0.00  0.00    +0.000 NA
ATOM     29  C   UNL     1      51.380   2.132  17.375  0.00  0.00    +0.000 A 
ATOM     30  N   UNL     1      51.903   3.360  17.678  0.00  0.00    +0.000 N 
ATOM     31  C   UNL     1      51.116   4.462  17.950  0.00  0.00    +0.000 A 
ATOM     32  O   UNL     1      51.592   5.453  18.487  0.00  0.00    +0.000 OA
ATOM     33  C   UNL     1      49.716   4.279  17.599  0.00  0.00    +0.000 A 
ATOM     34  H   UNL     1      52.885   3.466  17.883  0.00  0.00    +0.000 HD
ENDBRANCH  22  24
ENDBRANCH  19  20
ENDBRANCH   5  19
TORSDOF 7
ENDMDL
MODEL 6
REMARK VINA RESULT:    -6.943      1.730      2.379
REMARK INTER + INTRA:         -11.415
REMARK INTER:                 -10.263
REMARK INTRA:                  -1.152
REMARK UNBOUND:                -1.630
REMARK  Name = 
REMARK  9 active torsions:
REMARK  status: ('A' for Active; 'I' for Inactive)
REMARK    1  A    between atoms: C_1  and  C_2
REMARK    2  A    between atoms: C_2  and  N_3
REMARK    3  A    between atoms: C_2  and  C_26
REMARK    4  A    between atoms: N_3  and  C_4
REMARK    5  A    between atoms: C_4  and  C_5
REMARK    6  A    between atoms: C_9  and  C_10
REMARK    7  A    between atoms: C_10  and  N_11
REMARK    8  A    between atoms: N_11  and  C_12
REMARK    9  A    between atoms: C_13  and  C_15
REMARK                            x       y       z     vdW  Elec       q    Type
REMARK                         _______ _______ _______ _____ _____    ______ ____
ROOT
ATOM      1  C   UNL     1      47.219   6.326  12.656  0.00  0.00    +0.000 A 
ATOM      2  C   UNL     1      47.460   7.299  11.672  0.00  0.00    +0.000 A 
ATOM      3  C   UNL     1      48.518   8.192  11.793  0.00  0.00    +0.000 A 
ATOM      4  C   UNL     1      49.323   8.158  12.924  0.00  0.00    +0.000 A 
ATOM      5  C   UNL     1      49.052   7.254  13.961  0.00  0.00    +0.000 A 
ATOM      6  C   UNL     1      48.007   6.334  13.817  0.00  0.00    +0.000 A 
ENDROOT
BRANCH   1   7
ATOM      7  C   UNL     1      46.135   5.286  12.483  0.00  0.00    +0.000 C 
BRANCH   7   8
ATOM      8  N   UNL     1      44.803   5.889  12.574  0.00  0.00    +0.000 NA
ATOM      9  H   UNL     1      44.282   5.422  13.314  0.00  0.00    +0.000 HD
BRANCH   8  11
ATOM     10  C   UNL     1      42.523   5.614  11.604  0.00  0.00    +0.000 C 
ATOM     11  C   UNL     1      44.024   5.772  11.335  0.00  0.00    +0.000 C 
BRANCH  11  12
ATOM     12  C   UNL     1      44.478   4.577  10.500  0.00  0.00    +0.000 A 
ATOM     13  C   UNL     1      43.953   3.287  10.690  0.00  0.00    +0.000 A 
ATOM     14  C   UNL     1      44.294   2.241   9.828  0.00  0.00    +0.000 A 
ATOM     15  C   UNL     1      45.154   2.472   8.755  0.00  0.00    +0.000 A 
ATOM     16  C   UNL     1      45.688   3.743   8.563  0.00  0.00    +0.000 A 
ATOM     17 CL   UNL     1      46.727   4.040   7.223  0.00  0.00    +0.000 Cl
ATOM     18  C   UNL     1      45.366   4.787   9.431  0.00  0.00    +0.000 A 
ENDBRANCH  11  12
ENDBRANCH   8  11
ENDBRANCH   7   8
ENDBRANCH   1   7
BRANCH   5  19
ATOM     19  C   UNL     1      49.905   7.241  15.198  0.00  0.00    +0.000 C 
BRANCH  19  20
ATOM     20  N   UNL     1      49.256   7.506  16.480  0.00  0.00    +0.000 N 
ATOM     21  C   UNL     1      48.383   8.675  16.570  0.00  0.00    +0.000 C 
ATOM     22  C   UNL     1      49.670   6.919  17.698  0.00  0.00    +0.000 C 
ATOM     23  O   UNL     1      49.183   7.288  18.766  0.00  0.00    +0.000 OA
BRANCH  22  24
ATOM     24  C   UNL     1      50.734   5.885  17.719  0.00  0.00    +0.000 A 
ATOM     25  C   UNL     1      52.029   6.069  18.174  0.00  0.00    +0.000 A 
ATOM     26  S   UNL     1      53.011   4.681  18.101  0.00  0.00    +0.000 S 
ATOM     27  C   UNL     1      51.683   3.719  17.674  0.00  0.00    +0.000 A 
ATOM     28  N   UNL     1      51.800   2.368  17.619  0.00  0.00    +0.000 NA
ATOM     29  C   UNL     1      50.697   1.750  17.371  0.00  0.00    +0.000 A 
ATOM     30  N   UNL     1      49.497   2.363  17.127  0.00  0.00    +0.000 N 
ATOM     31  C   UNL     1      49.370   3.732  16.998  0.00  0.00    +0.000 A 
ATOM     32  O   UNL     1      48.363   4.223  16.506  0.00  0.00    +0.000 OA
ATOM     33  C   UNL     1      50.545   4.471  17.436  0.00  0.00    +0.000 A 
ATOM     34  H   UNL     1      48.688   1.824  16.859  0.00  0.00    +0.000 HD
ENDBRANCH  22  24
ENDBRANCH  19  20
ENDBRANCH   5  19
TORSDOF 7
ENDMDL
MODEL 7
REMARK VINA RESULT:    -6.680      1.668      2.622
REMARK INTER + INTRA:         -11.044
REMARK INTER:                  -9.601
REMARK INTRA:                  -1.443
REMARK UNBOUND:                -1.630
REMARK  Name = 
REMARK  9 active torsions:
REMARK  status: ('A' for Active; 'I' for Inactive)
REMARK    1  A    between atoms: C_1  and  C_2
REMARK    2  A    between atoms: C_2  and  N_3
REMARK    3  A    between atoms: C_2  and  C_26
REMARK    4  A    between atoms: N_3  and  C_4
REMARK    5  A    between atoms: C_4  and  C_5
REMARK    6  A    between atoms: C_9  and  C_10
REMARK    7  A    between atoms: C_10  and  N_11
REMARK    8  A    between atoms: N_11  and  C_12
REMARK    9  A    between atoms: C_13  and  C_15
REMARK                            x       y       z     vdW  Elec       q    Type
REMARK                         _______ _______ _______ _____ _____    ______ ____
ROOT
ATOM      1  C   UNL     1      48.409   7.432  13.564  0.00  0.00    +0.000 A 
ATOM      2  C   UNL     1      49.275   8.149  12.722  0.00  0.00    +0.000 A 
ATOM      3  C   UNL     1      50.590   8.402  13.096  0.00  0.00    +0.000 A 
ATOM      4  C   UNL     1      51.045   7.983  14.340  0.00  0.00    +0.000 A 
ATOM      5  C   UNL     1      50.176   7.342  15.234  0.00  0.00    +0.000 A 
ATOM      6  C   UNL     1      48.864   7.060  14.837  0.00  0.00    +0.000 A 
ENDROOT
BRANCH   1   7
ATOM      7  C   UNL     1      47.010   7.065  13.121  0.00  0.00    +0.000 C 
BRANCH   7   8
ATOM      8  N   UNL     1      47.004   6.564  11.745  0.00  0.00    +0.000 NA
ATOM      9  H   UNL     1      47.597   7.165  11.176  0.00  0.00    +0.000 HD
BRANCH   8  11
ATOM     10  C   UNL     1      44.748   7.622  11.722  0.00  0.00    +0.000 C 
ATOM     11  C   UNL     1      45.668   6.545  11.137  0.00  0.00    +0.000 C 
BRANCH  11  12
ATOM     12  C   UNL     1      44.985   5.193  11.327  0.00  0.00    +0.000 A 
ATOM     13  C   UNL     1      44.179   4.910  12.443  0.00  0.00    +0.000 A 
ATOM     14  C   UNL     1      43.467   3.711  12.526  0.00  0.00    +0.000 A 
ATOM     15  C   UNL     1      43.539   2.782  11.488  0.00  0.00    +0.000 A 
ATOM     16  C   UNL     1      44.343   3.047  10.382  0.00  0.00    +0.000 A 
ATOM     17 CL   UNL     1      44.412   1.917   9.086  0.00  0.00    +0.000 Cl
ATOM     18  C   UNL     1      45.070   4.235  10.302  0.00  0.00    +0.000 A 
ENDBRANCH  11  12
ENDBRANCH   8  11
ENDBRANCH   7   8
ENDBRANCH   1   7
BRANCH   5  19
ATOM     19  C   UNL     1      50.662   6.920  16.593  0.00  0.00    +0.000 C 
BRANCH  19  20
ATOM     20  N   UNL     1      49.824   7.233  17.748  0.00  0.00    +0.000 N 
ATOM     21  C   UNL     1      50.086   8.484  18.457  0.00  0.00    +0.000 C 
ATOM     22  C   UNL     1      49.024   6.275  18.411  0.00  0.00    +0.000 C 
ATOM     23  O   UNL     1      48.453   6.558  19.463  0.00  0.00    +0.000 OA
BRANCH  22  24
ATOM     24  C   UNL     1      48.898   4.894  17.881  0.00  0.00    +0.000 A 
ATOM     25  C   UNL     1      47.858   4.424  17.095  0.00  0.00    +0.000 A 
ATOM     26  S   UNL     1      48.012   2.798  16.614  0.00  0.00    +0.000 S 
ATOM     27  C   UNL     1      49.584   2.723  17.243  0.00  0.00    +0.000 A 
ATOM     28  N   UNL     1      50.366   1.636  17.015  0.00  0.00    +0.000 NA
ATOM     29  C   UNL     1      51.566   1.743  17.470  0.00  0.00    +0.000 A 
ATOM     30  N   UNL     1      52.042   2.817  18.174  0.00  0.00    +0.000 N 
ATOM     31  C   UNL     1      51.234   3.861  18.580  0.00  0.00    +0.000 A 
ATOM     32  O   UNL     1      51.614   4.650  19.435  0.00  0.00    +0.000 OA
ATOM     33  C   UNL     1      49.924   3.865  17.948  0.00  0.00    +0.000 A 
ATOM     34  H   UNL     1      52.968   2.803  18.573  0.00  0.00    +0.000 HD
ENDBRANCH  22  24
ENDBRANCH  19  20
ENDBRANCH   5  19
TORSDOF 7
ENDMDL
MODEL 8
REMARK VINA RESULT:    -6.668      1.936      2.893
REMARK INTER + INTRA:         -11.027
REMARK INTER:                  -9.554
REMARK INTRA:                  -1.473
REMARK UNBOUND:                -1.630
REMARK  Name = 
REMARK  9 active torsions:
REMARK  status: ('A' for Active; 'I' for Inactive)
REMARK    1  A    between atoms: C_1  and  C_2
REMARK    2  A    between atoms: C_2  and  N_3
REMARK    3  A    between atoms: C_2  and  C_26
REMARK    4  A    between atoms: N_3  and  C_4
REMARK    5  A    between atoms: C_4  and  C_5
REMARK    6  A    between atoms: C_9  and  C_10
REMARK    7  A    between atoms: C_10  and  N_11
REMARK    8  A    between atoms: N_11  and  C_12
REMARK    9  A    between atoms: C_13  and  C_15
REMARK                            x       y       z     vdW  Elec       q    Type
REMARK                         _______ _______ _______ _____ _____    ______ ____
ROOT
ATOM      1  C   UNL     1      48.373   6.831  13.566  0.00  0.00    +0.000 A 
ATOM      2  C   UNL     1      49.307   7.279  12.617  0.00  0.00    +0.000 A 
ATOM      3  C   UNL     1      50.385   8.071  12.995  0.00  0.00    +0.000 A 
ATOM      4  C   UNL     1      50.519   8.468  14.319  0.00  0.00    +0.000 A 
ATOM      5  C   UNL     1      49.553   8.107  15.269  0.00  0.00    +0.000 A 
ATOM      6  C   UNL     1      48.489   7.280  14.889  0.00  0.00    +0.000 A 
ENDROOT
BRANCH   1   7
ATOM      7  C   UNL     1      47.256   5.885  13.181  0.00  0.00    +0.000 C 
BRANCH   7   8
ATOM      8  N   UNL     1      45.998   6.607  12.978  0.00  0.00    +0.000 NA
ATOM      9  H   UNL     1      45.232   6.031  13.322  0.00  0.00    +0.000 HD
BRANCH   8  11
ATOM     10  C   UNL     1      44.646   7.996  11.410  0.00  0.00    +0.000 C 
ATOM     11  C   UNL     1      45.726   6.919  11.569  0.00  0.00    +0.000 C 
BRANCH  11  12
ATOM     12  C   UNL     1      45.270   5.682  10.799  0.00  0.00    +0.000 A 
ATOM     13  C   UNL     1      45.716   5.404   9.496  0.00  0.00    +0.000 A 
ATOM     14  C   UNL     1      45.382   4.202   8.866  0.00  0.00    +0.000 A 
ATOM     15  C   UNL     1      44.609   3.254   9.535  0.00  0.00    +0.000 A 
ATOM     16  C   UNL     1      44.153   3.523  10.823  0.00  0.00    +0.000 A 
ATOM     17 CL   UNL     1      43.223   2.344  11.663  0.00  0.00    +0.000 Cl
ATOM     18  C   UNL     1      44.468   4.729  11.450  0.00  0.00    +0.000 A 
ENDBRANCH  11  12
ENDBRANCH   8  11
ENDBRANCH   7   8
ENDBRANCH   1   7
BRANCH   5  19
ATOM     19  C   UNL     1      49.682   8.565  16.695  0.00  0.00    +0.000 C 
BRANCH  19  20
ATOM     20  N   UNL     1      48.645   8.161  17.640  0.00  0.00    +0.000 N 
ATOM     21  C   UNL     1      47.738   9.195  18.137  0.00  0.00    +0.000 C 
ATOM     22  C   UNL     1      48.671   6.938  18.348  0.00  0.00    +0.000 C 
ATOM     23  O   UNL     1      47.851   6.713  19.238  0.00  0.00    +0.000 OA
BRANCH  22  24
ATOM     24  C   UNL     1      49.716   5.922  18.070  0.00  0.00    +0.000 A 
ATOM     25  C   UNL     1      51.027   5.969  18.517  0.00  0.00    +0.000 A 
ATOM     26  S   UNL     1      51.981   4.637  18.059  0.00  0.00    +0.000 S 
ATOM     27  C   UNL     1      50.625   3.831  17.440  0.00  0.00    +0.000 A 
ATOM     28  N   UNL     1      50.717   2.538  17.036  0.00  0.00    +0.000 NA
ATOM     29  C   UNL     1      49.597   2.017  16.672  0.00  0.00    +0.000 A 
ATOM     30  N   UNL     1      48.402   2.684  16.630  0.00  0.00    +0.000 N 
ATOM     31  C   UNL     1      48.295   4.042  16.862  0.00  0.00    +0.000 A 
ATOM     32  O   UNL     1      47.284   4.653  16.544  0.00  0.00    +0.000 OA
ATOM     33  C   UNL     1      49.495   4.630  17.438  0.00  0.00    +0.000 A 
ATOM     34  H   UNL     1      47.576   2.241  16.257  0.00  0.00    +0.000 HD
ENDBRANCH  22  24
ENDBRANCH  19  20
ENDBRANCH   5  19
TORSDOF 7
ENDMDL
MODEL 9
REMARK VINA RESULT:    -6.584      4.134      7.892
REMARK INTER + INTRA:         -10.909
REMARK INTER:                  -9.157
REMARK INTRA:                  -1.751
REMARK UNBOUND:                -1.630
REMARK  Name = 
REMARK  9 active torsions:
REMARK  status: ('A' for Active; 'I' for Inactive)
REMARK    1  A    between atoms: C_1  and  C_2
REMARK    2  A    between atoms: C_2  and  N_3
REMARK    3  A    between atoms: C_2  and  C_26
REMARK    4  A    between atoms: N_3  and  C_4
REMARK    5  A    between atoms: C_4  and  C_5
REMARK    6  A    between atoms: C_9  and  C_10
REMARK    7  A    between atoms: C_10  and  N_11
REMARK    8  A    between atoms: N_11  and  C_12
REMARK    9  A    between atoms: C_13  and  C_15
REMARK                            x       y       z     vdW  Elec       q    Type
REMARK                         _______ _______ _______ _____ _____    ______ ____
ROOT
ATOM      1  C   UNL     1      48.182   6.850  18.171  0.00  0.00    +0.000 A 
ATOM      2  C   UNL     1      47.794   7.826  19.104  0.00  0.00    +0.000 A 
ATOM      3  C   UNL     1      47.674   9.160  18.735  0.00  0.00    +0.000 A 
ATOM      4  C   UNL     1      47.989   9.548  17.439  0.00  0.00    +0.000 A 
ATOM      5  C   UNL     1      48.463   8.608  16.513  0.00  0.00    +0.000 A 
ATOM      6  C   UNL     1      48.546   7.260  16.881  0.00  0.00    +0.000 A 
ENDROOT
BRANCH   1   7
ATOM      7  C   UNL     1      48.215   5.382  18.538  0.00  0.00    +0.000 C 
BRANCH   7   8
ATOM      8  N   UNL     1      49.578   4.851  18.476  0.00  0.00    +0.000 NA
ATOM      9  H   UNL     1      50.219   5.618  18.280  0.00  0.00    +0.000 HD
BRANCH   8  11
ATOM     10  C   UNL     1      48.580   2.860  17.357  0.00  0.00    +0.000 C 
ATOM     11  C   UNL     1      49.761   3.835  17.432  0.00  0.00    +0.000 C 
BRANCH  11  12
ATOM     12  C   UNL     1      51.030   3.018  17.662  0.00  0.00    +0.000 A 
ATOM     13  C   UNL     1      51.108   1.650  17.347  0.00  0.00    +0.000 A 
ATOM     14  C   UNL     1      52.318   0.959  17.450  0.00  0.00    +0.000 A 
ATOM     15  C   UNL     1      53.472   1.628  17.857  0.00  0.00    +0.000 A 
ATOM     16  C   UNL     1      53.404   2.981  18.182  0.00  0.00    +0.000 A 
ATOM     17 CL   UNL     1      54.831   3.818  18.656  0.00  0.00    +0.000 Cl
ATOM     18  C   UNL     1      52.195   3.672  18.098  0.00  0.00    +0.000 A 
ENDBRANCH  11  12
ENDBRANCH   8  11
ENDBRANCH   7   8
ENDBRANCH   1   7
BRANCH   5  19
ATOM     19  C   UNL     1      48.834   9.036  15.120  0.00  0.00    +0.000 C 
BRANCH  19  20
ATOM     20  N   UNL     1      49.584   8.095  14.292  0.00  0.00    +0.000 N 
ATOM     21  C   UNL     1      51.043   8.167  14.333  0.00  0.00    +0.000 C 
ATOM     22  C   UNL     1      49.008   7.366  13.227  0.00  0.00    +0.000 C 
ATOM     23  O   UNL     1      49.715   6.699  12.472  0.00  0.00    +0.000 OA
BRANCH  22  24
ATOM     24  C   UNL     1      47.549   7.429  12.965  0.00  0.00    +0.000 A 
ATOM     25  C   UNL     1      46.895   8.439  12.277  0.00  0.00    +0.000 A 
ATOM     26  S   UNL     1      45.216   8.213  12.111  0.00  0.00    +0.000 S 
ATOM     27  C   UNL     1      45.327   6.647  12.749  0.00  0.00    +0.000 A 
ATOM     28  N   UNL     1      44.251   5.819  12.732  0.00  0.00    +0.000 NA
ATOM     29  C   UNL     1      44.492   4.629  13.164  0.00  0.00    +0.000 A 
ATOM     30  N   UNL     1      45.698   4.206  13.655  0.00  0.00    +0.000 N 
ATOM     31  C   UNL     1      46.765   5.061  13.855  0.00  0.00    +0.000 A 
ATOM     32  O   UNL     1      47.715   4.723  14.548  0.00  0.00    +0.000 OA
ATOM     33  C   UNL     1      46.595   6.363  13.228  0.00  0.00    +0.000 A 
ATOM     34  H   UNL     1      45.799   3.285  14.053  0.00  0.00    +0.000 HD
ENDBRANCH  22  24
ENDBRANCH  19  20
ENDBRANCH   5  19
TORSDOF 7
ENDMDL
