MODEL 1
REMARK VINA RESULT:    -8.123      0.000      0.000
REMARK INTER + INTRA:         -12.873
REMARK INTER:                 -11.685
REMARK INTRA:                  -1.188
REMARK UNBOUND:                -1.188
REMARK  Name = 
REMARK  8 active torsions:
REMARK  status: ('A' for Active; 'I' for Inactive)
REMARK    1  A    between atoms: N_1  and  C_2
REMARK    2  A    between atoms: C_2  and  C_3
REMARK    3  A    between atoms: C_2  and  C_24
REMARK    4  A    between atoms: C_3  and  C_4
REMARK    5  A    between atoms: C_7  and  C_8
REMARK    6  A    between atoms: C_8  and  N_9
REMARK    7  A    between atoms: C_10  and  C_12
REMARK    8  A    between atoms: C_24  and  C_26
REMARK                            x       y       z     vdW  Elec       q    Type
REMARK                         _______ _______ _______ _____ _____    ______ ____
ROOT
ATOM      1  C   UNL     1      44.803   5.643  10.833  0.00  0.00    +0.000 A 
ATOM      2  C   UNL     1      44.150   6.316  11.859  0.00  0.00    +0.000 A 
ATOM      3  C   UNL     1      44.885   7.172  12.680  0.00  0.00    +0.000 A 
ATOM      4  C   UNL     1      46.257   7.322  12.469  0.00  0.00    +0.000 A 
ATOM      5  C   UNL     1      46.813   6.644  11.390  0.00  0.00    +0.000 A 
ATOM      6  N   UNL     1      46.117   5.822  10.565  0.00  0.00    +0.000 NA
ENDROOT
BRANCH   1   7
ATOM      7  C   UNL     1      44.073   4.621   9.998  0.00  0.00    +0.000 C 
BRANCH   7   8
ATOM      8  C   UNL     1      44.252   3.169  10.479  0.00  0.00    +0.000 C 
BRANCH   8   9
ATOM      9  N   UNL     1      45.335   3.007  11.477  0.00  0.00    +0.000 NA
ATOM     10  H   UNL     1      45.101   3.484  12.342  0.00  0.00    +0.000 HD
ATOM     11  H   UNL     1      46.172   3.461  11.096  0.00  0.00    +0.000 HD
ENDBRANCH   8   9
BRANCH   8  12
ATOM     12  C   UNL     1      44.497   2.193   9.306  0.00  0.00    +0.000 C 
ATOM     13  O   UNL     1      43.746   1.238   9.089  0.00  0.00    +0.000 OA
BRANCH  12  14
ATOM     14  C   UNL     1      45.657   2.415   8.382  0.00  0.00    +0.000 A 
ATOM     15  C   UNL     1      45.950   3.651   7.806  0.00  0.00    +0.000 A 
ATOM     16  C   UNL     1      47.006   3.724   6.909  0.00  0.00    +0.000 A 
ATOM     17  N   UNL     1      47.780   2.675   6.572  0.00  0.00    +0.000 NA
ATOM     18  C   UNL     1      47.492   1.493   7.155  0.00  0.00    +0.000 A 
ATOM     19  C   UNL     1      46.453   1.315   8.052  0.00  0.00    +0.000 A 
ENDBRANCH  12  14
ENDBRANCH   8  12
ENDBRANCH   7   8
ENDBRANCH   1   7
BRANCH   4  20
ATOM     20  C   UNL     1      47.094   8.201  13.348  0.00  0.00    +0.000 C 
BRANCH  20  21
ATOM     21  N   UNL     1      47.500   7.512  14.546  0.00  0.00    +0.000 N 
ATOM     22  C   UNL     1      48.718   6.890  14.628  0.00  0.00    +0.000 C 
ATOM     23  O   UNL     1      49.529   6.920  13.706  0.00  0.00    +0.000 OA
ATOM     24  H   UNL     1      46.773   7.269  15.210  0.00  0.00    +0.000 HD
BRANCH  22  25
ATOM     25  C   UNL     1      49.032   6.238  15.905  0.00  0.00    +0.000 A 
ATOM     26  C   UNL     1      50.071   6.724  16.688  0.00  0.00    +0.000 A 
ATOM     27  S   UNL     1      50.274   5.878  18.155  0.00  0.00    +0.000 S 
ATOM     28  C   UNL     1      49.012   4.804  17.773  0.00  0.00    +0.000 A 
ATOM     29  N   UNL     1      48.679   3.788  18.615  0.00  0.00    +0.000 NA
ATOM     30  C   UNL     1      47.726   3.030  18.187  0.00  0.00    +0.000 A 
ATOM     31  N   UNL     1      47.068   3.200  16.997  0.00  0.00    +0.000 N 
ATOM     32  C   UNL     1      47.346   4.230  16.131  0.00  0.00    +0.000 A 
ATOM     33  O   UNL     1      46.703   4.384  15.098  0.00  0.00    +0.000 OA
ATOM     34  C   UNL     1      48.427   5.099  16.554  0.00  0.00    +0.000 A 
ATOM     35  H   UNL     1      46.320   2.579  16.728  0.00  0.00    +0.000 HD
ENDBRANCH  22  25
ENDBRANCH  20  21
ENDBRANCH   4  20
TORSDOF 8
ENDMDL
MODEL 2
REMARK VINA RESULT:    -8.091      1.987      2.291
REMARK INTER + INTRA:         -12.826
REMARK INTER:                 -11.806
REMARK INTRA:                  -1.020
REMARK UNBOUND:                -1.188
REMARK  Name = 
REMARK  8 active torsions:
REMARK  status: ('A' for Active; 'I' for Inactive)
REMARK    1  A    between atoms: N_1  and  C_2
REMARK    2  A    between atoms: C_2  and  C_3
REMARK    3  A    between atoms: C_2  and  C_24
REMARK    4  A    between atoms: C_3  and  C_4
REMARK    5  A    between atoms: C_7  and  C_8
REMARK    6  A    between atoms: C_8  and  N_9
REMARK    7  A    between atoms: C_10  and  C_12
REMARK    8  A    between atoms: C_24  and  C_26
REMARK                            x       y       z     vdW  Elec       q    Type
REMARK                         _______ _______ _______ _____ _____    ______ ____
ROOT
ATOM      1  C   UNL     1      45.509   4.673  12.141  0.00  0.00    +0.000 A 
ATOM      2  C   UNL     1      46.090   4.196  13.310  0.00  0.00    +0.000 A 
ATOM      3  C   UNL     1      47.040   4.983  13.962  0.00  0.00    +0.000 A 
ATOM      4  C   UNL     1      47.401   6.219  13.421  0.00  0.00    +0.000 A 
ATOM      5  C   UNL     1      46.733   6.632  12.273  0.00  0.00    +0.000 A 
ATOM      6  N   UNL     1      45.791   5.894  11.633  0.00  0.00    +0.000 NA
ENDROOT
BRANCH   1   7
ATOM      7  C   UNL     1      44.567   3.806  11.342  0.00  0.00    +0.000 C 
BRANCH   7   8
ATOM      8  C   UNL     1      44.730   3.936   9.817  0.00  0.00    +0.000 C 
BRANCH   8   9
ATOM      9  N   UNL     1      43.663   4.740   9.175  0.00  0.00    +0.000 NA
ATOM     10  H   UNL     1      43.740   5.717   9.444  0.00  0.00    +0.000 HD
ATOM     11  H   UNL     1      42.765   4.396   9.531  0.00  0.00    +0.000 HD
ENDBRANCH   8   9
BRANCH   8  12
ATOM     12  C   UNL     1      44.810   2.559   9.120  0.00  0.00    +0.000 C 
ATOM     13  O   UNL     1      43.960   1.685   9.313  0.00  0.00    +0.000 OA
BRANCH  12  14
ATOM     14  C   UNL     1      45.928   2.272   8.164  0.00  0.00    +0.000 A 
ATOM     15  C   UNL     1      46.531   3.254   7.376  0.00  0.00    +0.000 A 
ATOM     16  C   UNL     1      47.508   2.862   6.472  0.00  0.00    +0.000 A 
ATOM     17  N   UNL     1      47.925   1.591   6.320  0.00  0.00    +0.000 NA
ATOM     18  C   UNL     1      47.342   0.660   7.104  0.00  0.00    +0.000 A 
ATOM     19  C   UNL     1      46.351   0.947   8.026  0.00  0.00    +0.000 A 
ENDBRANCH  12  14
ENDBRANCH   8  12
ENDBRANCH   7   8
ENDBRANCH   1   7
BRANCH   4  20
ATOM     20  C   UNL     1      48.443   7.083  14.065  0.00  0.00    +0.000 C 
BRANCH  20  21
ATOM     21  N   UNL     1      48.233   7.188  15.485  0.00  0.00    +0.000 N 
ATOM     22  C   UNL     1      49.139   6.675  16.376  0.00  0.00    +0.000 C 
ATOM     23  O   UNL     1      50.181   6.139  16.010  0.00  0.00    +0.000 OA
ATOM     24  H   UNL     1      47.292   7.399  15.801  0.00  0.00    +0.000 HD
BRANCH  22  25
ATOM     25  C   UNL     1      48.830   6.860  17.799  0.00  0.00    +0.000 A 
ATOM     26  C   UNL     1      48.612   8.138  18.296  0.00  0.00    +0.000 A 
ATOM     27  S   UNL     1      48.226   8.169  19.956  0.00  0.00    +0.000 S 
ATOM     28  C   UNL     1      48.382   6.480  20.080  0.00  0.00    +0.000 A 
ATOM     29  N   UNL     1      48.207   5.847  21.272  0.00  0.00    +0.000 NA
ATOM     30  C   UNL     1      48.387   4.570  21.229  0.00  0.00    +0.000 A 
ATOM     31  N   UNL     1      48.718   3.865  20.101  0.00  0.00    +0.000 N 
ATOM     32  C   UNL     1      48.870   4.456  18.870  0.00  0.00    +0.000 A 
ATOM     33  O   UNL     1      49.115   3.789  17.869  0.00  0.00    +0.000 OA
ATOM     34  C   UNL     1      48.702   5.897  18.867  0.00  0.00    +0.000 A 
ATOM     35  H   UNL     1      48.829   2.863  20.133  0.00  0.00    +0.000 HD
ENDBRANCH  22  25
ENDBRANCH  20  21
ENDBRANCH   4  20
TORSDOF 8
ENDMDL
MODEL 3
REMARK VINA RESULT:    -7.956      2.455      2.988
REMARK INTER + INTRA:         -12.632
REMARK INTER:                 -11.551
REMARK INTRA:                  -1.081
REMARK UNBOUND:                -1.188
REMARK  Name = 
REMARK  8 active torsions:
REMARK  status: ('A' for Active; 'I' for Inactive)
REMARK    1  A    between atoms: N_1  and  C_2
REMARK    2  A    between atoms: C_2  and  C_3
REMARK    3  A    between atoms: C_2  and  C_24
REMARK    4  A    between atoms: C_3  and  C_4
REMARK    5  A    between atoms: C_7  and  C_8
REMARK    6  A    between atoms: C_8  and  N_9
REMARK    7  A    between atoms: C_10  and  C_12
REMARK    8  A    between atoms: C_24  and  C_26
REMARK                            x       y       z     vdW  Elec       q    Type
REMARK                         _______ _______ _______ _____ _____    ______ ____
ROOT
ATOM      1  C   UNL     1      45.745   4.623  12.266  0.00  0.00    +0.000 A 
ATOM      2  C   UNL     1      46.251   5.806  11.742  0.00  0.00    +0.000 A 
ATOM      3  C   UNL     1      47.163   6.544  12.498  0.00  0.00    +0.000 A 
ATOM      4  C   UNL     1      47.534   6.091  13.766  0.00  0.00    +0.000 A 
ATOM      5  C   UNL     1      47.011   4.874  14.186  0.00  0.00    +0.000 A 
ATOM      6  N   UNL     1      46.138   4.128  13.462  0.00  0.00    +0.000 NA
ENDROOT
BRANCH   1   7
ATOM      7  C   UNL     1      44.669   3.858  11.535  0.00  0.00    +0.000 C 
BRANCH   7   8
ATOM      8  C   UNL     1      44.724   3.998  10.003  0.00  0.00    +0.000 C 
BRANCH   8   9
ATOM      9  N   UNL     1      43.614   4.804   9.443  0.00  0.00    +0.000 NA
ATOM     10  H   UNL     1      43.216   5.409  10.155  0.00  0.00    +0.000 HD
ATOM     11  H   UNL     1      42.878   4.150   9.153  0.00  0.00    +0.000 HD
ENDBRANCH   8   9
BRANCH   8  12
ATOM     12  C   UNL     1      44.759   2.626   9.293  0.00  0.00    +0.000 C 
ATOM     13  O   UNL     1      43.903   1.763   9.509  0.00  0.00    +0.000 OA
BRANCH  12  14
ATOM     14  C   UNL     1      45.837   2.331   8.295  0.00  0.00    +0.000 A 
ATOM     15  C   UNL     1      46.407   3.305   7.474  0.00  0.00    +0.000 A 
ATOM     16  C   UNL     1      47.348   2.905   6.536  0.00  0.00    +0.000 A 
ATOM     17  N   UNL     1      47.759   1.632   6.379  0.00  0.00    +0.000 NA
ATOM     18  C   UNL     1      47.210   0.709   7.195  0.00  0.00    +0.000 A 
ATOM     19  C   UNL     1      46.256   1.005   8.153  0.00  0.00    +0.000 A 
ENDBRANCH  12  14
ENDBRANCH   8  12
ENDBRANCH   7   8
ENDBRANCH   1   7
BRANCH   4  20
ATOM     20  C   UNL     1      48.483   6.867  14.629  0.00  0.00    +0.000 C 
BRANCH  20  21
ATOM     21  N   UNL     1      48.258   6.601  16.026  0.00  0.00    +0.000 N 
ATOM     22  C   UNL     1      49.250   6.085  16.818  0.00  0.00    +0.000 C 
ATOM     23  O   UNL     1      50.378   5.861  16.387  0.00  0.00    +0.000 OA
ATOM     24  H   UNL     1      47.294   6.546  16.339  0.00  0.00    +0.000 HD
BRANCH  22  25
ATOM     25  C   UNL     1      48.913   5.875  18.231  0.00  0.00    +0.000 A 
ATOM     26  C   UNL     1      49.143   4.637  18.817  0.00  0.00    +0.000 A 
ATOM     27  S   UNL     1      48.734   4.576  20.471  0.00  0.00    +0.000 S 
ATOM     28  C   UNL     1      48.190   6.188  20.451  0.00  0.00    +0.000 A 
ATOM     29  N   UNL     1      47.671   6.765  21.568  0.00  0.00    +0.000 NA
ATOM     30  C   UNL     1      47.268   7.980  21.404  0.00  0.00    +0.000 A 
ATOM     31  N   UNL     1      47.344   8.676  20.225  0.00  0.00    +0.000 N 
ATOM     32  C   UNL     1      47.892   8.147  19.081  0.00  0.00    +0.000 A 
ATOM     33  O   UNL     1      47.993   8.814  18.057  0.00  0.00    +0.000 OA
ATOM     34  C   UNL     1      48.340   6.773  19.206  0.00  0.00    +0.000 A 
ATOM     35  H   UNL     1      47.024   9.630  20.168  0.00  0.00    +0.000 HD
ENDBRANCH  22  25
ENDBRANCH  20  21
ENDBRANCH   4  20
TORSDOF 8
ENDMDL
MODEL 4
REMARK VINA RESULT:    -7.923      2.199      2.568
REMARK INTER + INTRA:         -12.584
REMARK INTER:                 -11.665
REMARK INTRA:                  -0.918
REMARK UNBOUND:                -1.188
REMARK  Name = 
REMARK  8 active torsions:
REMARK  status: ('A' for Active; 'I' for Inactive)
REMARK    1  A    between atoms: N_1  and  C_2
REMARK    2  A    between atoms: C_2  and  C_3
REMARK    3  A    between atoms: C_2  and  C_24
REMARK    4  A    between atoms: C_3  and  C_4
REMARK    5  A    between atoms: C_7  and  C_8
REMARK    6  A    between atoms: C_8  and  N_9
REMARK    7  A    between atoms: C_10  and  C_12
REMARK    8  A    between atoms: C_24  and  C_26
REMARK                            x       y       z     vdW  Elec       q    Type
REMARK                         _______ _______ _______ _____ _____    ______ ____
ROOT
ATOM      1  C   UNL     1      45.847   4.702  12.543  0.00  0.00    +0.000 A 
ATOM      2  C   UNL     1      46.229   5.943  12.048  0.00  0.00    +0.000 A 
ATOM      3  C   UNL     1      47.079   6.743  12.811  0.00  0.00    +0.000 A 
ATOM      4  C   UNL     1      47.514   6.293  14.060  0.00  0.00    +0.000 A 
ATOM      5  C   UNL     1      47.117   5.019  14.451  0.00  0.00    +0.000 A 
ATOM      6  N   UNL     1      46.307   4.214  13.718  0.00  0.00    +0.000 NA
ENDROOT
BRANCH   1   7
ATOM      7  C   UNL     1      44.837   3.858  11.806  0.00  0.00    +0.000 C 
BRANCH   7   8
ATOM      8  C   UNL     1      44.777   4.125  10.291  0.00  0.00    +0.000 C 
BRANCH   8   9
ATOM      9  N   UNL     1      43.623   4.962   9.884  0.00  0.00    +0.000 NA
ATOM     10  H   UNL     1      43.621   5.105   8.879  0.00  0.00    +0.000 HD
ATOM     11  H   UNL     1      43.743   5.882  10.322  0.00  0.00    +0.000 HD
ENDBRANCH   8   9
BRANCH   8  12
ATOM     12  C   UNL     1      44.764   2.817   9.469  0.00  0.00    +0.000 C 
ATOM     13  O   UNL     1      43.939   1.924   9.684  0.00  0.00    +0.000 OA
BRANCH  12  14
ATOM     14  C   UNL     1      45.756   2.624   8.361  0.00  0.00    +0.000 A 
ATOM     15  C   UNL     1      46.134   3.643   7.486  0.00  0.00    +0.000 A 
ATOM     16  C   UNL     1      47.005   3.332   6.453  0.00  0.00    +0.000 A 
ATOM     17  N   UNL     1      47.526   2.107   6.251  0.00  0.00    +0.000 NA
ATOM     18  C   UNL     1      47.163   1.140   7.120  0.00  0.00    +0.000 A 
ATOM     19  C   UNL     1      46.291   1.346   8.174  0.00  0.00    +0.000 A 
ENDBRANCH  12  14
ENDBRANCH   8  12
ENDBRANCH   7   8
ENDBRANCH   1   7
BRANCH   4  20
ATOM     20  C   UNL     1      48.399   7.132  14.932  0.00  0.00    +0.000 C 
BRANCH  20  21
ATOM     21  N   UNL     1      49.479   6.356  15.484  0.00  0.00    +0.000 N 
ATOM     22  C   UNL     1      49.479   5.975  16.800  0.00  0.00    +0.000 C 
ATOM     23  O   UNL     1      48.549   6.243  17.555  0.00  0.00    +0.000 OA
ATOM     24  H   UNL     1      50.349   6.335  14.961  0.00  0.00    +0.000 HD
BRANCH  22  25
ATOM     25  C   UNL     1      50.622   5.170  17.245  0.00  0.00    +0.000 A 
ATOM     26  C   UNL     1      51.770   5.800  17.706  0.00  0.00    +0.000 A 
ATOM     27  S   UNL     1      52.984   4.719  18.221  0.00  0.00    +0.000 S 
ATOM     28  C   UNL     1      52.035   3.370  17.804  0.00  0.00    +0.000 A 
ATOM     29  N   UNL     1      52.508   2.104  17.967  0.00  0.00    +0.000 NA
ATOM     30  C   UNL     1      51.698   1.178  17.580  0.00  0.00    +0.000 A 
ATOM     31  N   UNL     1      50.452   1.399  17.052  0.00  0.00    +0.000 N 
ATOM     32  C   UNL     1      49.919   2.657  16.901  0.00  0.00    +0.000 A 
ATOM     33  O   UNL     1      48.781   2.818  16.473  0.00  0.00    +0.000 OA
ATOM     34  C   UNL     1      50.800   3.738  17.299  0.00  0.00    +0.000 A 
ATOM     35  H   UNL     1      49.862   0.627  16.783  0.00  0.00    +0.000 HD
ENDBRANCH  22  25
ENDBRANCH  20  21
ENDBRANCH   4  20
TORSDOF 8
ENDMDL
MODEL 5
REMARK VINA RESULT:    -7.632      2.997      3.957
REMARK INTER + INTRA:         -12.166
REMARK INTER:                 -10.889
REMARK INTRA:                  -1.277
REMARK UNBOUND:                -1.188
REMARK  Name = 
REMARK  8 active torsions:
REMARK  status: ('A' for Active; 'I' for Inactive)
REMARK    1  A    between atoms: N_1  and  C_2
REMARK    2  A    between atoms: C_2  and  C_3
REMARK    3  A    between atoms: C_2  and  C_24
REMARK    4  A    between atoms: C_3  and  C_4
REMARK    5  A    between atoms: C_7  and  C_8
REMARK    6  A    between atoms: C_8  and  N_9
REMARK    7  A    between atoms: C_10  and  C_12
REMARK    8  A    between atoms: C_24  and  C_26
REMARK                            x       y       z     vdW  Elec       q    Type
REMARK                         _______ _______ _______ _____ _____    ______ ____
ROOT
ATOM      1  C   UNL     1      46.720   4.811  13.834  0.00  0.00    +0.000 A 
ATOM      2  C   UNL     1      46.896   4.292  15.112  0.00  0.00    +0.000 A 
ATOM      3  C   UNL     1      47.780   4.928  15.984  0.00  0.00    +0.000 A 
ATOM      4  C   UNL     1      48.482   6.056  15.553  0.00  0.00    +0.000 A 
ATOM      5  C   UNL     1      48.206   6.529  14.275  0.00  0.00    +0.000 A 
ATOM      6  N   UNL     1      47.336   5.940  13.416  0.00  0.00    +0.000 NA
ENDROOT
BRANCH   1   7
ATOM      7  C   UNL     1      45.866   4.089  12.823  0.00  0.00    +0.000 C 
BRANCH   7   8
ATOM      8  C   UNL     1      44.895   5.001  12.050  0.00  0.00    +0.000 C 
BRANCH   8   9
ATOM      9  N   UNL     1      43.943   5.726  12.925  0.00  0.00    +0.000 NA
ATOM     10  H   UNL     1      43.205   5.107  13.243  0.00  0.00    +0.000 HD
ATOM     11  H   UNL     1      43.504   6.458  12.357  0.00  0.00    +0.000 HD
ENDBRANCH   8   9
BRANCH   8  12
ATOM     12  C   UNL     1      44.100   4.227  10.975  0.00  0.00    +0.000 C 
ATOM     13  O   UNL     1      42.876   4.082  11.052  0.00  0.00    +0.000 OA
BRANCH  12  14
ATOM     14  C   UNL     1      44.815   3.655   9.788  0.00  0.00    +0.000 A 
ATOM     15  C   UNL     1      44.939   2.284   9.557  0.00  0.00    +0.000 A 
ATOM     16  C   UNL     1      45.685   1.867   8.464  0.00  0.00    +0.000 A 
ATOM     17  N   UNL     1      46.284   2.706   7.599  0.00  0.00    +0.000 NA
ATOM     18  C   UNL     1      46.136   4.027   7.829  0.00  0.00    +0.000 A 
ATOM     19  C   UNL     1      45.423   4.543   8.897  0.00  0.00    +0.000 A 
ENDBRANCH  12  14
ENDBRANCH   8  12
ENDBRANCH   7   8
ENDBRANCH   1   7
BRANCH   4  20
ATOM     20  C   UNL     1      49.469   6.751  16.441  0.00  0.00    +0.000 C 
BRANCH  20  21
ATOM     21  N   UNL     1      50.509   5.854  16.873  0.00  0.00    +0.000 N 
ATOM     22  C   UNL     1      50.580   5.422  18.172  0.00  0.00    +0.000 C 
ATOM     23  O   UNL     1      49.746   5.748  19.013  0.00  0.00    +0.000 OA
ATOM     24  H   UNL     1      51.326   5.769  16.278  0.00  0.00    +0.000 HD
BRANCH  22  25
ATOM     25  C   UNL     1      51.669   4.493  18.492  0.00  0.00    +0.000 A 
ATOM     26  C   UNL     1      52.741   4.928  19.261  0.00  0.00    +0.000 A 
ATOM     27  S   UNL     1      53.896   3.713  19.572  0.00  0.00    +0.000 S 
ATOM     28  C   UNL     1      53.029   2.576  18.651  0.00  0.00    +0.000 A 
ATOM     29  N   UNL     1      53.497   1.310  18.481  0.00  0.00    +0.000 NA
ATOM     30  C   UNL     1      52.757   0.563  17.733  0.00  0.00    +0.000 A 
ATOM     31  N   UNL     1      51.585   0.963  17.145  0.00  0.00    +0.000 N 
ATOM     32  C   UNL     1      51.056   2.219  17.317  0.00  0.00    +0.000 A 
ATOM     33  O   UNL     1      49.978   2.529  16.820  0.00  0.00    +0.000 OA
ATOM     34  C   UNL     1      51.862   3.108  18.131  0.00  0.00    +0.000 A 
ATOM     35  H   UNL     1      51.045   0.323  16.583  0.00  0.00    +0.000 HD
ENDBRANCH  22  25
ENDBRANCH  20  21
ENDBRANCH   4  20
TORSDOF 8
ENDMDL
MODEL 6
REMARK VINA RESULT:    -7.383      3.295      7.936
REMARK INTER + INTRA:         -11.807
REMARK INTER:                 -10.388
REMARK INTRA:                  -1.419
REMARK UNBOUND:                -1.188
REMARK  Name = 
REMARK  8 active torsions:
REMARK  status: ('A' for Active; 'I' for Inactive)
REMARK    1  A    between atoms: N_1  and  C_2
REMARK    2  A    between atoms: C_2  and  C_3
REMARK    3  A    between atoms: C_2  and  C_24
REMARK    4  A    between atoms: C_3  and  C_4
REMARK    5  A    between atoms: C_7  and  C_8
REMARK    6  A    between atoms: C_8  and  N_9
REMARK    7  A    between atoms: C_10  and  C_12
REMARK    8  A    between atoms: C_24  and  C_26
REMARK                            x       y       z     vdW  Elec       q    Type
REMARK                         _______ _______ _______ _____ _____    ______ ____
ROOT
ATOM      1  C   UNL     1      48.938   7.261  16.402  0.00  0.00    +0.000 A 
ATOM      2  C   UNL     1      48.527   8.540  16.047  0.00  0.00    +0.000 A 
ATOM      3  C   UNL     1      48.256   8.815  14.706  0.00  0.00    +0.000 A 
ATOM      4  C   UNL     1      48.421   7.811  13.749  0.00  0.00    +0.000 A 
ATOM      5  C   UNL     1      48.791   6.551  14.206  0.00  0.00    +0.000 A 
ATOM      6  N   UNL     1      49.041   6.254  15.506  0.00  0.00    +0.000 NA
ENDROOT
BRANCH   1   7
ATOM      7  C   UNL     1      49.354   6.954  17.820  0.00  0.00    +0.000 C 
BRANCH   7   8
ATOM      8  C   UNL     1      48.265   6.265  18.662  0.00  0.00    +0.000 C 
BRANCH   8   9
ATOM      9  N   UNL     1      47.813   7.074  19.819  0.00  0.00    +0.000 NA
ATOM     10  H   UNL     1      47.175   6.541  20.401  0.00  0.00    +0.000 HD
ATOM     11  H   UNL     1      47.290   7.874  19.447  0.00  0.00    +0.000 HD
ENDBRANCH   8   9
BRANCH   8  12
ATOM     12  C   UNL     1      48.711   4.873  19.164  0.00  0.00    +0.000 C 
ATOM     13  O   UNL     1      48.790   4.613  20.368  0.00  0.00    +0.000 OA
BRANCH  12  14
ATOM     14  C   UNL     1      49.032   3.793  18.175  0.00  0.00    +0.000 A 
ATOM     15  C   UNL     1      50.312   3.263  18.010  0.00  0.00    +0.000 A 
ATOM     16  C   UNL     1      50.508   2.317  17.015  0.00  0.00    +0.000 A 
ATOM     17  N   UNL     1      49.533   1.865  16.205  0.00  0.00    +0.000 NA
ATOM     18  C   UNL     1      48.298   2.376  16.393  0.00  0.00    +0.000 A 
ATOM     19  C   UNL     1      48.003   3.331  17.350  0.00  0.00    +0.000 A 
ENDBRANCH  12  14
ENDBRANCH   8  12
ENDBRANCH   7   8
ENDBRANCH   1   7
BRANCH   4  20
ATOM     20  C   UNL     1      48.177   8.068  12.293  0.00  0.00    +0.000 C 
BRANCH  20  21
ATOM     21  N   UNL     1      47.518   6.951  11.666  0.00  0.00    +0.000 N 
ATOM     22  C   UNL     1      46.157   6.927  11.510  0.00  0.00    +0.000 C 
ATOM     23  O   UNL     1      45.444   7.864  11.862  0.00  0.00    +0.000 OA
ATOM     24  H   UNL     1      48.041   6.085  11.593  0.00  0.00    +0.000 HD
BRANCH  22  25
ATOM     25  C   UNL     1      45.598   5.748  10.838  0.00  0.00    +0.000 A 
ATOM     26  C   UNL     1      45.797   5.575   9.475  0.00  0.00    +0.000 A 
ATOM     27  S   UNL     1      45.118   4.135   8.863  0.00  0.00    +0.000 S 
ATOM     28  C   UNL     1      44.494   3.717  10.389  0.00  0.00    +0.000 A 
ATOM     29  N   UNL     1      43.761   2.583  10.559  0.00  0.00    +0.000 NA
ATOM     30  C   UNL     1      43.322   2.405  11.759  0.00  0.00    +0.000 A 
ATOM     31  N   UNL     1      43.557   3.253  12.811  0.00  0.00    +0.000 N 
ATOM     32  C   UNL     1      44.320   4.391  12.695  0.00  0.00    +0.000 A 
ATOM     33  O   UNL     1      44.555   5.101  13.668  0.00  0.00    +0.000 OA
ATOM     34  C   UNL     1      44.818   4.650  11.358  0.00  0.00    +0.000 A 
ATOM     35  H   UNL     1      43.197   3.047  13.730  0.00  0.00    +0.000 HD
ENDBRANCH  22  25
ENDBRANCH  20  21
ENDBRANCH   4  20
TORSDOF 8
ENDMDL
MODEL 7
REMARK VINA RESULT:    -7.279      2.885      3.249
REMARK INTER + INTRA:         -11.658
REMARK INTER:                 -11.090
REMARK INTRA:                  -0.568
REMARK UNBOUND:                -1.188
REMARK  Name = 
REMARK  8 active torsions:
REMARK  status: ('A' for Active; 'I' for Inactive)
REMARK    1  A    between atoms: N_1  and  C_2
REMARK    2  A    between atoms: C_2  and  C_3
REMARK    3  A    between atoms: C_2  and  C_24
REMARK    4  A    between atoms: C_3  and  C_4
REMARK    5  A    between atoms: C_7  and  C_8
REMARK    6  A    between atoms: C_8  and  N_9
REMARK    7  A    between atoms: C_10  and  C_12
REMARK    8  A    between atoms: C_24  and  C_26
REMARK                            x       y       z     vdW  Elec       q    Type
REMARK                         _______ _______ _______ _____ _____    ______ ____
ROOT
ATOM      1  C   UNL     1      45.898   4.765  12.816  0.00  0.00    +0.000 A 
ATOM      2  C   UNL     1      47.149   4.840  13.416  0.00  0.00    +0.000 A 
ATOM      3  C   UNL     1      47.668   6.093  13.743  0.00  0.00    +0.000 A 
ATOM      4  C   UNL     1      46.933   7.243  13.447  0.00  0.00    +0.000 A 
ATOM      5  C   UNL     1      45.672   7.067  12.888  0.00  0.00    +0.000 A 
ATOM      6  N   UNL     1      45.138   5.859  12.579  0.00  0.00    +0.000 NA
ENDROOT
BRANCH   1   7
ATOM      7  C   UNL     1      45.352   3.442  12.339  0.00  0.00    +0.000 C 
BRANCH   7   8
ATOM      8  C   UNL     1      43.941   3.524  11.729  0.00  0.00    +0.000 C 
BRANCH   8   9
ATOM      9  N   UNL     1      43.207   2.237  11.761  0.00  0.00    +0.000 NA
ATOM     10  H   UNL     1      43.795   1.499  12.136  0.00  0.00    +0.000 HD
ATOM     11  H   UNL     1      42.985   1.987  10.792  0.00  0.00    +0.000 HD
ENDBRANCH   8   9
BRANCH   8  12
ATOM     12  C   UNL     1      43.963   4.054  10.277  0.00  0.00    +0.000 C 
ATOM     13  O   UNL     1      43.193   4.942   9.899  0.00  0.00    +0.000 OA
BRANCH  12  14
ATOM     14  C   UNL     1      44.958   3.505   9.299  0.00  0.00    +0.000 A 
ATOM     15  C   UNL     1      45.702   4.307   8.433  0.00  0.00    +0.000 A 
ATOM     16  C   UNL     1      46.541   3.685   7.520  0.00  0.00    +0.000 A 
ATOM     17  N   UNL     1      46.696   2.351   7.429  0.00  0.00    +0.000 NA
ATOM     18  C   UNL     1      45.982   1.594   8.288  0.00  0.00    +0.000 A 
ATOM     19  C   UNL     1      45.110   2.118   9.226  0.00  0.00    +0.000 A 
ENDBRANCH  12  14
ENDBRANCH   8  12
ENDBRANCH   7   8
ENDBRANCH   1   7
BRANCH   4  20
ATOM     20  C   UNL     1      47.465   8.612  13.746  0.00  0.00    +0.000 C 
BRANCH  20  21
ATOM     21  N   UNL     1      47.281   8.955  15.133  0.00  0.00    +0.000 N 
ATOM     22  C   UNL     1      48.330   8.929  16.014  0.00  0.00    +0.000 C 
ATOM     23  O   UNL     1      49.472   8.651  15.661  0.00  0.00    +0.000 OA
ATOM     24  H   UNL     1      46.332   8.948  15.491  0.00  0.00    +0.000 HD
BRANCH  22  25
ATOM     25  C   UNL     1      48.028   9.318  17.397  0.00  0.00    +0.000 A 
ATOM     26  C   UNL     1      47.869  10.661  17.715  0.00  0.00    +0.000 A 
ATOM     27  S   UNL     1      47.483  10.933  19.354  0.00  0.00    +0.000 S 
ATOM     28  C   UNL     1      47.561   9.271  19.705  0.00  0.00    +0.000 A 
ATOM     29  N   UNL     1      47.356   8.813  20.970  0.00  0.00    +0.000 NA
ATOM     30  C   UNL     1      47.476   7.535  21.101  0.00  0.00    +0.000 A 
ATOM     31  N   UNL     1      47.776   6.670  20.081  0.00  0.00    +0.000 N 
ATOM     32  C   UNL     1      47.957   7.082  18.782  0.00  0.00    +0.000 A 
ATOM     33  O   UNL     1      48.171   6.276  17.883  0.00  0.00    +0.000 OA
ATOM     34  C   UNL     1      47.855   8.515  18.584  0.00  0.00    +0.000 A 
ATOM     35  H   UNL     1      47.841   5.677  20.249  0.00  0.00    +0.000 HD
ENDBRANCH  22  25
ENDBRANCH  20  21
ENDBRANCH   4  20
TORSDOF 8
ENDMDL
MODEL 8
REMARK VINA RESULT:    -7.249      2.275      3.016
REMARK INTER + INTRA:         -11.615
REMARK INTER:                 -10.282
REMARK INTRA:                  -1.333
REMARK UNBOUND:                -1.188
REMARK  Name = 
REMARK  8 active torsions:
REMARK  status: ('A' for Active; 'I' for Inactive)
REMARK    1  A    between atoms: N_1  and  C_2
REMARK    2  A    between atoms: C_2  and  C_3
REMARK    3  A    between atoms: C_2  and  C_24
REMARK    4  A    between atoms: C_3  and  C_4
REMARK    5  A    between atoms: C_7  and  C_8
REMARK    6  A    between atoms: C_8  and  N_9
REMARK    7  A    between atoms: C_10  and  C_12
REMARK    8  A    between atoms: C_24  and  C_26
REMARK                            x       y       z     vdW  Elec       q    Type
REMARK                         _______ _______ _______ _____ _____    ______ ____
ROOT
ATOM      1  C   UNL     1      45.587   5.818  12.790  0.00  0.00    +0.000 A 
ATOM      2  C   UNL     1      45.785   6.844  11.874  0.00  0.00    +0.000 A 
ATOM      3  C   UNL     1      46.999   7.532  11.881  0.00  0.00    +0.000 A 
ATOM      4  C   UNL     1      47.979   7.191  12.816  0.00  0.00    +0.000 A 
ATOM      5  C   UNL     1      47.708   6.121  13.661  0.00  0.00    +0.000 A 
ATOM      6  N   UNL     1      46.544   5.424  13.660  0.00  0.00    +0.000 NA
ENDROOT
BRANCH   1   7
ATOM      7  C   UNL     1      44.249   5.129  12.894  0.00  0.00    +0.000 C 
BRANCH   7   8
ATOM      8  C   UNL     1      43.500   4.997  11.555  0.00  0.00    +0.000 C 
BRANCH   8   9
ATOM      9  N   UNL     1      42.075   5.397  11.633  0.00  0.00    +0.000 NA
ATOM     10  H   UNL     1      41.947   6.337  11.271  0.00  0.00    +0.000 HD
ATOM     11  H   UNL     1      41.817   5.414  12.625  0.00  0.00    +0.000 HD
ENDBRANCH   8   9
BRANCH   8  12
ATOM     12  C   UNL     1      43.591   3.567  10.976  0.00  0.00    +0.000 C 
ATOM     13  O   UNL     1      42.928   2.635  11.442  0.00  0.00    +0.000 OA
BRANCH  12  14
ATOM     14  C   UNL     1      44.483   3.294   9.803  0.00  0.00    +0.000 A 
ATOM     15  C   UNL     1      44.893   2.012   9.435  0.00  0.00    +0.000 A 
ATOM     16  C   UNL     1      45.778   1.884   8.374  0.00  0.00    +0.000 A 
ATOM     17  N   UNL     1      46.254   2.924   7.663  0.00  0.00    +0.000 NA
ATOM     18  C   UNL     1      45.831   4.153   8.022  0.00  0.00    +0.000 A 
ATOM     19  C   UNL     1      44.960   4.386   9.072  0.00  0.00    +0.000 A 
ENDBRANCH  12  14
ENDBRANCH   8  12
ENDBRANCH   7   8
ENDBRANCH   1   7
BRANCH   4  20
ATOM     20  C   UNL     1      49.284   7.925  12.886  0.00  0.00    +0.000 C 
BRANCH  20  21
ATOM     21  N   UNL     1      50.195   7.288  13.801  0.00  0.00    +0.000 N 
ATOM     22  C   UNL     1      50.938   8.022  14.689  0.00  0.00    +0.000 C 
ATOM     23  O   UNL     1      50.836   9.243  14.771  0.00  0.00    +0.000 OA
ATOM     24  H   UNL     1      50.473   6.335  13.592  0.00  0.00    +0.000 HD
BRANCH  22  25
ATOM     25  C   UNL     1      51.817   7.264  15.587  0.00  0.00    +0.000 A 
ATOM     26  C   UNL     1      53.194   7.422  15.497  0.00  0.00    +0.000 A 
ATOM     27  S   UNL     1      54.063   6.500  16.638  0.00  0.00    +0.000 S 
ATOM     28  C   UNL     1      52.633   5.822  17.261  0.00  0.00    +0.000 A 
ATOM     29  N   UNL     1      52.673   4.904  18.265  0.00  0.00    +0.000 NA
ATOM     30  C   UNL     1      51.519   4.449  18.619  0.00  0.00    +0.000 A 
ATOM     31  N   UNL     1      50.325   4.833  18.066  0.00  0.00    +0.000 N 
ATOM     32  C   UNL     1      50.232   5.781  17.075  0.00  0.00    +0.000 A 
ATOM     33  O   UNL     1      49.143   6.140  16.638  0.00  0.00    +0.000 OA
ATOM     34  C   UNL     1      51.505   6.308  16.623  0.00  0.00    +0.000 A 
ATOM     35  H   UNL     1      49.454   4.448  18.400  0.00  0.00    +0.000 HD
ENDBRANCH  22  25
ENDBRANCH  20  21
ENDBRANCH   4  20
TORSDOF 8
ENDMDL
MODEL 9
REMARK VINA RESULT:    -7.242      2.905      8.262
REMARK INTER + INTRA:         -11.604
REMARK INTER:                  -9.985
REMARK INTRA:                  -1.620
REMARK UNBOUND:                -1.188
REMARK  Name = 
REMARK  8 active torsions:
REMARK  status: ('A' for Active; 'I' for Inactive)
REMARK    1  A    between atoms: N_1  and  C_2
REMARK    2  A    between atoms: C_2  and  C_3
REMARK    3  A    between atoms: C_2  and  C_24
REMARK    4  A    between atoms: C_3  and  C_4
REMARK    5  A    between atoms: C_7  and  C_8
REMARK    6  A    between atoms: C_8  and  N_9
REMARK    7  A    between atoms: C_10  and  C_12
REMARK    8  A    between atoms: C_24  and  C_26
REMARK                            x       y       z     vdW  Elec       q    Type
REMARK                         _______ _______ _______ _____ _____    ______ ____
ROOT
ATOM      1  C   UNL     1      49.122   7.831  16.025  0.00  0.00    +0.000 A 
ATOM      2  C   UNL     1      49.651   6.916  15.123  0.00  0.00    +0.000 A 
ATOM      3  C   UNL     1      49.169   6.902  13.814  0.00  0.00    +0.000 A 
ATOM      4  C   UNL     1      48.157   7.789  13.441  0.00  0.00    +0.000 A 
ATOM      5  C   UNL     1      47.723   8.699  14.399  0.00  0.00    +0.000 A 
ATOM      6  N   UNL     1      48.190   8.746  15.673  0.00  0.00    +0.000 NA
ENDROOT
BRANCH   1   7
ATOM      7  C   UNL     1      49.529   7.802  17.478  0.00  0.00    +0.000 C 
BRANCH   7   8
ATOM      8  C   UNL     1      48.719   6.817  18.340  0.00  0.00    +0.000 C 
BRANCH   8   9
ATOM      9  N   UNL     1      48.202   7.416  19.593  0.00  0.00    +0.000 NA
ATOM     10  H   UNL     1      47.402   8.012  19.403  0.00  0.00    +0.000 HD
ATOM     11  H   UNL     1      48.943   8.013  19.975  0.00  0.00    +0.000 HD
ENDBRANCH   8   9
BRANCH   8  12
ATOM     12  C   UNL     1      49.526   5.545  18.686  0.00  0.00    +0.000 C 
ATOM     13  O   UNL     1      50.258   5.491  19.679  0.00  0.00    +0.000 OA
BRANCH  12  14
ATOM     14  C   UNL     1      49.408   4.329  17.817  0.00  0.00    +0.000 A 
ATOM     15  C   UNL     1      48.248   4.001  17.114  0.00  0.00    +0.000 A 
ATOM     16  C   UNL     1      48.228   2.813  16.398  0.00  0.00    +0.000 A 
ATOM     17  N   UNL     1      49.268   1.961  16.325  0.00  0.00    +0.000 NA
ATOM     18  C   UNL     1      50.386   2.306  16.997  0.00  0.00    +0.000 A 
ATOM     19  C   UNL     1      50.502   3.462  17.749  0.00  0.00    +0.000 A 
ENDBRANCH  12  14
ENDBRANCH   8  12
ENDBRANCH   7   8
ENDBRANCH   1   7
BRANCH   4  20
ATOM     20  C   UNL     1      47.582   7.787  12.057  0.00  0.00    +0.000 C 
BRANCH  20  21
ATOM     21  N   UNL     1      46.890   6.555  11.778  0.00  0.00    +0.000 N 
ATOM     22  C   UNL     1      45.530   6.459  11.914  0.00  0.00    +0.000 C 
ATOM     23  O   UNL     1      44.838   7.419  12.241  0.00  0.00    +0.000 OA
ATOM     24  H   UNL     1      47.447   5.707  11.747  0.00  0.00    +0.000 HD
BRANCH  22  25
ATOM     25  C   UNL     1      44.933   5.160  11.582  0.00  0.00    +0.000 A 
ATOM     26  C   UNL     1      44.203   4.473  12.543  0.00  0.00    +0.000 A 
ATOM     27  S   UNL     1      43.545   3.004  11.980  0.00  0.00    +0.000 S 
ATOM     28  C   UNL     1      44.251   3.212  10.447  0.00  0.00    +0.000 A 
ATOM     29  N   UNL     1      44.100   2.273   9.473  0.00  0.00    +0.000 NA
ATOM     30  C   UNL     1      44.715   2.543   8.371  0.00  0.00    +0.000 A 
ATOM     31  N   UNL     1      45.461   3.671   8.149  0.00  0.00    +0.000 N 
ATOM     32  C   UNL     1      45.613   4.662   9.089  0.00  0.00    +0.000 A 
ATOM     33  O   UNL     1      46.244   5.684   8.840  0.00  0.00    +0.000 OA
ATOM     34  C   UNL     1      44.961   4.397  10.357  0.00  0.00    +0.000 A 
ATOM     35  H   UNL     1      45.904   3.829   7.257  0.00  0.00    +0.000 HD
ENDBRANCH  22  25
ENDBRANCH  20  21
ENDBRANCH   4  20
TORSDOF 8
ENDMDL
