MODEL 1
REMARK VINA RESULT:    -7.918      0.000      0.000
REMARK INTER + INTRA:         -12.642
REMARK INTER:                 -11.621
REMARK INTRA:                  -1.021
REMARK UNBOUND:                -1.021
REMARK  Name = 
REMARK  9 active torsions:
REMARK  status: ('A' for Active; 'I' for Inactive)
REMARK    1  A    between atoms: C_1  and  C_2
REMARK    2  A    between atoms: C_2  and  N_3
REMARK    3  A    between atoms: C_2  and  C_11
REMARK    4  A    between atoms: N_3  and  C_4
REMARK    5  A    between atoms: C_4  and  C_5
REMARK    6  A    between atoms: C_14  and  C_15
REMARK    7  A    between atoms: C_15  and  N_16
REMARK    8  A    between atoms: N_16  and  C_17
REMARK    9  A    between atoms: C_17  and  C_18
REMARK                            x       y       z     vdW  Elec       q    Type
REMARK                         _______ _______ _______ _____ _____    ______ ____
ROOT
ATOM      1  C   UNL     1      47.104   6.024  12.729  0.00  0.00    +0.000 A 
ATOM      2  C   UNL     1      46.235   5.057  13.257  0.00  0.00    +0.000 A 
ATOM      3  C   UNL     1      45.103   4.651  12.551  0.00  0.00    +0.000 A 
ATOM      4  C   UNL     1      44.809   5.194  11.293  0.00  0.00    +0.000 A 
ATOM      5  C   UNL     1      45.709   6.112  10.736  0.00  0.00    +0.000 A 
ATOM      6  C   UNL     1      46.832   6.534  11.452  0.00  0.00    +0.000 A 
ENDROOT
BRANCH   1   8
ATOM      7  C   UNL     1      48.850   7.844  13.045  0.00  0.00    +0.000 C 
ATOM      8  C   UNL     1      48.246   6.543  13.592  0.00  0.00    +0.000 C 
BRANCH   8   9
ATOM      9  N   UNL     1      47.828   6.774  14.990  0.00  0.00    +0.000 NA
ATOM     10  H   UNL     1      46.966   6.256  15.160  0.00  0.00    +0.000 HD
BRANCH   9  11
ATOM     11  C   UNL     1      48.839   6.349  15.961  0.00  0.00    +0.000 C 
BRANCH  11  12
ATOM     12  C   UNL     1      48.459   5.091  16.671  0.00  0.00    +0.000 A 
ATOM     13  C   UNL     1      47.192   4.543  16.570  0.00  0.00    +0.000 A 
ATOM     14  N   UNL     1      46.823   3.386  17.152  0.00  0.00    +0.000 NA
ATOM     15  C   UNL     1      47.778   2.766  17.859  0.00  0.00    +0.000 A 
ATOM     16  N   UNL     1      49.038   3.193  18.034  0.00  0.00    +0.000 NA
ATOM     17  C   UNL     1      49.348   4.359  17.431  0.00  0.00    +0.000 A 
ENDBRANCH  11  12
ENDBRANCH   9  11
ENDBRANCH   8   9
ENDBRANCH   1   8
BRANCH   4  18
ATOM     18  C   UNL     1      43.577   4.777  10.521  0.00  0.00    +0.000 C 
BRANCH  18  19
ATOM     19  N   UNL     1      43.931   4.190   9.231  0.00  0.00    +0.000 NA
ATOM     20  H   UNL     1      44.697   4.728   8.823  0.00  0.00    +0.000 HD
BRANCH  19  21
ATOM     21  C   UNL     1      44.376   2.801   9.370  0.00  0.00    +0.000 C 
BRANCH  21  22
ATOM     22  C   UNL     1      45.504   2.489   8.406  0.00  0.00    +0.000 A 
ATOM     23  C   UNL     1      46.019   3.492   7.586  0.00  0.00    +0.000 A 
ATOM     24  C   UNL     1      47.078   3.187   6.731  0.00  0.00    +0.000 A 
ATOM     25  C   UNL     1      47.585   1.896   6.717  0.00  0.00    +0.000 A 
ATOM     26  C   UNL     1      47.017   0.957   7.564  0.00  0.00    +0.000 A 
ATOM     27  N   UNL     1      45.993   1.222   8.406  0.00  0.00    +0.000 NA
ENDBRANCH  21  22
ENDBRANCH  19  21
ENDBRANCH  18  19
ENDBRANCH   4  18
TORSDOF 8
ENDMDL
MODEL 2
REMARK VINA RESULT:    -7.502      1.149      8.221
REMARK INTER + INTRA:         -12.031
REMARK INTER:                 -10.964
REMARK INTRA:                  -1.066
REMARK UNBOUND:                -1.021
REMARK  Name = 
REMARK  9 active torsions:
REMARK  status: ('A' for Active; 'I' for Inactive)
REMARK    1  A    between atoms: C_1  and  C_2
REMARK    2  A    between atoms: C_2  and  N_3
REMARK    3  A    between atoms: C_2  and  C_11
REMARK    4  A    between atoms: N_3  and  C_4
REMARK    5  A    between atoms: C_4  and  C_5
REMARK    6  A    between atoms: C_14  and  C_15
REMARK    7  A    between atoms: C_15  and  N_16
REMARK    8  A    between atoms: N_16  and  C_17
REMARK    9  A    between atoms: C_17  and  C_18
REMARK                            x       y       z     vdW  Elec       q    Type
REMARK                         _______ _______ _______ _____ _____    ______ ____
ROOT
ATOM      1  C   UNL     1      45.735   5.183  11.790  0.00  0.00    +0.000 A 
ATOM      2  C   UNL     1      46.492   6.307  11.423  0.00  0.00    +0.000 A 
ATOM      3  C   UNL     1      47.451   6.837  12.286  0.00  0.00    +0.000 A 
ATOM      4  C   UNL     1      47.688   6.255  13.539  0.00  0.00    +0.000 A 
ATOM      5  C   UNL     1      46.980   5.097  13.881  0.00  0.00    +0.000 A 
ATOM      6  C   UNL     1      46.005   4.577  13.025  0.00  0.00    +0.000 A 
ENDROOT
BRANCH   1   8
ATOM      7  C   UNL     1      43.250   5.331  11.282  0.00  0.00    +0.000 C 
ATOM      8  C   UNL     1      44.603   4.725  10.882  0.00  0.00    +0.000 C 
BRANCH   8   9
ATOM      9  N   UNL     1      44.859   5.049   9.464  0.00  0.00    +0.000 NA
ATOM     10  H   UNL     1      45.862   5.179   9.338  0.00  0.00    +0.000 HD
BRANCH   9  11
ATOM     11  C   UNL     1      44.394   4.002   8.551  0.00  0.00    +0.000 C 
BRANCH  11  12
ATOM     12  C   UNL     1      45.504   3.120   8.079  0.00  0.00    +0.000 A 
ATOM     13  C   UNL     1      45.630   1.808   8.498  0.00  0.00    +0.000 A 
ATOM     14  N   UNL     1      46.585   0.965   8.059  0.00  0.00    +0.000 NA
ATOM     15  C   UNL     1      47.438   1.478   7.161  0.00  0.00    +0.000 A 
ATOM     16  N   UNL     1      47.423   2.730   6.679  0.00  0.00    +0.000 NA
ATOM     17  C   UNL     1      46.448   3.529   7.158  0.00  0.00    +0.000 A 
ENDBRANCH  11  12
ENDBRANCH   9  11
ENDBRANCH   8   9
ENDBRANCH   1   8
BRANCH   4  18
ATOM     18  C   UNL     1      48.713   6.828  14.493  0.00  0.00    +0.000 C 
BRANCH  18  19
ATOM     19  N   UNL     1      48.124   7.105  15.801  0.00  0.00    +0.000 NA
ATOM     20  H   UNL     1      47.223   6.630  15.864  0.00  0.00    +0.000 HD
BRANCH  19  21
ATOM     21  C   UNL     1      48.972   6.616  16.892  0.00  0.00    +0.000 C 
BRANCH  21  22
ATOM     22  C   UNL     1      48.772   5.129  17.116  0.00  0.00    +0.000 A 
ATOM     23  C   UNL     1      47.490   4.621  17.318  0.00  0.00    +0.000 A 
ATOM     24  C   UNL     1      47.328   3.246  17.489  0.00  0.00    +0.000 A 
ATOM     25  C   UNL     1      48.446   2.425  17.459  0.00  0.00    +0.000 A 
ATOM     26  C   UNL     1      49.686   3.010  17.252  0.00  0.00    +0.000 A 
ATOM     27  N   UNL     1      49.874   4.337  17.079  0.00  0.00    +0.000 NA
ENDBRANCH  21  22
ENDBRANCH  19  21
ENDBRANCH  18  19
ENDBRANCH   4  18
TORSDOF 8
ENDMDL
MODEL 3
REMARK VINA RESULT:    -6.984      1.192      1.434
REMARK INTER + INTRA:         -11.271
REMARK INTER:                 -10.410
REMARK INTRA:                  -0.861
REMARK UNBOUND:                -1.021
REMARK  Name = 
REMARK  9 active torsions:
REMARK  status: ('A' for Active; 'I' for Inactive)
REMARK    1  A    between atoms: C_1  and  C_2
REMARK    2  A    between atoms: C_2  and  N_3
REMARK    3  A    between atoms: C_2  and  C_11
REMARK    4  A    between atoms: N_3  and  C_4
REMARK    5  A    between atoms: C_4  and  C_5
REMARK    6  A    between atoms: C_14  and  C_15
REMARK    7  A    between atoms: C_15  and  N_16
REMARK    8  A    between atoms: N_16  and  C_17
REMARK    9  A    between atoms: C_17  and  C_18
REMARK                            x       y       z     vdW  Elec       q    Type
REMARK                         _______ _______ _______ _____ _____    ______ ____
ROOT
ATOM      1  C   UNL     1      47.007   5.847  12.861  0.00  0.00    +0.000 A 
ATOM      2  C   UNL     1      46.388   4.708  13.398  0.00  0.00    +0.000 A 
ATOM      3  C   UNL     1      45.285   4.130  12.772  0.00  0.00    +0.000 A 
ATOM      4  C   UNL     1      44.772   4.667  11.583  0.00  0.00    +0.000 A 
ATOM      5  C   UNL     1      45.426   5.765  11.010  0.00  0.00    +0.000 A 
ATOM      6  C   UNL     1      46.519   6.357  11.649  0.00  0.00    +0.000 A 
ENDROOT
BRANCH   1   8
ATOM      7  C   UNL     1      48.289   8.005  13.260  0.00  0.00    +0.000 C 
ATOM      8  C   UNL     1      48.114   6.531  13.651  0.00  0.00    +0.000 C 
BRANCH   8   9
ATOM      9  N   UNL     1      47.887   6.457  15.108  0.00  0.00    +0.000 NA
ATOM     10  H   UNL     1      47.419   5.576  15.319  0.00  0.00    +0.000 HD
BRANCH   9  11
ATOM     11  C   UNL     1      49.129   6.535  15.880  0.00  0.00    +0.000 C 
BRANCH  11  12
ATOM     12  C   UNL     1      49.054   5.775  17.164  0.00  0.00    +0.000 A 
ATOM     13  C   UNL     1      48.172   6.120  18.173  0.00  0.00    +0.000 A 
ATOM     14  N   UNL     1      48.037   5.433  19.324  0.00  0.00    +0.000 NA
ATOM     15  C   UNL     1      48.826   4.356  19.448  0.00  0.00    +0.000 A 
ATOM     16  N   UNL     1      49.719   3.920  18.547  0.00  0.00    +0.000 NA
ATOM     17  C   UNL     1      49.813   4.650  17.417  0.00  0.00    +0.000 A 
ENDBRANCH  11  12
ENDBRANCH   9  11
ENDBRANCH   8   9
ENDBRANCH   1   8
BRANCH   4  18
ATOM     18  C   UNL     1      43.566   4.062  10.899  0.00  0.00    +0.000 C 
BRANCH  18  19
ATOM     19  N   UNL     1      43.865   3.703   9.515  0.00  0.00    +0.000 NA
ATOM     20  H   UNL     1      44.523   4.383   9.133  0.00  0.00    +0.000 HD
BRANCH  19  21
ATOM     21  C   UNL     1      44.478   2.376   9.419  0.00  0.00    +0.000 C 
BRANCH  21  22
ATOM     22  C   UNL     1      45.627   2.373   8.429  0.00  0.00    +0.000 A 
ATOM     23  C   UNL     1      46.289   1.183   8.131  0.00  0.00    +0.000 A 
ATOM     24  C   UNL     1      47.321   1.202   7.193  0.00  0.00    +0.000 A 
ATOM     25  C   UNL     1      47.662   2.402   6.587  0.00  0.00    +0.000 A 
ATOM     26  C   UNL     1      46.954   3.541   6.938  0.00  0.00    +0.000 A 
ATOM     27  N   UNL     1      45.947   3.555   7.840  0.00  0.00    +0.000 NA
ENDBRANCH  21  22
ENDBRANCH  19  21
ENDBRANCH  18  19
ENDBRANCH   4  18
TORSDOF 8
ENDMDL
MODEL 4
REMARK VINA RESULT:    -6.791      1.420      2.364
REMARK INTER + INTRA:         -10.988
REMARK INTER:                  -9.955
REMARK INTRA:                  -1.033
REMARK UNBOUND:                -1.021
REMARK  Name = 
REMARK  9 active torsions:
REMARK  status: ('A' for Active; 'I' for Inactive)
REMARK    1  A    between atoms: C_1  and  C_2
REMARK    2  A    between atoms: C_2  and  N_3
REMARK    3  A    between atoms: C_2  and  C_11
REMARK    4  A    between atoms: N_3  and  C_4
REMARK    5  A    between atoms: C_4  and  C_5
REMARK    6  A    between atoms: C_14  and  C_15
REMARK    7  A    between atoms: C_15  and  N_16
REMARK    8  A    between atoms: N_16  and  C_17
REMARK    9  A    between atoms: C_17  and  C_18
REMARK                            x       y       z     vdW  Elec       q    Type
REMARK                         _______ _______ _______ _____ _____    ______ ____
ROOT
ATOM      1  C   UNL     1      48.394   7.702  13.617  0.00  0.00    +0.000 A 
ATOM      2  C   UNL     1      48.288   6.621  12.729  0.00  0.00    +0.000 A 
ATOM      3  C   UNL     1      47.090   6.356  12.064  0.00  0.00    +0.000 A 
ATOM      4  C   UNL     1      45.966   7.170  12.261  0.00  0.00    +0.000 A 
ATOM      5  C   UNL     1      46.089   8.287  13.096  0.00  0.00    +0.000 A 
ATOM      6  C   UNL     1      47.282   8.540  13.778  0.00  0.00    +0.000 A 
ENDROOT
BRANCH   1   8
ATOM      7  C   UNL     1      49.590   9.046  15.413  0.00  0.00    +0.000 C 
ATOM      8  C   UNL     1      49.671   7.870  14.429  0.00  0.00    +0.000 C 
BRANCH   8   9
ATOM      9  N   UNL     1      50.014   6.649  15.187  0.00  0.00    +0.000 NA
ATOM     10  H   UNL     1      51.028   6.599  15.279  0.00  0.00    +0.000 HD
BRANCH   9  11
ATOM     11  C   UNL     1      49.411   6.624  16.522  0.00  0.00    +0.000 C 
BRANCH  11  12
ATOM     12  C   UNL     1      48.707   5.337  16.807  0.00  0.00    +0.000 A 
ATOM     13  C   UNL     1      49.020   4.555  17.904  0.00  0.00    +0.000 A 
ATOM     14  N   UNL     1      48.377   3.415  18.225  0.00  0.00    +0.000 NA
ATOM     15  C   UNL     1      47.380   3.064  17.401  0.00  0.00    +0.000 A 
ATOM     16  N   UNL     1      46.983   3.733  16.308  0.00  0.00    +0.000 NA
ATOM     17  C   UNL     1      47.666   4.863  16.035  0.00  0.00    +0.000 A 
ENDBRANCH  11  12
ENDBRANCH   9  11
ENDBRANCH   8   9
ENDBRANCH   1   8
BRANCH   4  18
ATOM     18  C   UNL     1      44.656   6.887  11.560  0.00  0.00    +0.000 C 
BRANCH  18  19
ATOM     19  N   UNL     1      44.870   6.198  10.289  0.00  0.00    +0.000 NA
ATOM     20  H   UNL     1      45.870   6.189  10.084  0.00  0.00    +0.000 HD
BRANCH  19  21
ATOM     21  C   UNL     1      44.405   4.810  10.340  0.00  0.00    +0.000 C 
BRANCH  21  22
ATOM     22  C   UNL     1      45.147   3.947   9.337  0.00  0.00    +0.000 A 
ATOM     23  C   UNL     1      45.136   2.559   9.467  0.00  0.00    +0.000 A 
ATOM     24  C   UNL     1      45.798   1.786   8.514  0.00  0.00    +0.000 A 
ATOM     25  C   UNL     1      46.453   2.420   7.467  0.00  0.00    +0.000 A 
ATOM     26  C   UNL     1      46.416   3.804   7.410  0.00  0.00    +0.000 A 
ATOM     27  N   UNL     1      45.780   4.580   8.316  0.00  0.00    +0.000 NA
ENDBRANCH  21  22
ENDBRANCH  19  21
ENDBRANCH  18  19
ENDBRANCH   4  18
TORSDOF 8
ENDMDL
MODEL 5
REMARK VINA RESULT:    -6.597      2.911      7.768
REMARK INTER + INTRA:         -10.703
REMARK INTER:                  -9.709
REMARK INTRA:                  -0.993
REMARK UNBOUND:                -1.021
REMARK  Name = 
REMARK  9 active torsions:
REMARK  status: ('A' for Active; 'I' for Inactive)
REMARK    1  A    between atoms: C_1  and  C_2
REMARK    2  A    between atoms: C_2  and  N_3
REMARK    3  A    between atoms: C_2  and  C_11
REMARK    4  A    between atoms: N_3  and  C_4
REMARK    5  A    between atoms: C_4  and  C_5
REMARK    6  A    between atoms: C_14  and  C_15
REMARK    7  A    between atoms: C_15  and  N_16
REMARK    8  A    between atoms: N_16  and  C_17
REMARK    9  A    between atoms: C_17  and  C_18
REMARK                            x       y       z     vdW  Elec       q    Type
REMARK                         _______ _______ _______ _____ _____    ______ ____
ROOT
ATOM      1  C   UNL     1      44.975   4.970  11.982  0.00  0.00    +0.000 A 
ATOM      2  C   UNL     1      45.529   5.975  11.173  0.00  0.00    +0.000 A 
ATOM      3  C   UNL     1      46.708   6.621  11.542  0.00  0.00    +0.000 A 
ATOM      4  C   UNL     1      47.375   6.277  12.725  0.00  0.00    +0.000 A 
ATOM      5  C   UNL     1      46.860   5.231  13.502  0.00  0.00    +0.000 A 
ATOM      6  C   UNL     1      45.667   4.598  13.143  0.00  0.00    +0.000 A 
ENDROOT
BRANCH   1   8
ATOM      7  C   UNL     1      42.477   5.406  11.814  0.00  0.00    +0.000 C 
ATOM      8  C   UNL     1      43.614   4.393  11.618  0.00  0.00    +0.000 C 
BRANCH   8   9
ATOM      9  N   UNL     1      43.570   3.904  10.225  0.00  0.00    +0.000 NA
ATOM     10  H   UNL     1      43.947   4.629   9.615  0.00  0.00    +0.000 HD
BRANCH   9  11
ATOM     11  C   UNL     1      44.338   2.672  10.033  0.00  0.00    +0.000 C 
BRANCH  11  12
ATOM     12  C   UNL     1      45.258   2.748   8.858  0.00  0.00    +0.000 A 
ATOM     13  C   UNL     1      45.501   3.934   8.189  0.00  0.00    +0.000 A 
ATOM     14  N   UNL     1      46.360   4.057   7.158  0.00  0.00    +0.000 NA
ATOM     15  C   UNL     1      46.994   2.931   6.800  0.00  0.00    +0.000 A 
ATOM     16  N   UNL     1      46.844   1.724   7.365  0.00  0.00    +0.000 NA
ATOM     17  C   UNL     1      45.968   1.662   8.389  0.00  0.00    +0.000 A 
ENDBRANCH  11  12
ENDBRANCH   9  11
ENDBRANCH   8   9
ENDBRANCH   1   8
BRANCH   4  18
ATOM     18  C   UNL     1      48.646   6.979  13.148  0.00  0.00    +0.000 C 
BRANCH  18  19
ATOM     19  N   UNL     1      49.051   7.982  12.165  0.00  0.00    +0.000 NA
ATOM     20  H   UNL     1      48.288   8.650  12.043  0.00  0.00    +0.000 HD
BRANCH  19  21
ATOM     21  C   UNL     1      50.236   8.723  12.604  0.00  0.00    +0.000 C 
BRANCH  21  22
ATOM     22  C   UNL     1      51.484   8.226  11.899  0.00  0.00    +0.000 A 
ATOM     23  C   UNL     1      51.383   7.613  10.651  0.00  0.00    +0.000 A 
ATOM     24  C   UNL     1      52.547   7.194  10.009  0.00  0.00    +0.000 A 
ATOM     25  C   UNL     1      53.772   7.395  10.630  0.00  0.00    +0.000 A 
ATOM     26  C   UNL     1      53.786   8.013  11.871  0.00  0.00    +0.000 A 
ATOM     27  N   UNL     1      52.676   8.433  12.517  0.00  0.00    +0.000 NA
ENDBRANCH  21  22
ENDBRANCH  19  21
ENDBRANCH  18  19
ENDBRANCH   4  18
TORSDOF 8
ENDMDL
MODEL 6
REMARK VINA RESULT:    -6.446      1.990      8.808
REMARK INTER + INTRA:         -10.481
REMARK INTER:                  -9.758
REMARK INTRA:                  -0.723
REMARK UNBOUND:                -1.021
REMARK  Name = 
REMARK  9 active torsions:
REMARK  status: ('A' for Active; 'I' for Inactive)
REMARK    1  A    between atoms: C_1  and  C_2
REMARK    2  A    between atoms: C_2  and  N_3
REMARK    3  A    between atoms: C_2  and  C_11
REMARK    4  A    between atoms: N_3  and  C_4
REMARK    5  A    between atoms: C_4  and  C_5
REMARK    6  A    between atoms: C_14  and  C_15
REMARK    7  A    between atoms: C_15  and  N_16
REMARK    8  A    between atoms: N_16  and  C_17
REMARK    9  A    between atoms: C_17  and  C_18
REMARK                            x       y       z     vdW  Elec       q    Type
REMARK                         _______ _______ _______ _____ _____    ______ ____
ROOT
ATOM      1  C   UNL     1      45.493   4.317  11.889  0.00  0.00    +0.000 A 
ATOM      2  C   UNL     1      46.069   4.110  13.152  0.00  0.00    +0.000 A 
ATOM      3  C   UNL     1      46.942   5.047  13.703  0.00  0.00    +0.000 A 
ATOM      4  C   UNL     1      47.260   6.224  13.012  0.00  0.00    +0.000 A 
ATOM      5  C   UNL     1      46.638   6.463  11.780  0.00  0.00    +0.000 A 
ATOM      6  C   UNL     1      45.779   5.515  11.219  0.00  0.00    +0.000 A 
ENDROOT
BRANCH   1   8
ATOM      7  C   UNL     1      43.252   3.119  11.866  0.00  0.00    +0.000 C 
ATOM      8  C   UNL     1      44.662   3.205  11.264  0.00  0.00    +0.000 C 
BRANCH   8   9
ATOM      9  N   UNL     1      44.536   3.359   9.800  0.00  0.00    +0.000 NA
ATOM     10  H   UNL     1      45.216   4.051   9.487  0.00  0.00    +0.000 HD
BRANCH   9  11
ATOM     11  C   UNL     1      44.763   2.105   9.078  0.00  0.00    +0.000 C 
BRANCH  11  12
ATOM     12  C   UNL     1      45.896   2.201   8.108  0.00  0.00    +0.000 A 
ATOM     13  C   UNL     1      46.715   1.123   7.825  0.00  0.00    +0.000 A 
ATOM     14  N   UNL     1      47.714   1.152   6.922  0.00  0.00    +0.000 NA
ATOM     15  C   UNL     1      47.881   2.319   6.284  0.00  0.00    +0.000 A 
ATOM     16  N   UNL     1      47.157   3.434   6.469  0.00  0.00    +0.000 NA
ATOM     17  C   UNL     1      46.174   3.346   7.389  0.00  0.00    +0.000 A 
ENDBRANCH  11  12
ENDBRANCH   9  11
ENDBRANCH   8   9
ENDBRANCH   1   8
BRANCH   4  18
ATOM     18  C   UNL     1      48.218   7.243  13.588  0.00  0.00    +0.000 C 
BRANCH  18  19
ATOM     19  N   UNL     1      49.120   6.633  14.563  0.00  0.00    +0.000 NA
ATOM     20  H   UNL     1      50.079   6.728  14.229  0.00  0.00    +0.000 HD
BRANCH  19  21
ATOM     21  C   UNL     1      49.028   7.289  15.870  0.00  0.00    +0.000 C 
BRANCH  21  22
ATOM     22  C   UNL     1      50.007   6.682  16.857  0.00  0.00    +0.000 A 
ATOM     23  C   UNL     1      49.789   6.817  18.227  0.00  0.00    +0.000 A 
ATOM     24  C   UNL     1      50.686   6.222  19.114  0.00  0.00    +0.000 A 
ATOM     25  C   UNL     1      51.769   5.517  18.609  0.00  0.00    +0.000 A 
ATOM     26  C   UNL     1      51.912   5.429  17.233  0.00  0.00    +0.000 A 
ATOM     27  N   UNL     1      51.060   5.992  16.348  0.00  0.00    +0.000 NA
ENDBRANCH  21  22
ENDBRANCH  19  21
ENDBRANCH  18  19
ENDBRANCH   4  18
TORSDOF 8
ENDMDL
MODEL 7
REMARK VINA RESULT:    -6.279      3.539      8.040
REMARK INTER + INTRA:         -10.236
REMARK INTER:                  -9.752
REMARK INTRA:                  -0.484
REMARK UNBOUND:                -1.021
REMARK  Name = 
REMARK  9 active torsions:
REMARK  status: ('A' for Active; 'I' for Inactive)
REMARK    1  A    between atoms: C_1  and  C_2
REMARK    2  A    between atoms: C_2  and  N_3
REMARK    3  A    between atoms: C_2  and  C_11
REMARK    4  A    between atoms: N_3  and  C_4
REMARK    5  A    between atoms: C_4  and  C_5
REMARK    6  A    between atoms: C_14  and  C_15
REMARK    7  A    between atoms: C_15  and  N_16
REMARK    8  A    between atoms: N_16  and  C_17
REMARK    9  A    between atoms: C_17  and  C_18
REMARK                            x       y       z     vdW  Elec       q    Type
REMARK                         _______ _______ _______ _____ _____    ______ ____
ROOT
ATOM      1  C   UNL     1      44.901   4.971  11.648  0.00  0.00    +0.000 A 
ATOM      2  C   UNL     1      46.041   5.001  12.465  0.00  0.00    +0.000 A 
ATOM      3  C   UNL     1      46.535   6.208  12.961  0.00  0.00    +0.000 A 
ATOM      4  C   UNL     1      45.898   7.420  12.662  0.00  0.00    +0.000 A 
ATOM      5  C   UNL     1      44.723   7.386  11.900  0.00  0.00    +0.000 A 
ATOM      6  C   UNL     1      44.241   6.180  11.386  0.00  0.00    +0.000 A 
ENDROOT
BRANCH   1   8
ATOM      7  C   UNL     1      43.452   2.894  11.860  0.00  0.00    +0.000 C 
ATOM      8  C   UNL     1      44.481   3.653  11.011  0.00  0.00    +0.000 C 
BRANCH   8   9
ATOM      9  N   UNL     1      43.923   3.840   9.657  0.00  0.00    +0.000 NA
ATOM     10  H   UNL     1      43.188   4.545   9.704  0.00  0.00    +0.000 HD
BRANCH   9  11
ATOM     11  C   UNL     1      44.931   4.266   8.683  0.00  0.00    +0.000 C 
BRANCH  11  12
ATOM     12  C   UNL     1      45.739   3.123   8.160  0.00  0.00    +0.000 A 
ATOM     13  C   UNL     1      46.782   3.306   7.269  0.00  0.00    +0.000 A 
ATOM     14  N   UNL     1      47.566   2.311   6.813  0.00  0.00    +0.000 NA
ATOM     15  C   UNL     1      47.279   1.088   7.282  0.00  0.00    +0.000 A 
ATOM     16  N   UNL     1      46.297   0.781   8.144  0.00  0.00    +0.000 NA
ATOM     17  C   UNL     1      45.542   1.817   8.563  0.00  0.00    +0.000 A 
ENDBRANCH  11  12
ENDBRANCH   9  11
ENDBRANCH   8   9
ENDBRANCH   1   8
BRANCH   4  18
ATOM     18  C   UNL     1      46.429   8.739  13.178  0.00  0.00    +0.000 C 
BRANCH  18  19
ATOM     19  N   UNL     1      45.735   9.868  12.563  0.00  0.00    +0.000 NA
ATOM     20  H   UNL     1      45.168  10.333  13.273  0.00  0.00    +0.000 HD
BRANCH  19  21
ATOM     21  C   UNL     1      46.676  10.851  12.020  0.00  0.00    +0.000 C 
BRANCH  21  22
ATOM     22  C   UNL     1      46.152  11.455  10.730  0.00  0.00    +0.000 A 
ATOM     23  C   UNL     1      47.009  12.175   9.899  0.00  0.00    +0.000 A 
ATOM     24  C   UNL     1      46.511  12.692   8.703  0.00  0.00    +0.000 A 
ATOM     25  C   UNL     1      45.180  12.479   8.376  0.00  0.00    +0.000 A 
ATOM     26  C   UNL     1      44.395  11.752   9.257  0.00  0.00    +0.000 A 
ATOM     27  N   UNL     1      44.848  11.235  10.421  0.00  0.00    +0.000 NA
ENDBRANCH  21  22
ENDBRANCH  19  21
ENDBRANCH  18  19
ENDBRANCH   4  18
TORSDOF 8
ENDMDL
MODEL 8
REMARK VINA RESULT:    -6.103      1.798      2.409
REMARK INTER + INTRA:          -9.978
REMARK INTER:                  -8.658
REMARK INTRA:                  -1.320
REMARK UNBOUND:                -1.021
REMARK  Name = 
REMARK  9 active torsions:
REMARK  status: ('A' for Active; 'I' for Inactive)
REMARK    1  A    between atoms: C_1  and  C_2
REMARK    2  A    between atoms: C_2  and  N_3
REMARK    3  A    between atoms: C_2  and  C_11
REMARK    4  A    between atoms: N_3  and  C_4
REMARK    5  A    between atoms: C_4  and  C_5
REMARK    6  A    between atoms: C_14  and  C_15
REMARK    7  A    between atoms: C_15  and  N_16
REMARK    8  A    between atoms: N_16  and  C_17
REMARK    9  A    between atoms: C_17  and  C_18
REMARK                            x       y       z     vdW  Elec       q    Type
REMARK                         _______ _______ _______ _____ _____    ______ ____
ROOT
ATOM      1  C   UNL     1      47.324   7.563  12.219  0.00  0.00    +0.000 A 
ATOM      2  C   UNL     1      47.350   6.172  12.407  0.00  0.00    +0.000 A 
ATOM      3  C   UNL     1      46.166   5.443  12.519  0.00  0.00    +0.000 A 
ATOM      4  C   UNL     1      44.921   6.081  12.436  0.00  0.00    +0.000 A 
ATOM      5  C   UNL     1      44.892   7.458  12.184  0.00  0.00    +0.000 A 
ATOM      6  C   UNL     1      46.077   8.192  12.094  0.00  0.00    +0.000 A 
ENDROOT
BRANCH   1   8
ATOM      7  C   UNL     1      48.424   9.851  12.095  0.00  0.00    +0.000 C 
ATOM      8  C   UNL     1      48.634   8.338  12.248  0.00  0.00    +0.000 C 
BRANCH   8   9
ATOM      9  N   UNL     1      49.398   8.095  13.488  0.00  0.00    +0.000 NA
ATOM     10  H   UNL     1      50.307   8.550  13.403  0.00  0.00    +0.000 HD
BRANCH   9  11
ATOM     11  C   UNL     1      48.719   8.605  14.681  0.00  0.00    +0.000 C 
BRANCH  11  12
ATOM     12  C   UNL     1      48.790   7.653  15.831  0.00  0.00    +0.000 A 
ATOM     13  C   UNL     1      48.939   6.290  15.650  0.00  0.00    +0.000 A 
ATOM     14  N   UNL     1      49.058   5.404  16.658  0.00  0.00    +0.000 NA
ATOM     15  C   UNL     1      49.027   5.928  17.892  0.00  0.00    +0.000 A 
ATOM     16  N   UNL     1      48.886   7.226  18.198  0.00  0.00    +0.000 NA
ATOM     17  C   UNL     1      48.767   8.065  17.148  0.00  0.00    +0.000 A 
ENDBRANCH  11  12
ENDBRANCH   9  11
ENDBRANCH   8   9
ENDBRANCH   1   8
BRANCH   4  18
ATOM     18  C   UNL     1      43.628   5.307  12.571  0.00  0.00    +0.000 C 
BRANCH  18  19
ATOM     19  N   UNL     1      43.164   4.817  11.275  0.00  0.00    +0.000 NA
ATOM     20  H   UNL     1      43.614   5.360  10.537  0.00  0.00    +0.000 HD
BRANCH  19  21
ATOM     21  C   UNL     1      43.509   3.407  11.074  0.00  0.00    +0.000 C 
BRANCH  21  22
ATOM     22  C   UNL     1      44.416   3.231   9.871  0.00  0.00    +0.000 A 
ATOM     23  C   UNL     1      44.872   4.348   9.172  0.00  0.00    +0.000 A 
ATOM     24  C   UNL     1      45.731   4.162   8.089  0.00  0.00    +0.000 A 
ATOM     25  C   UNL     1      46.104   2.872   7.736  0.00  0.00    +0.000 A 
ATOM     26  C   UNL     1      45.606   1.816   8.483  0.00  0.00    +0.000 A 
ATOM     27  N   UNL     1      44.776   1.964   9.539  0.00  0.00    +0.000 NA
ENDBRANCH  21  22
ENDBRANCH  19  21
ENDBRANCH  18  19
ENDBRANCH   4  18
TORSDOF 8
ENDMDL
MODEL 9
REMARK VINA RESULT:    -5.661      2.664      7.739
REMARK INTER + INTRA:          -9.328
REMARK INTER:                  -8.021
REMARK INTRA:                  -1.307
REMARK UNBOUND:                -1.021
REMARK  Name = 
REMARK  9 active torsions:
REMARK  status: ('A' for Active; 'I' for Inactive)
REMARK    1  A    between atoms: C_1  and  C_2
REMARK    2  A    between atoms: C_2  and  N_3
REMARK    3  A    between atoms: C_2  and  C_11
REMARK    4  A    between atoms: N_3  and  C_4
REMARK    5  A    between atoms: C_4  and  C_5
REMARK    6  A    between atoms: C_14  and  C_15
REMARK    7  A    between atoms: C_15  and  N_16
REMARK    8  A    between atoms: N_16  and  C_17
REMARK    9  A    between atoms: C_17  and  C_18
REMARK                            x       y       z     vdW  Elec       q    Type
REMARK                         _______ _______ _______ _____ _____    ______ ____
ROOT
ATOM      1  C   UNL     1      48.065   7.966  13.999  0.00  0.00    +0.000 A 
ATOM      2  C   UNL     1      48.094   9.065  14.871  0.00  0.00    +0.000 A 
ATOM      3  C   UNL     1      48.472   8.911  16.205  0.00  0.00    +0.000 A 
ATOM      4  C   UNL     1      48.841   7.654  16.705  0.00  0.00    +0.000 A 
ATOM      5  C   UNL     1      48.874   6.568  15.821  0.00  0.00    +0.000 A 
ATOM      6  C   UNL     1      48.476   6.718  14.490  0.00  0.00    +0.000 A 
ENDROOT
BRANCH   1   8
ATOM      7  C   UNL     1      48.474   7.646  11.511  0.00  0.00    +0.000 C 
ATOM      8  C   UNL     1      47.510   8.151  12.594  0.00  0.00    +0.000 C 
BRANCH   8   9
ATOM      9  N   UNL     1      46.210   7.474  12.414  0.00  0.00    +0.000 NA
ATOM     10  H   UNL     1      45.516   8.170  12.146  0.00  0.00    +0.000 HD
BRANCH   9  11
ATOM     11  C   UNL     1      46.254   6.425  11.392  0.00  0.00    +0.000 C 
BRANCH  11  12
ATOM     12  C   UNL     1      45.308   5.305  11.680  0.00  0.00    +0.000 A 
ATOM     13  C   UNL     1      45.205   4.734  12.936  0.00  0.00    +0.000 A 
ATOM     14  N   UNL     1      44.332   3.757  13.250  0.00  0.00    +0.000 NA
ATOM     15  C   UNL     1      43.535   3.352  12.251  0.00  0.00    +0.000 A 
ATOM     16  N   UNL     1      43.539   3.823  10.995  0.00  0.00    +0.000 NA
ATOM     17  C   UNL     1      44.438   4.796  10.738  0.00  0.00    +0.000 A 
ENDBRANCH  11  12
ENDBRANCH   9  11
ENDBRANCH   8   9
ENDBRANCH   1   8
BRANCH   4  18
ATOM     18  C   UNL     1      49.238   7.466  18.152  0.00  0.00    +0.000 C 
BRANCH  18  19
ATOM     19  N   UNL     1      48.172   6.822  18.916  0.00  0.00    +0.000 NA
ATOM     20  H   UNL     1      47.403   6.597  18.284  0.00  0.00    +0.000 HD
BRANCH  19  21
ATOM     21  C   UNL     1      48.627   5.577  19.539  0.00  0.00    +0.000 C 
BRANCH  21  22
ATOM     22  C   UNL     1      48.693   4.450  18.524  0.00  0.00    +0.000 A 
ATOM     23  C   UNL     1      49.904   3.810  18.269  0.00  0.00    +0.000 A 
ATOM     24  C   UNL     1      49.932   2.756  17.356  0.00  0.00    +0.000 A 
ATOM     25  C   UNL     1      48.756   2.378  16.725  0.00  0.00    +0.000 A 
ATOM     26  C   UNL     1      47.593   3.066  17.035  0.00  0.00    +0.000 A 
ATOM     27  N   UNL     1      47.533   4.088  17.917  0.00  0.00    +0.000 NA
ENDBRANCH  21  22
ENDBRANCH  19  21
ENDBRANCH  18  19
ENDBRANCH   4  18
TORSDOF 8
ENDMDL
