MODEL 1
REMARK VINA RESULT:    -8.337      0.000      0.000
REMARK INTER + INTRA:         -12.958
REMARK INTER:                 -11.748
REMARK INTRA:                  -1.210
REMARK UNBOUND:                -1.210
REMARK  Name = 
REMARK  8 active torsions:
REMARK  status: ('A' for Active; 'I' for Inactive)
REMARK    1  A    between atoms: C_1  and  C_2
REMARK    2  A    between atoms: C_8  and  C_9
REMARK    3  A    between atoms: N_11  and  C_12
REMARK    4  A    between atoms: C_12  and  C_13
REMARK    5  A    between atoms: C_16  and  O_17
REMARK    6  A    between atoms: O_17  and  C_18
REMARK    7  A    between atoms: C_18  and  C_19
REMARK    8  A    between atoms: C_19  and  C_20
REMARK                            x       y       z     vdW  Elec       q    Type
REMARK                         _______ _______ _______ _____ _____    ______ ____
ROOT
ATOM      1  C   UNL     1      46.812   5.691  13.066  0.00  0.00    +0.000 A 
ATOM      2  C   UNL     1      46.629   4.361  13.469  0.00  0.00    +0.000 A 
ATOM      3  C   UNL     1      45.713   3.532  12.812  0.00  0.00    +0.000 A 
ATOM      4  C   UNL     1      44.969   4.016  11.738  0.00  0.00    +0.000 A 
ATOM      5  C   UNL     1      45.176   5.328  11.305  0.00  0.00    +0.000 A 
ATOM      6  C   UNL     1      46.085   6.162  11.965  0.00  0.00    +0.000 A 
ENDROOT
BRANCH   1   7
ATOM      7  C   UNL     1      47.744   6.594  13.825  0.00  0.00    +0.000 C 
BRANCH   7  10
ATOM      8  C   UNL     1      49.055   6.361  15.862  0.00  0.00    +0.000 C 
ATOM      9  O   UNL     1      50.058   6.617  15.195  0.00  0.00    +0.000 OA
ATOM     10  N   UNL     1      47.815   6.292  15.239  0.00  0.00    +0.000 N 
ATOM     11  H   UNL     1      46.960   6.326  15.778  0.00  0.00    +0.000 HD
BRANCH   8  19
ATOM     12  C   UNL     1      48.509   2.919  16.341  0.00  0.00    +0.000 C 
ATOM     13  C   UNL     1      48.521   3.621  17.643  0.00  0.00    +0.000 A 
ATOM     14  C   UNL     1      48.323   3.073  18.919  0.00  0.00    +0.000 A 
ATOM     15  N   UNL     1      48.417   4.079  19.890  0.00  0.00    +0.000 N 
ATOM     16  C   UNL     1      48.679   5.243  19.247  0.00  0.00    +0.000 A 
ATOM     17  N   UNL     1      48.884   6.550  19.562  0.00  0.00    +0.000 NA
ATOM     18  C   UNL     1      49.056   7.119  18.314  0.00  0.00    +0.000 C 
ATOM     19  C   UNL     1      48.981   6.148  17.274  0.00  0.00    +0.000 C 
ATOM     20  C   UNL     1      48.724   4.946  17.946  0.00  0.00    +0.000 A 
ATOM     21  H   UNL     1      48.308   3.970  20.888  0.00  0.00    +0.000 HD
ENDBRANCH   8  19
ENDBRANCH   7  10
ENDBRANCH   1   7
BRANCH   4  22
ATOM     22  O   UNL     1      44.053   3.292  11.020  0.00  0.00    +0.000 OA
BRANCH  22  23
ATOM     23  C   UNL     1      44.248   3.263   9.601  0.00  0.00    +0.000 C 
BRANCH  23  24
ATOM     24  C   UNL     1      45.075   2.026   9.247  0.00  0.00    +0.000 C 
BRANCH  24  25
ATOM     25  C   UNL     1      45.947   2.243   8.038  0.00  0.00    +0.000 A 
ATOM     26  C   UNL     1      45.998   3.487   7.397  0.00  0.00    +0.000 A 
ATOM     27  C   UNL     1      46.820   3.676   6.280  0.00  0.00    +0.000 A 
ATOM     28  C   UNL     1      47.593   2.622   5.790  0.00  0.00    +0.000 A 
ATOM     29  C   UNL     1      47.538   1.376   6.410  0.00  0.00    +0.000 A 
ATOM     30  C   UNL     1      46.716   1.195   7.520  0.00  0.00    +0.000 A 
ATOM     31  F   UNL     1      46.668  -0.015   8.094  0.00  0.00    +0.000 F 
ENDBRANCH  24  25
ENDBRANCH  23  24
ENDBRANCH  22  23
ENDBRANCH   4  22
TORSDOF 7
ENDMDL
MODEL 2
REMARK VINA RESULT:    -8.285      1.120      1.677
REMARK INTER + INTRA:         -12.886
REMARK INTER:                 -11.596
REMARK INTRA:                  -1.290
REMARK UNBOUND:                -1.210
REMARK  Name = 
REMARK  8 active torsions:
REMARK  status: ('A' for Active; 'I' for Inactive)
REMARK    1  A    between atoms: C_1  and  C_2
REMARK    2  A    between atoms: C_8  and  C_9
REMARK    3  A    between atoms: N_11  and  C_12
REMARK    4  A    between atoms: C_12  and  C_13
REMARK    5  A    between atoms: C_16  and  O_17
REMARK    6  A    between atoms: O_17  and  C_18
REMARK    7  A    between atoms: C_18  and  C_19
REMARK    8  A    between atoms: C_19  and  C_20
REMARK                            x       y       z     vdW  Elec       q    Type
REMARK                         _______ _______ _______ _____ _____    ______ ____
ROOT
ATOM      1  C   UNL     1      46.943   6.450  13.164  0.00  0.00    +0.000 A 
ATOM      2  C   UNL     1      46.698   6.834  11.839  0.00  0.00    +0.000 A 
ATOM      3  C   UNL     1      45.847   6.083  11.020  0.00  0.00    +0.000 A 
ATOM      4  C   UNL     1      45.221   4.940  11.515  0.00  0.00    +0.000 A 
ATOM      5  C   UNL     1      45.428   4.576  12.847  0.00  0.00    +0.000 A 
ATOM      6  C   UNL     1      46.286   5.319  13.666  0.00  0.00    +0.000 A 
ENDROOT
BRANCH   1   7
ATOM      7  C   UNL     1      47.917   7.222  14.011  0.00  0.00    +0.000 C 
BRANCH   7  10
ATOM      8  C   UNL     1      49.299   6.517  15.886  0.00  0.00    +0.000 C 
ATOM      9  O   UNL     1      50.287   6.712  15.175  0.00  0.00    +0.000 OA
ATOM     10  N   UNL     1      48.027   6.720  15.364  0.00  0.00    +0.000 N 
ATOM     11  H   UNL     1      47.224   6.806  15.973  0.00  0.00    +0.000 HD
BRANCH   8  19
ATOM     12  C   UNL     1      48.159   3.191  15.975  0.00  0.00    +0.000 C 
ATOM     13  C   UNL     1      48.387   3.691  17.349  0.00  0.00    +0.000 A 
ATOM     14  C   UNL     1      48.176   3.012  18.559  0.00  0.00    +0.000 A 
ATOM     15  N   UNL     1      48.519   3.840  19.636  0.00  0.00    +0.000 N 
ATOM     16  C   UNL     1      48.949   5.019  19.123  0.00  0.00    +0.000 A 
ATOM     17  N   UNL     1      49.413   6.213  19.581  0.00  0.00    +0.000 NA
ATOM     18  C   UNL     1      49.604   6.912  18.404  0.00  0.00    +0.000 C 
ATOM     19  C   UNL     1      49.281   6.124  17.260  0.00  0.00    +0.000 C 
ATOM     20  C   UNL     1      48.851   4.904  17.796  0.00  0.00    +0.000 A 
ATOM     21  H   UNL     1      48.458   3.613  20.618  0.00  0.00    +0.000 HD
ENDBRANCH   8  19
ENDBRANCH   7  10
ENDBRANCH   1   7
BRANCH   4  22
ATOM     22  O   UNL     1      44.365   4.138  10.807  0.00  0.00    +0.000 OA
BRANCH  22  23
ATOM     23  C   UNL     1      44.741   2.761  10.696  0.00  0.00    +0.000 C 
BRANCH  23  24
ATOM     24  C   UNL     1      44.380   2.267   9.294  0.00  0.00    +0.000 C 
BRANCH  24  25
ATOM     25  C   UNL     1      45.551   2.314   8.347  0.00  0.00    +0.000 A 
ATOM     26  C   UNL     1      46.303   1.165   8.070  0.00  0.00    +0.000 A 
ATOM     27  C   UNL     1      47.382   1.222   7.181  0.00  0.00    +0.000 A 
ATOM     28  C   UNL     1      47.725   2.428   6.567  0.00  0.00    +0.000 A 
ATOM     29  C   UNL     1      46.994   3.580   6.849  0.00  0.00    +0.000 A 
ATOM     30  C   UNL     1      45.922   3.516   7.735  0.00  0.00    +0.000 A 
ATOM     31  F   UNL     1      45.239   4.639   8.002  0.00  0.00    +0.000 F 
ENDBRANCH  24  25
ENDBRANCH  23  24
ENDBRANCH  22  23
ENDBRANCH   4  22
TORSDOF 7
ENDMDL
MODEL 3
REMARK VINA RESULT:    -7.980      0.961      1.960
REMARK INTER + INTRA:         -12.456
REMARK INTER:                 -11.428
REMARK INTRA:                  -1.028
REMARK UNBOUND:                -1.210
REMARK  Name = 
REMARK  8 active torsions:
REMARK  status: ('A' for Active; 'I' for Inactive)
REMARK    1  A    between atoms: C_1  and  C_2
REMARK    2  A    between atoms: C_8  and  C_9
REMARK    3  A    between atoms: N_11  and  C_12
REMARK    4  A    between atoms: C_12  and  C_13
REMARK    5  A    between atoms: C_16  and  O_17
REMARK    6  A    between atoms: O_17  and  C_18
REMARK    7  A    between atoms: C_18  and  C_19
REMARK    8  A    between atoms: C_19  and  C_20
REMARK                            x       y       z     vdW  Elec       q    Type
REMARK                         _______ _______ _______ _____ _____    ______ ____
ROOT
ATOM      1  C   UNL     1      46.828   5.688  13.239  0.00  0.00    +0.000 A 
ATOM      2  C   UNL     1      46.468   4.337  13.346  0.00  0.00    +0.000 A 
ATOM      3  C   UNL     1      45.443   3.804  12.556  0.00  0.00    +0.000 A 
ATOM      4  C   UNL     1      44.767   4.610  11.641  0.00  0.00    +0.000 A 
ATOM      5  C   UNL     1      45.149   5.946  11.501  0.00  0.00    +0.000 A 
ATOM      6  C   UNL     1      46.167   6.485  12.296  0.00  0.00    +0.000 A 
ENDROOT
BRANCH   1   7
ATOM      7  C   UNL     1      47.879   6.268  14.145  0.00  0.00    +0.000 C 
BRANCH   7  10
ATOM      8  C   UNL     1      48.917   5.894  16.314  0.00  0.00    +0.000 C 
ATOM      9  O   UNL     1      49.968   6.324  15.837  0.00  0.00    +0.000 OA
ATOM     10  N   UNL     1      47.788   5.794  15.510  0.00  0.00    +0.000 N 
ATOM     11  H   UNL     1      46.870   5.681  15.916  0.00  0.00    +0.000 HD
BRANCH   8  19
ATOM     12  C   UNL     1      47.874   8.771  18.049  0.00  0.00    +0.000 C 
ATOM     13  C   UNL     1      47.960   7.619  18.973  0.00  0.00    +0.000 A 
ATOM     14  C   UNL     1      47.708   7.601  20.353  0.00  0.00    +0.000 A 
ATOM     15  N   UNL     1      47.900   6.308  20.857  0.00  0.00    +0.000 N 
ATOM     16  C   UNL     1      48.257   5.514  19.817  0.00  0.00    +0.000 A 
ATOM     17  N   UNL     1      48.578   4.210  19.602  0.00  0.00    +0.000 NA
ATOM     18  C   UNL     1      48.858   4.207  18.248  0.00  0.00    +0.000 C 
ATOM     19  C   UNL     1      48.675   5.495  17.666  0.00  0.00    +0.000 C 
ATOM     20  C   UNL     1      48.293   6.306  18.742  0.00  0.00    +0.000 A 
ATOM     21  H   UNL     1      47.797   6.009  21.816  0.00  0.00    +0.000 HD
ENDBRANCH   8  19
ENDBRANCH   7  10
ENDBRANCH   1   7
BRANCH   4  22
ATOM     22  O   UNL     1      43.757   4.192  10.815  0.00  0.00    +0.000 OA
BRANCH  22  23
ATOM     23  C   UNL     1      44.087   4.084   9.425  0.00  0.00    +0.000 C 
BRANCH  23  24
ATOM     24  C   UNL     1      44.543   2.652   9.141  0.00  0.00    +0.000 C 
BRANCH  24  25
ATOM     25  C   UNL     1      45.737   2.597   8.225  0.00  0.00    +0.000 A 
ATOM     26  C   UNL     1      46.285   3.767   7.682  0.00  0.00    +0.000 A 
ATOM     27  C   UNL     1      47.400   3.702   6.840  0.00  0.00    +0.000 A 
ATOM     28  C   UNL     1      47.974   2.468   6.526  0.00  0.00    +0.000 A 
ATOM     29  C   UNL     1      47.427   1.298   7.046  0.00  0.00    +0.000 A 
ATOM     30  C   UNL     1      46.316   1.370   7.884  0.00  0.00    +0.000 A 
ATOM     31  F   UNL     1      45.797   0.231   8.364  0.00  0.00    +0.000 F 
ENDBRANCH  24  25
ENDBRANCH  23  24
ENDBRANCH  22  23
ENDBRANCH   4  22
TORSDOF 7
ENDMDL
MODEL 4
REMARK VINA RESULT:    -7.479      2.070      2.780
REMARK INTER + INTRA:         -11.749
REMARK INTER:                 -10.605
REMARK INTRA:                  -1.144
REMARK UNBOUND:                -1.210
REMARK  Name = 
REMARK  8 active torsions:
REMARK  status: ('A' for Active; 'I' for Inactive)
REMARK    1  A    between atoms: C_1  and  C_2
REMARK    2  A    between atoms: C_8  and  C_9
REMARK    3  A    between atoms: N_11  and  C_12
REMARK    4  A    between atoms: C_12  and  C_13
REMARK    5  A    between atoms: C_16  and  O_17
REMARK    6  A    between atoms: O_17  and  C_18
REMARK    7  A    between atoms: C_18  and  C_19
REMARK    8  A    between atoms: C_19  and  C_20
REMARK                            x       y       z     vdW  Elec       q    Type
REMARK                         _______ _______ _______ _____ _____    ______ ____
ROOT
ATOM      1  C   UNL     1      46.592   7.501  12.968  0.00  0.00    +0.000 A 
ATOM      2  C   UNL     1      46.927   6.184  13.314  0.00  0.00    +0.000 A 
ATOM      3  C   UNL     1      46.170   5.105  12.845  0.00  0.00    +0.000 A 
ATOM      4  C   UNL     1      45.071   5.323  12.016  0.00  0.00    +0.000 A 
ATOM      5  C   UNL     1      44.757   6.629  11.634  0.00  0.00    +0.000 A 
ATOM      6  C   UNL     1      45.506   7.711  12.110  0.00  0.00    +0.000 A 
ENDROOT
BRANCH   1   7
ATOM      7  C   UNL     1      47.367   8.657  13.538  0.00  0.00    +0.000 C 
BRANCH   7  10
ATOM      8  C   UNL     1      48.381   9.233  15.674  0.00  0.00    +0.000 C 
ATOM      9  O   UNL     1      49.416   9.500  15.061  0.00  0.00    +0.000 OA
ATOM     10  N   UNL     1      47.276   8.757  14.979  0.00  0.00    +0.000 N 
ATOM     11  H   UNL     1      46.357   8.760  15.401  0.00  0.00    +0.000 HD
BRANCH   8  19
ATOM     12  C   UNL     1      48.600   6.026  17.101  0.00  0.00    +0.000 C 
ATOM     13  C   UNL     1      48.237   7.021  18.133  0.00  0.00    +0.000 A 
ATOM     14  C   UNL     1      47.972   6.796  19.493  0.00  0.00    +0.000 A 
ATOM     15  N   UNL     1      47.668   8.008  20.127  0.00  0.00    +0.000 N 
ATOM     16  C   UNL     1      47.746   8.988  19.193  0.00  0.00    +0.000 A 
ATOM     17  N   UNL     1      47.581  10.336  19.124  0.00  0.00    +0.000 NA
ATOM     18  C   UNL     1      47.810  10.580  17.782  0.00  0.00    +0.000 C 
ATOM     19  C   UNL     1      48.136   9.387  17.074  0.00  0.00    +0.000 C 
ATOM     20  C   UNL     1      48.067   8.382  18.047  0.00  0.00    +0.000 A 
ATOM     21  H   UNL     1      47.430   8.140  21.099  0.00  0.00    +0.000 HD
ENDBRANCH   8  19
ENDBRANCH   7  10
ENDBRANCH   1   7
BRANCH   4  22
ATOM     22  O   UNL     1      44.268   4.343  11.494  0.00  0.00    +0.000 OA
BRANCH  22  23
ATOM     23  C   UNL     1      44.928   3.137  11.093  0.00  0.00    +0.000 C 
BRANCH  23  24
ATOM     24  C   UNL     1      44.380   2.710   9.730  0.00  0.00    +0.000 C 
BRANCH  24  25
ATOM     25  C   UNL     1      45.457   2.598   8.683  0.00  0.00    +0.000 A 
ATOM     26  C   UNL     1      45.998   1.354   8.333  0.00  0.00    +0.000 A 
ATOM     27  C   UNL     1      46.992   1.265   7.352  0.00  0.00    +0.000 A 
ATOM     28  C   UNL     1      47.460   2.417   6.718  0.00  0.00    +0.000 A 
ATOM     29  C   UNL     1      46.942   3.660   7.071  0.00  0.00    +0.000 A 
ATOM     30  C   UNL     1      45.953   3.742   8.049  0.00  0.00    +0.000 A 
ATOM     31  F   UNL     1      45.476   4.950   8.382  0.00  0.00    +0.000 F 
ENDBRANCH  24  25
ENDBRANCH  23  24
ENDBRANCH  22  23
ENDBRANCH   4  22
TORSDOF 7
ENDMDL
MODEL 5
REMARK VINA RESULT:    -7.477      1.739      2.127
REMARK INTER + INTRA:         -11.747
REMARK INTER:                 -10.280
REMARK INTRA:                  -1.466
REMARK UNBOUND:                -1.210
REMARK  Name = 
REMARK  8 active torsions:
REMARK  status: ('A' for Active; 'I' for Inactive)
REMARK    1  A    between atoms: C_1  and  C_2
REMARK    2  A    between atoms: C_8  and  C_9
REMARK    3  A    between atoms: N_11  and  C_12
REMARK    4  A    between atoms: C_12  and  C_13
REMARK    5  A    between atoms: C_16  and  O_17
REMARK    6  A    between atoms: O_17  and  C_18
REMARK    7  A    between atoms: C_18  and  C_19
REMARK    8  A    between atoms: C_19  and  C_20
REMARK                            x       y       z     vdW  Elec       q    Type
REMARK                         _______ _______ _______ _____ _____    ______ ____
ROOT
ATOM      1  C   UNL     1      47.534   7.189  13.115  0.00  0.00    +0.000 A 
ATOM      2  C   UNL     1      47.450   5.802  12.933  0.00  0.00    +0.000 A 
ATOM      3  C   UNL     1      46.233   5.194  12.605  0.00  0.00    +0.000 A 
ATOM      4  C   UNL     1      45.081   5.965  12.447  0.00  0.00    +0.000 A 
ATOM      5  C   UNL     1      45.167   7.351  12.586  0.00  0.00    +0.000 A 
ATOM      6  C   UNL     1      46.382   7.961  12.923  0.00  0.00    +0.000 A 
ENDROOT
BRANCH   1   7
ATOM      7  C   UNL     1      48.831   7.822  13.540  0.00  0.00    +0.000 C 
BRANCH   7  10
ATOM      8  C   UNL     1      49.422   7.114  15.792  0.00  0.00    +0.000 C 
ATOM      9  O   UNL     1      48.637   7.962  16.219  0.00  0.00    +0.000 OA
ATOM     10  N   UNL     1      49.618   6.987  14.422  0.00  0.00    +0.000 N 
ATOM     11  H   UNL     1      50.055   6.162  14.035  0.00  0.00    +0.000 HD
BRANCH   8  19
ATOM     12  C   UNL     1      47.322   4.343  16.322  0.00  0.00    +0.000 C 
ATOM     13  C   UNL     1      48.620   4.139  17.002  0.00  0.00    +0.000 A 
ATOM     14  C   UNL     1      49.020   3.045  17.784  0.00  0.00    +0.000 A 
ATOM     15  N   UNL     1      50.330   3.240  18.243  0.00  0.00    +0.000 N 
ATOM     16  C   UNL     1      50.760   4.430  17.755  0.00  0.00    +0.000 A 
ATOM     17  N   UNL     1      51.880   5.199  17.805  0.00  0.00    +0.000 NA
ATOM     18  C   UNL     1      51.500   6.301  17.060  0.00  0.00    +0.000 C 
ATOM     19  C   UNL     1      50.175   6.166  16.552  0.00  0.00    +0.000 C 
ATOM     20  C   UNL     1      49.743   4.930  17.048  0.00  0.00    +0.000 A 
ATOM     21  H   UNL     1      50.865   2.618  18.832  0.00  0.00    +0.000 HD
ENDBRANCH   8  19
ENDBRANCH   7  10
ENDBRANCH   1   7
BRANCH   4  22
ATOM     22  O   UNL     1      43.843   5.477  12.119  0.00  0.00    +0.000 OA
BRANCH  22  23
ATOM     23  C   UNL     1      43.617   5.218  10.729  0.00  0.00    +0.000 C 
BRANCH  23  24
ATOM     24  C   UNL     1      43.883   3.737  10.458  0.00  0.00    +0.000 C 
BRANCH  24  25
ATOM     25  C   UNL     1      44.877   3.522   9.347  0.00  0.00    +0.000 A 
ATOM     26  C   UNL     1      45.578   4.598   8.787  0.00  0.00    +0.000 A 
ATOM     27  C   UNL     1      46.505   4.383   7.762  0.00  0.00    +0.000 A 
ATOM     28  C   UNL     1      46.736   3.093   7.281  0.00  0.00    +0.000 A 
ATOM     29  C   UNL     1      46.032   2.018   7.819  0.00  0.00    +0.000 A 
ATOM     30  C   UNL     1      45.110   2.240   8.839  0.00  0.00    +0.000 A 
ATOM     31  F   UNL     1      44.434   1.193   9.334  0.00  0.00    +0.000 F 
ENDBRANCH  24  25
ENDBRANCH  23  24
ENDBRANCH  22  23
ENDBRANCH   4  22
TORSDOF 7
ENDMDL
MODEL 6
REMARK VINA RESULT:    -7.046      1.897      2.540
REMARK INTER + INTRA:         -11.139
REMARK INTER:                 -10.325
REMARK INTRA:                  -0.814
REMARK UNBOUND:                -1.210
REMARK  Name = 
REMARK  8 active torsions:
REMARK  status: ('A' for Active; 'I' for Inactive)
REMARK    1  A    between atoms: C_1  and  C_2
REMARK    2  A    between atoms: C_8  and  C_9
REMARK    3  A    between atoms: N_11  and  C_12
REMARK    4  A    between atoms: C_12  and  C_13
REMARK    5  A    between atoms: C_16  and  O_17
REMARK    6  A    between atoms: O_17  and  C_18
REMARK    7  A    between atoms: C_18  and  C_19
REMARK    8  A    between atoms: C_19  and  C_20
REMARK                            x       y       z     vdW  Elec       q    Type
REMARK                         _______ _______ _______ _____ _____    ______ ____
ROOT
ATOM      1  C   UNL     1      47.315   7.425  13.626  0.00  0.00    +0.000 A 
ATOM      2  C   UNL     1      46.403   8.290  13.005  0.00  0.00    +0.000 A 
ATOM      3  C   UNL     1      45.620   7.855  11.931  0.00  0.00    +0.000 A 
ATOM      4  C   UNL     1      45.729   6.547  11.463  0.00  0.00    +0.000 A 
ATOM      5  C   UNL     1      46.605   5.668  12.104  0.00  0.00    +0.000 A 
ATOM      6  C   UNL     1      47.397   6.103  13.173  0.00  0.00    +0.000 A 
ENDROOT
BRANCH   1   7
ATOM      7  C   UNL     1      48.205   7.924  14.731  0.00  0.00    +0.000 C 
BRANCH   7  10
ATOM      8  C   UNL     1      49.483   7.205  16.672  0.00  0.00    +0.000 C 
ATOM      9  O   UNL     1      50.102   8.268  16.606  0.00  0.00    +0.000 OA
ATOM     10  N   UNL     1      48.505   6.919  15.727  0.00  0.00    +0.000 N 
ATOM     11  H   UNL     1      47.826   6.188  15.889  0.00  0.00    +0.000 HD
BRANCH   8  19
ATOM     12  C   UNL     1      52.827   6.120  16.572  0.00  0.00    +0.000 C 
ATOM     13  C   UNL     1      52.063   5.332  17.563  0.00  0.00    +0.000 A 
ATOM     14  C   UNL     1      52.523   4.274  18.362  0.00  0.00    +0.000 A 
ATOM     15  N   UNL     1      51.483   3.799  19.171  0.00  0.00    +0.000 N 
ATOM     16  C   UNL     1      50.383   4.546  18.901  0.00  0.00    +0.000 A 
ATOM     17  N   UNL     1      49.088   4.623  19.307  0.00  0.00    +0.000 NA
ATOM     18  C   UNL     1      48.603   5.645  18.511  0.00  0.00    +0.000 C 
ATOM     19  C   UNL     1      49.615   6.183  17.664  0.00  0.00    +0.000 C 
ATOM     20  C   UNL     1      50.750   5.418  17.958  0.00  0.00    +0.000 A 
ATOM     21  H   UNL     1      51.529   3.040  19.835  0.00  0.00    +0.000 HD
ENDBRANCH   8  19
ENDBRANCH   7  10
ENDBRANCH   1   7
BRANCH   4  22
ATOM     22  O   UNL     1      45.007   6.014  10.427  0.00  0.00    +0.000 OA
BRANCH  22  23
ATOM     23  C   UNL     1      44.989   4.585  10.343  0.00  0.00    +0.000 C 
BRANCH  23  24
ATOM     24  C   UNL     1      44.559   4.184   8.931  0.00  0.00    +0.000 C 
BRANCH  24  25
ATOM     25  C   UNL     1      45.547   3.262   8.266  0.00  0.00    +0.000 A 
ATOM     26  C   UNL     1      46.520   3.757   7.389  0.00  0.00    +0.000 A 
ATOM     27  C   UNL     1      47.437   2.890   6.785  0.00  0.00    +0.000 A 
ATOM     28  C   UNL     1      47.386   1.520   7.046  0.00  0.00    +0.000 A 
ATOM     29  C   UNL     1      46.412   1.014   7.903  0.00  0.00    +0.000 A 
ATOM     30  C   UNL     1      45.501   1.883   8.500  0.00  0.00    +0.000 A 
ATOM     31  F   UNL     1      44.564   1.375   9.312  0.00  0.00    +0.000 F 
ENDBRANCH  24  25
ENDBRANCH  23  24
ENDBRANCH  22  23
ENDBRANCH   4  22
TORSDOF 7
ENDMDL
MODEL 7
REMARK VINA RESULT:    -6.925      3.561      8.496
REMARK INTER + INTRA:         -10.969
REMARK INTER:                  -9.553
REMARK INTRA:                  -1.416
REMARK UNBOUND:                -1.210
REMARK  Name = 
REMARK  8 active torsions:
REMARK  status: ('A' for Active; 'I' for Inactive)
REMARK    1  A    between atoms: C_1  and  C_2
REMARK    2  A    between atoms: C_8  and  C_9
REMARK    3  A    between atoms: N_11  and  C_12
REMARK    4  A    between atoms: C_12  and  C_13
REMARK    5  A    between atoms: C_16  and  O_17
REMARK    6  A    between atoms: O_17  and  C_18
REMARK    7  A    between atoms: C_18  and  C_19
REMARK    8  A    between atoms: C_19  and  C_20
REMARK                            x       y       z     vdW  Elec       q    Type
REMARK                         _______ _______ _______ _____ _____    ______ ____
ROOT
ATOM      1  C   UNL     1      47.940   8.304  14.047  0.00  0.00    +0.000 A 
ATOM      2  C   UNL     1      48.007   9.096  15.202  0.00  0.00    +0.000 A 
ATOM      3  C   UNL     1      49.087   8.986  16.085  0.00  0.00    +0.000 A 
ATOM      4  C   UNL     1      50.120   8.087  15.826  0.00  0.00    +0.000 A 
ATOM      5  C   UNL     1      50.080   7.325  14.657  0.00  0.00    +0.000 A 
ATOM      6  C   UNL     1      48.997   7.426  13.776  0.00  0.00    +0.000 A 
ENDROOT
BRANCH   1   7
ATOM      7  C   UNL     1      46.740   8.377  13.144  0.00  0.00    +0.000 C 
BRANCH   7  10
ATOM      8  C   UNL     1      46.106   6.296  12.054  0.00  0.00    +0.000 C 
ATOM      9  O   UNL     1      46.852   6.606  11.124  0.00  0.00    +0.000 OA
ATOM     10  N   UNL     1      45.954   7.162  13.130  0.00  0.00    +0.000 N 
ATOM     11  H   UNL     1      45.554   6.841  14.002  0.00  0.00    +0.000 HD
BRANCH   8  19
ATOM     12  C   UNL     1      45.802   4.887   8.846  0.00  0.00    +0.000 C 
ATOM     13  C   UNL     1      45.079   4.062   9.838  0.00  0.00    +0.000 A 
ATOM     14  C   UNL     1      44.334   2.895   9.609  0.00  0.00    +0.000 A 
ATOM     15  N   UNL     1      43.811   2.417  10.818  0.00  0.00    +0.000 N 
ATOM     16  C   UNL     1      44.222   3.257  11.799  0.00  0.00    +0.000 A 
ATOM     17  N   UNL     1      44.087   3.382  13.147  0.00  0.00    +0.000 NA
ATOM     18  C   UNL     1      44.792   4.546  13.395  0.00  0.00    +0.000 C 
ATOM     19  C   UNL     1      45.361   5.084  12.205  0.00  0.00    +0.000 C 
ATOM     20  C   UNL     1      44.945   4.205  11.198  0.00  0.00    +0.000 A 
ATOM     21  H   UNL     1      43.231   1.600  10.947  0.00  0.00    +0.000 HD
ENDBRANCH   8  19
ENDBRANCH   7  10
ENDBRANCH   1   7
BRANCH   4  22
ATOM     22  O   UNL     1      51.225   7.904  16.616  0.00  0.00    +0.000 OA
BRANCH  22  23
ATOM     23  C   UNL     1      51.648   6.548  16.800  0.00  0.00    +0.000 C 
BRANCH  23  24
ATOM     24  C   UNL     1      50.842   5.936  17.947  0.00  0.00    +0.000 C 
BRANCH  24  25
ATOM     25  C   UNL     1      50.113   4.683  17.537  0.00  0.00    +0.000 A 
ATOM     26  C   UNL     1      50.758   3.439  17.539  0.00  0.00    +0.000 A 
ATOM     27  C   UNL     1      50.067   2.282  17.164  0.00  0.00    +0.000 A 
ATOM     28  C   UNL     1      48.728   2.358  16.776  0.00  0.00    +0.000 A 
ATOM     29  C   UNL     1      48.082   3.592  16.754  0.00  0.00    +0.000 A 
ATOM     30  C   UNL     1      48.777   4.739  17.128  0.00  0.00    +0.000 A 
ATOM     31  F   UNL     1      48.141   5.919  17.088  0.00  0.00    +0.000 F 
ENDBRANCH  24  25
ENDBRANCH  23  24
ENDBRANCH  22  23
ENDBRANCH   4  22
TORSDOF 7
ENDMDL
MODEL 8
REMARK VINA RESULT:    -6.764      4.384      8.583
REMARK INTER + INTRA:         -10.741
REMARK INTER:                  -8.761
REMARK INTRA:                  -1.980
REMARK UNBOUND:                -1.210
REMARK  Name = 
REMARK  8 active torsions:
REMARK  status: ('A' for Active; 'I' for Inactive)
REMARK    1  A    between atoms: C_1  and  C_2
REMARK    2  A    between atoms: C_8  and  C_9
REMARK    3  A    between atoms: N_11  and  C_12
REMARK    4  A    between atoms: C_12  and  C_13
REMARK    5  A    between atoms: C_16  and  O_17
REMARK    6  A    between atoms: O_17  and  C_18
REMARK    7  A    between atoms: C_18  and  C_19
REMARK    8  A    between atoms: C_19  and  C_20
REMARK                            x       y       z     vdW  Elec       q    Type
REMARK                         _______ _______ _______ _____ _____    ______ ____
ROOT
ATOM      1  C   UNL     1      48.839   8.007  15.616  0.00  0.00    +0.000 A 
ATOM      2  C   UNL     1      48.479   8.575  16.846  0.00  0.00    +0.000 A 
ATOM      3  C   UNL     1      49.164   8.238  18.019  0.00  0.00    +0.000 A 
ATOM      4  C   UNL     1      50.223   7.333  17.981  0.00  0.00    +0.000 A 
ATOM      5  C   UNL     1      50.613   6.795  16.753  0.00  0.00    +0.000 A 
ATOM      6  C   UNL     1      49.925   7.123  15.579  0.00  0.00    +0.000 A 
ENDROOT
BRANCH   1   7
ATOM      7  C   UNL     1      48.049   8.319  14.375  0.00  0.00    +0.000 C 
BRANCH   7  10
ATOM      8  C   UNL     1      47.372   6.430  12.999  0.00  0.00    +0.000 C 
ATOM      9  O   UNL     1      48.414   6.577  12.358  0.00  0.00    +0.000 OA
ATOM     10  N   UNL     1      47.076   7.301  14.040  0.00  0.00    +0.000 N 
ATOM     11  H   UNL     1      46.372   7.069  14.727  0.00  0.00    +0.000 HD
BRANCH   8  19
ATOM     12  C   UNL     1      44.633   7.912  11.364  0.00  0.00    +0.000 C 
ATOM     13  C   UNL     1      44.336   6.498  11.680  0.00  0.00    +0.000 A 
ATOM     14  C   UNL     1      43.153   5.788  11.425  0.00  0.00    +0.000 A 
ATOM     15  N   UNL     1      43.281   4.468  11.877  0.00  0.00    +0.000 N 
ATOM     16  C   UNL     1      44.524   4.336  12.401  0.00  0.00    +0.000 A 
ATOM     17  N   UNL     1      45.277   3.368  12.989  0.00  0.00    +0.000 NA
ATOM     18  C   UNL     1      46.444   4.052  13.276  0.00  0.00    +0.000 C 
ATOM     19  C   UNL     1      46.387   5.406  12.833  0.00  0.00    +0.000 C 
ATOM     20  C   UNL     1      45.106   5.532  12.281  0.00  0.00    +0.000 A 
ATOM     21  H   UNL     1      42.582   3.741  11.830  0.00  0.00    +0.000 HD
ENDBRANCH   8  19
ENDBRANCH   7  10
ENDBRANCH   1   7
BRANCH   4  22
ATOM     22  O   UNL     1      50.965   6.939  19.064  0.00  0.00    +0.000 OA
BRANCH  22  23
ATOM     23  C   UNL     1      51.182   5.530  19.199  0.00  0.00    +0.000 C 
BRANCH  23  24
ATOM     24  C   UNL     1      49.873   4.875  19.642  0.00  0.00    +0.000 C 
BRANCH  24  25
ATOM     25  C   UNL     1      49.177   4.155  18.517  0.00  0.00    +0.000 A 
ATOM     26  C   UNL     1      49.794   3.088  17.850  0.00  0.00    +0.000 A 
ATOM     27  C   UNL     1      49.133   2.423  16.812  0.00  0.00    +0.000 A 
ATOM     28  C   UNL     1      47.852   2.822  16.425  0.00  0.00    +0.000 A 
ATOM     29  C   UNL     1      47.236   3.892  17.070  0.00  0.00    +0.000 A 
ATOM     30  C   UNL     1      47.901   4.550  18.101  0.00  0.00    +0.000 A 
ATOM     31  F   UNL     1      47.295   5.585  18.701  0.00  0.00    +0.000 F 
ENDBRANCH  24  25
ENDBRANCH  23  24
ENDBRANCH  22  23
ENDBRANCH   4  22
TORSDOF 7
ENDMDL
MODEL 9
REMARK VINA RESULT:    -6.736      4.532      6.989
REMARK INTER + INTRA:         -10.703
REMARK INTER:                  -9.449
REMARK INTRA:                  -1.254
REMARK UNBOUND:                -1.210
REMARK  Name = 
REMARK  8 active torsions:
REMARK  status: ('A' for Active; 'I' for Inactive)
REMARK    1  A    between atoms: C_1  and  C_2
REMARK    2  A    between atoms: C_8  and  C_9
REMARK    3  A    between atoms: N_11  and  C_12
REMARK    4  A    between atoms: C_12  and  C_13
REMARK    5  A    between atoms: C_16  and  O_17
REMARK    6  A    between atoms: O_17  and  C_18
REMARK    7  A    between atoms: C_18  and  C_19
REMARK    8  A    between atoms: C_19  and  C_20
REMARK                            x       y       z     vdW  Elec       q    Type
REMARK                         _______ _______ _______ _____ _____    ______ ____
ROOT
ATOM      1  C   UNL     1      46.913   7.500  12.931  0.00  0.00    +0.000 A 
ATOM      2  C   UNL     1      47.363   6.186  13.126  0.00  0.00    +0.000 A 
ATOM      3  C   UNL     1      46.502   5.099  12.943  0.00  0.00    +0.000 A 
ATOM      4  C   UNL     1      45.178   5.306  12.556  0.00  0.00    +0.000 A 
ATOM      5  C   UNL     1      44.735   6.608  12.321  0.00  0.00    +0.000 A 
ATOM      6  C   UNL     1      45.592   7.699  12.512  0.00  0.00    +0.000 A 
ENDROOT
BRANCH   1   7
ATOM      7  C   UNL     1      47.826   8.663  13.203  0.00  0.00    +0.000 C 
BRANCH   7  10
ATOM      8  C   UNL     1      48.666  10.705  12.179  0.00  0.00    +0.000 C 
ATOM      9  O   UNL     1      48.755  11.184  13.310  0.00  0.00    +0.000 OA
ATOM     10  N   UNL     1      48.165   9.419  12.016  0.00  0.00    +0.000 N 
ATOM     11  H   UNL     1      48.302   8.914  11.151  0.00  0.00    +0.000 HD
BRANCH   8  19
ATOM     12  C   UNL     1      45.735  11.904  10.648  0.00  0.00    +0.000 C 
ATOM     13  C   UNL     1      46.905  12.147   9.775  0.00  0.00    +0.000 A 
ATOM     14  C   UNL     1      46.922  12.735   8.502  0.00  0.00    +0.000 A 
ATOM     15  N   UNL     1      48.235  12.784   8.016  0.00  0.00    +0.000 N 
ATOM     16  C   UNL     1      49.041  12.246   8.965  0.00  0.00    +0.000 A 
ATOM     17  N   UNL     1      50.365  11.991   9.143  0.00  0.00    +0.000 NA
ATOM     18  C   UNL     1      50.371  11.384  10.385  0.00  0.00    +0.000 C 
ATOM     19  C   UNL     1      49.063  11.308  10.945  0.00  0.00    +0.000 C 
ATOM     20  C   UNL     1      48.238  11.878   9.967  0.00  0.00    +0.000 A 
ATOM     21  H   UNL     1      48.539  13.147   7.123  0.00  0.00    +0.000 HD
ENDBRANCH   8  19
ENDBRANCH   7  10
ENDBRANCH   1   7
BRANCH   4  22
ATOM     22  O   UNL     1      44.254   4.317  12.341  0.00  0.00    +0.000 OA
BRANCH  22  23
ATOM     23  C   UNL     1      44.743   3.125  11.716  0.00  0.00    +0.000 C 
BRANCH  23  24
ATOM     24  C   UNL     1      44.082   2.986  10.344  0.00  0.00    +0.000 C 
BRANCH  24  25
ATOM     25  C   UNL     1      45.086   2.926   9.223  0.00  0.00    +0.000 A 
ATOM     26  C   UNL     1      45.568   1.699   8.749  0.00  0.00    +0.000 A 
ATOM     27  C   UNL     1      46.495   1.658   7.701  0.00  0.00    +0.000 A 
ATOM     28  C   UNL     1      46.954   2.842   7.122  0.00  0.00    +0.000 A 
ATOM     29  C   UNL     1      46.494   4.069   7.597  0.00  0.00    +0.000 A 
ATOM     30  C   UNL     1      45.573   4.102   8.641  0.00  0.00    +0.000 A 
ATOM     31  F   UNL     1      45.152   5.292   9.091  0.00  0.00    +0.000 F 
ENDBRANCH  24  25
ENDBRANCH  23  24
ENDBRANCH  22  23
ENDBRANCH   4  22
TORSDOF 7
ENDMDL
