MODEL 1
REMARK VINA RESULT:    -8.763      0.000      0.000
REMARK INTER + INTRA:         -12.850
REMARK INTER:                 -12.093
REMARK INTRA:                  -0.757
REMARK UNBOUND:                -0.757
REMARK  Name = 
REMARK  7 active torsions:
REMARK  status: ('A' for Active; 'I' for Inactive)
REMARK    1  A    between atoms: C_2  and  C_4
REMARK    2  A    between atoms: C_7  and  O_8
REMARK    3  A    between atoms: O_8  and  C_9
REMARK    4  A    between atoms: C_9  and  C_10
REMARK    5  A    between atoms: C_10  and  O_11
REMARK    6  A    between atoms: C_10  and  C_12
REMARK    7  A    between atoms: C_16  and  C_17
REMARK                            x       y       z     vdW  Elec       q    Type
REMARK                         _______ _______ _______ _____ _____    ______ ____
ROOT
ATOM      1  C   UNL     1      43.082   5.075  12.136  0.00  0.00    +0.000 C 
ENDROOT
BRANCH   1   2
ATOM      2  C   UNL     1      44.449   5.541  12.600  0.00  0.00    +0.000 A 
ATOM      3  C   UNL     1      45.271   4.708  13.363  0.00  0.00    +0.000 A 
ATOM      4  C   UNL     1      46.545   5.135  13.733  0.00  0.00    +0.000 A 
ATOM      5  C   UNL     1      47.003   6.407  13.368  0.00  0.00    +0.000 A 
ATOM      6  C   UNL     1      46.205   7.284  12.618  0.00  0.00    +0.000 A 
ATOM      7  C   UNL     1      44.938   6.812  12.235  0.00  0.00    +0.000 A 
BRANCH   6   8
ATOM      8  C   UNL     1      46.701   8.615  12.158  0.00  0.00    +0.000 A 
ATOM      9  C   UNL     1      45.785   9.693  12.123  0.00  0.00    +0.000 A 
ATOM     10  C   UNL     1      46.178  10.990  11.788  0.00  0.00    +0.000 A 
ATOM     11  C   UNL     1      47.511  11.257  11.508  0.00  0.00    +0.000 A 
ATOM     12  C   UNL     1      48.444  10.220  11.518  0.00  0.00    +0.000 A 
ATOM     13 CL   UNL     1      50.089  10.651  11.186  0.00  0.00    +0.000 Cl
ATOM     14  C   UNL     1      48.044   8.898  11.803  0.00  0.00    +0.000 A 
ATOM     15 CL   UNL     1      49.224   7.622  11.642  0.00  0.00    +0.000 Cl
ENDBRANCH   6   8
ENDBRANCH   1   2
BRANCH   1  16
ATOM     16  O   UNL     1      42.331   6.213  11.704  0.00  0.00    +0.000 OA
ATOM     17  H   UNL     1      41.867   5.976  10.885  0.00  0.00    +0.000 HD
ENDBRANCH   1  16
BRANCH   1  18
ATOM     18  C   UNL     1      43.218   4.031  11.013  0.00  0.00    +0.000 C 
BRANCH  18  19
ATOM     19  O   UNL     1      43.593   4.648   9.779  0.00  0.00    +0.000 OA
BRANCH  19  23
ATOM     20  C   UNL     1      46.471   2.567   7.774  0.00  0.00    +0.000 A 
ATOM     21  C   UNL     1      46.332   3.934   7.682  0.00  0.00    +0.000 A 
ATOM     22  N   UNL     1      45.416   4.643   8.378  0.00  0.00    +0.000 NA
ATOM     23  C   UNL     1      44.607   3.934   9.176  0.00  0.00    +0.000 A 
ATOM     24  N   UNL     1      44.678   2.602   9.368  0.00  0.00    +0.000 NA
ATOM     25  C   UNL     1      45.612   1.944   8.651  0.00  0.00    +0.000 A 
BRANCH  20  27
ATOM     26  N   UNL     1      48.416   2.396   6.320  0.00  0.00    +0.000 N 
ATOM     27  C   UNL     1      47.385   1.762   6.959  0.00  0.00    +0.000 C 
ATOM     28  O   UNL     1      47.246   0.549   6.865  0.00  0.00    +0.000 OA
ATOM     29  H   UNL     1      49.062   1.797   5.818  0.00  0.00    +0.000 HD
ATOM     30  H   UNL     1      48.725   3.333   6.535  0.00  0.00    +0.000 HD
ENDBRANCH  20  27
ENDBRANCH  19  23
ENDBRANCH  18  19
ENDBRANCH   1  18
TORSDOF 7
ENDMDL
MODEL 2
REMARK VINA RESULT:    -8.758      1.271      1.619
REMARK INTER + INTRA:         -12.843
REMARK INTER:                 -12.077
REMARK INTRA:                  -0.766
REMARK UNBOUND:                -0.757
REMARK  Name = 
REMARK  7 active torsions:
REMARK  status: ('A' for Active; 'I' for Inactive)
REMARK    1  A    between atoms: C_2  and  C_4
REMARK    2  A    between atoms: C_7  and  O_8
REMARK    3  A    between atoms: O_8  and  C_9
REMARK    4  A    between atoms: C_9  and  C_10
REMARK    5  A    between atoms: C_10  and  O_11
REMARK    6  A    between atoms: C_10  and  C_12
REMARK    7  A    between atoms: C_16  and  C_17
REMARK                            x       y       z     vdW  Elec       q    Type
REMARK                         _______ _______ _______ _____ _____    ______ ____
ROOT
ATOM      1  C   UNL     1      43.381   5.057  12.223  0.00  0.00    +0.000 C 
ENDROOT
BRANCH   1   2
ATOM      2  C   UNL     1      44.812   5.305  12.661  0.00  0.00    +0.000 A 
ATOM      3  C   UNL     1      45.530   4.330  13.358  0.00  0.00    +0.000 A 
ATOM      4  C   UNL     1      46.861   4.558  13.703  0.00  0.00    +0.000 A 
ATOM      5  C   UNL     1      47.482   5.771  13.381  0.00  0.00    +0.000 A 
ATOM      6  C   UNL     1      46.794   6.786  12.699  0.00  0.00    +0.000 A 
ATOM      7  C   UNL     1      45.464   6.513  12.338  0.00  0.00    +0.000 A 
BRANCH   6   8
ATOM      8  C   UNL     1      47.458   8.057  12.283  0.00  0.00    +0.000 A 
ATOM      9  C   UNL     1      48.841   8.020  11.986  0.00  0.00    +0.000 A 
ATOM     10  C   UNL     1      49.527   9.139  11.510  0.00  0.00    +0.000 A 
ATOM     11  C   UNL     1      48.842  10.326  11.284  0.00  0.00    +0.000 A 
ATOM     12  C   UNL     1      47.481  10.407  11.577  0.00  0.00    +0.000 A 
ATOM     13 CL   UNL     1      46.701  11.917  11.236  0.00  0.00    +0.000 Cl
ATOM     14  C   UNL     1      46.793   9.297  12.108  0.00  0.00    +0.000 A 
ATOM     15 CL   UNL     1      45.134   9.510  12.606  0.00  0.00    +0.000 Cl
ENDBRANCH   6   8
ENDBRANCH   1   2
BRANCH   1  16
ATOM     16  O   UNL     1      42.817   6.292  11.776  0.00  0.00    +0.000 OA
ATOM     17  H   UNL     1      43.543   6.918  11.622  0.00  0.00    +0.000 HD
ENDBRANCH   1  16
BRANCH   1  18
ATOM     18  C   UNL     1      43.331   3.984  11.120  0.00  0.00    +0.000 C 
BRANCH  18  19
ATOM     19  O   UNL     1      43.632   4.547   9.840  0.00  0.00    +0.000 OA
BRANCH  19  23
ATOM     20  C   UNL     1      46.434   2.412   7.784  0.00  0.00    +0.000 A 
ATOM     21  C   UNL     1      46.275   3.772   7.643  0.00  0.00    +0.000 A 
ATOM     22  N   UNL     1      45.385   4.501   8.354  0.00  0.00    +0.000 NA
ATOM     23  C   UNL     1      44.624   3.818   9.219  0.00  0.00    +0.000 A 
ATOM     24  N   UNL     1      44.719   2.496   9.461  0.00  0.00    +0.000 NA
ATOM     25  C   UNL     1      45.625   1.817   8.726  0.00  0.00    +0.000 A 
BRANCH  20  27
ATOM     26  N   UNL     1      48.470   2.140   6.478  0.00  0.00    +0.000 N 
ATOM     27  C   UNL     1      47.317   1.583   6.959  0.00  0.00    +0.000 C 
ATOM     28  O   UNL     1      47.043   0.414   6.719  0.00  0.00    +0.000 OA
ATOM     29  H   UNL     1      49.084   1.518   5.965  0.00  0.00    +0.000 HD
ATOM     30  H   UNL     1      48.867   3.003   6.821  0.00  0.00    +0.000 HD
ENDBRANCH  20  27
ENDBRANCH  19  23
ENDBRANCH  18  19
ENDBRANCH   1  18
TORSDOF 7
ENDMDL
MODEL 3
REMARK VINA RESULT:    -8.714      2.345      4.168
REMARK INTER + INTRA:         -12.782
REMARK INTER:                 -12.032
REMARK INTRA:                  -0.750
REMARK UNBOUND:                -0.757
REMARK  Name = 
REMARK  7 active torsions:
REMARK  status: ('A' for Active; 'I' for Inactive)
REMARK    1  A    between atoms: C_2  and  C_4
REMARK    2  A    between atoms: C_7  and  O_8
REMARK    3  A    between atoms: O_8  and  C_9
REMARK    4  A    between atoms: C_9  and  C_10
REMARK    5  A    between atoms: C_10  and  O_11
REMARK    6  A    between atoms: C_10  and  C_12
REMARK    7  A    between atoms: C_16  and  C_17
REMARK                            x       y       z     vdW  Elec       q    Type
REMARK                         _______ _______ _______ _____ _____    ______ ____
ROOT
ATOM      1  C   UNL     1      43.661   5.298  12.132  0.00  0.00    +0.000 C 
ENDROOT
BRANCH   1   2
ATOM      2  C   UNL     1      45.119   5.593  12.427  0.00  0.00    +0.000 A 
ATOM      3  C   UNL     1      45.883   6.381  11.563  0.00  0.00    +0.000 A 
ATOM      4  C   UNL     1      47.205   6.685  11.881  0.00  0.00    +0.000 A 
ATOM      5  C   UNL     1      47.788   6.184  13.052  0.00  0.00    +0.000 A 
ATOM      6  C   UNL     1      47.065   5.374  13.940  0.00  0.00    +0.000 A 
ATOM      7  C   UNL     1      45.725   5.112  13.606  0.00  0.00    +0.000 A 
BRANCH   6   8
ATOM      8  C   UNL     1      47.645   4.889  15.227  0.00  0.00    +0.000 A 
ATOM      9  C   UNL     1      47.443   3.535  15.583  0.00  0.00    +0.000 A 
ATOM     10  C   UNL     1      48.019   2.974  16.724  0.00  0.00    +0.000 A 
ATOM     11  C   UNL     1      48.845   3.744  17.532  0.00  0.00    +0.000 A 
ATOM     12  C   UNL     1      49.058   5.088  17.224  0.00  0.00    +0.000 A 
ATOM     13 CL   UNL     1      50.127   5.964  18.270  0.00  0.00    +0.000 Cl
ATOM     14  C   UNL     1      48.438   5.675  16.103  0.00  0.00    +0.000 A 
ATOM     15 CL   UNL     1      48.614   7.395  15.863  0.00  0.00    +0.000 Cl
ENDBRANCH   6   8
ENDBRANCH   1   2
BRANCH   1  16
ATOM     16  O   UNL     1      43.054   6.475  11.592  0.00  0.00    +0.000 OA
ATOM     17  H   UNL     1      43.614   6.798  10.868  0.00  0.00    +0.000 HD
ENDBRANCH   1  16
BRANCH   1  18
ATOM     18  C   UNL     1      43.534   4.105  11.167  0.00  0.00    +0.000 C 
BRANCH  18  19
ATOM     19  O   UNL     1      43.671   4.526   9.807  0.00  0.00    +0.000 OA
BRANCH  19  23
ATOM     20  C   UNL     1      46.488   2.420   7.742  0.00  0.00    +0.000 A 
ATOM     21  C   UNL     1      46.322   3.781   7.610  0.00  0.00    +0.000 A 
ATOM     22  N   UNL     1      45.427   4.500   8.324  0.00  0.00    +0.000 NA
ATOM     23  C   UNL     1      44.669   3.807   9.183  0.00  0.00    +0.000 A 
ATOM     24  N   UNL     1      44.770   2.484   9.417  0.00  0.00    +0.000 NA
ATOM     25  C   UNL     1      45.681   1.815   8.679  0.00  0.00    +0.000 A 
BRANCH  20  27
ATOM     26  N   UNL     1      48.542   2.158   6.462  0.00  0.00    +0.000 N 
ATOM     27  C   UNL     1      47.377   1.601   6.913  0.00  0.00    +0.000 C 
ATOM     28  O   UNL     1      47.097   0.440   6.644  0.00  0.00    +0.000 OA
ATOM     29  H   UNL     1      49.158   1.542   5.945  0.00  0.00    +0.000 HD
ATOM     30  H   UNL     1      48.941   3.011   6.829  0.00  0.00    +0.000 HD
ENDBRANCH  20  27
ENDBRANCH  19  23
ENDBRANCH  18  19
ENDBRANCH   1  18
TORSDOF 7
ENDMDL
MODEL 4
REMARK VINA RESULT:    -8.061      1.984      2.387
REMARK INTER + INTRA:         -11.882
REMARK INTER:                 -10.792
REMARK INTRA:                  -1.089
REMARK UNBOUND:                -0.757
REMARK  Name = 
REMARK  7 active torsions:
REMARK  status: ('A' for Active; 'I' for Inactive)
REMARK    1  A    between atoms: C_2  and  C_4
REMARK    2  A    between atoms: C_7  and  O_8
REMARK    3  A    between atoms: O_8  and  C_9
REMARK    4  A    between atoms: C_9  and  C_10
REMARK    5  A    between atoms: C_10  and  O_11
REMARK    6  A    between atoms: C_10  and  C_12
REMARK    7  A    between atoms: C_16  and  C_17
REMARK                            x       y       z     vdW  Elec       q    Type
REMARK                         _______ _______ _______ _____ _____    ______ ____
ROOT
ATOM      1  C   UNL     1      43.989   5.912  11.708  0.00  0.00    +0.000 C 
ENDROOT
BRANCH   1   2
ATOM      2  C   UNL     1      45.203   5.433  12.482  0.00  0.00    +0.000 A 
ATOM      3  C   UNL     1      45.394   4.076  12.752  0.00  0.00    +0.000 A 
ATOM      4  C   UNL     1      46.543   3.652  13.416  0.00  0.00    +0.000 A 
ATOM      5  C   UNL     1      47.501   4.580  13.843  0.00  0.00    +0.000 A 
ATOM      6  C   UNL     1      47.342   5.955  13.611  0.00  0.00    +0.000 A 
ATOM      7  C   UNL     1      46.188   6.346  12.912  0.00  0.00    +0.000 A 
BRANCH   6   8
ATOM      8  C   UNL     1      48.384   6.952  13.995  0.00  0.00    +0.000 A 
ATOM      9  C   UNL     1      48.601   7.195  15.371  0.00  0.00    +0.000 A 
ATOM     10  C   UNL     1      49.610   8.047  15.824  0.00  0.00    +0.000 A 
ATOM     11  C   UNL     1      50.459   8.659  14.912  0.00  0.00    +0.000 A 
ATOM     12  C   UNL     1      50.271   8.456  13.545  0.00  0.00    +0.000 A 
ATOM     13 CL   UNL     1      51.396   9.235  12.481  0.00  0.00    +0.000 Cl
ATOM     14  C   UNL     1      49.220   7.640  13.079  0.00  0.00    +0.000 A 
ATOM     15 CL   UNL     1      48.937   7.555  11.359  0.00  0.00    +0.000 Cl
ENDBRANCH   6   8
ENDBRANCH   1   2
BRANCH   1  16
ATOM     16  O   UNL     1      44.391   6.968  10.832  0.00  0.00    +0.000 OA
ATOM     17  H   UNL     1      43.764   7.702  10.936  0.00  0.00    +0.000 HD
ENDBRANCH   1  16
BRANCH   1  18
ATOM     18  C   UNL     1      43.349   4.748  10.930  0.00  0.00    +0.000 C 
BRANCH  18  19
ATOM     19  O   UNL     1      43.568   4.886   9.524  0.00  0.00    +0.000 OA
BRANCH  19  23
ATOM     20  C   UNL     1      46.219   2.176   8.019  0.00  0.00    +0.000 A 
ATOM     21  C   UNL     1      46.261   3.518   7.711  0.00  0.00    +0.000 A 
ATOM     22  N   UNL     1      45.421   4.436   8.240  0.00  0.00    +0.000 NA
ATOM     23  C   UNL     1      44.502   3.966   9.094  0.00  0.00    +0.000 A 
ATOM     24  N   UNL     1      44.393   2.684   9.492  0.00  0.00    +0.000 NA
ATOM     25  C   UNL     1      45.258   1.811   8.935  0.00  0.00    +0.000 A 
BRANCH  20  27
ATOM     26  N   UNL     1      46.740  -0.167   7.613  0.00  0.00    +0.000 N 
ATOM     27  C   UNL     1      47.048   1.147   7.387  0.00  0.00    +0.000 C 
ATOM     28  O   UNL     1      47.984   1.450   6.658  0.00  0.00    +0.000 OA
ATOM     29  H   UNL     1      47.298  -0.847   7.109  0.00  0.00    +0.000 HD
ATOM     30  H   UNL     1      45.863  -0.484   8.001  0.00  0.00    +0.000 HD
ENDBRANCH  20  27
ENDBRANCH  19  23
ENDBRANCH  18  19
ENDBRANCH   1  18
TORSDOF 7
ENDMDL
MODEL 5
REMARK VINA RESULT:    -8.021      2.959      4.315
REMARK INTER + INTRA:         -11.827
REMARK INTER:                 -11.375
REMARK INTRA:                  -0.452
REMARK UNBOUND:                -0.757
REMARK  Name = 
REMARK  7 active torsions:
REMARK  status: ('A' for Active; 'I' for Inactive)
REMARK    1  A    between atoms: C_2  and  C_4
REMARK    2  A    between atoms: C_7  and  O_8
REMARK    3  A    between atoms: O_8  and  C_9
REMARK    4  A    between atoms: C_9  and  C_10
REMARK    5  A    between atoms: C_10  and  O_11
REMARK    6  A    between atoms: C_10  and  C_12
REMARK    7  A    between atoms: C_16  and  C_17
REMARK                            x       y       z     vdW  Elec       q    Type
REMARK                         _______ _______ _______ _____ _____    ______ ____
ROOT
ATOM      1  C   UNL     1      45.144   4.230  12.137  0.00  0.00    +0.000 C 
ENDROOT
BRANCH   1   2
ATOM      2  C   UNL     1      46.210   5.253  12.482  0.00  0.00    +0.000 A 
ATOM      3  C   UNL     1      46.567   6.254  11.575  0.00  0.00    +0.000 A 
ATOM      4  C   UNL     1      47.508   7.217  11.934  0.00  0.00    +0.000 A 
ATOM      5  C   UNL     1      48.124   7.176  13.191  0.00  0.00    +0.000 A 
ATOM      6  C   UNL     1      47.811   6.178  14.126  0.00  0.00    +0.000 A 
ATOM      7  C   UNL     1      46.835   5.241  13.746  0.00  0.00    +0.000 A 
BRANCH   6   8
ATOM      8  C   UNL     1      48.403   6.159  15.497  0.00  0.00    +0.000 A 
ATOM      9  C   UNL     1      49.106   7.305  15.936  0.00  0.00    +0.000 A 
ATOM     10  C   UNL     1      49.620   7.410  17.230  0.00  0.00    +0.000 A 
ATOM     11  C   UNL     1      49.418   6.380  18.139  0.00  0.00    +0.000 A 
ATOM     12  C   UNL     1      48.742   5.227  17.742  0.00  0.00    +0.000 A 
ATOM     13 CL   UNL     1      48.510   4.006  18.950  0.00  0.00    +0.000 Cl
ATOM     14  C   UNL     1      48.267   5.092  16.421  0.00  0.00    +0.000 A 
ATOM     15 CL   UNL     1      47.574   3.564  15.940  0.00  0.00    +0.000 Cl
ENDBRANCH   6   8
ENDBRANCH   1   2
BRANCH   1  16
ATOM     16  O   UNL     1      44.433   3.888  13.329  0.00  0.00    +0.000 OA
ATOM     17  H   UNL     1      43.483   3.901  13.128  0.00  0.00    +0.000 HD
ENDBRANCH   1  16
BRANCH   1  18
ATOM     18  C   UNL     1      44.198   4.778  11.053  0.00  0.00    +0.000 C 
BRANCH  18  19
ATOM     19  O   UNL     1      43.655   3.719  10.261  0.00  0.00    +0.000 OA
BRANCH  19  23
ATOM     20  C   UNL     1      46.478   2.588   7.543  0.00  0.00    +0.000 A 
ATOM     21  C   UNL     1      45.855   1.700   8.391  0.00  0.00    +0.000 A 
ATOM     22  N   UNL     1      44.882   2.051   9.262  0.00  0.00    +0.000 NA
ATOM     23  C   UNL     1      44.550   3.349   9.279  0.00  0.00    +0.000 A 
ATOM     24  N   UNL     1      45.069   4.295   8.472  0.00  0.00    +0.000 NA
ATOM     25  C   UNL     1      46.034   3.889   7.620  0.00  0.00    +0.000 A 
BRANCH  20  27
ATOM     26  N   UNL     1      47.833   3.052   5.575  0.00  0.00    +0.000 N 
ATOM     27  C   UNL     1      47.601   2.256   6.663  0.00  0.00    +0.000 C 
ATOM     28  O   UNL     1      48.329   1.301   6.902  0.00  0.00    +0.000 OA
ATOM     29  H   UNL     1      48.656   2.827   5.027  0.00  0.00    +0.000 HD
ATOM     30  H   UNL     1      47.430   3.970   5.449  0.00  0.00    +0.000 HD
ENDBRANCH  20  27
ENDBRANCH  19  23
ENDBRANCH  18  19
ENDBRANCH   1  18
TORSDOF 7
ENDMDL
MODEL 6
REMARK VINA RESULT:    -7.985      2.077      2.923
REMARK INTER + INTRA:         -11.777
REMARK INTER:                 -10.898
REMARK INTRA:                  -0.879
REMARK UNBOUND:                -0.757
REMARK  Name = 
REMARK  7 active torsions:
REMARK  status: ('A' for Active; 'I' for Inactive)
REMARK    1  A    between atoms: C_2  and  C_4
REMARK    2  A    between atoms: C_7  and  O_8
REMARK    3  A    between atoms: O_8  and  C_9
REMARK    4  A    between atoms: C_9  and  C_10
REMARK    5  A    between atoms: C_10  and  O_11
REMARK    6  A    between atoms: C_10  and  C_12
REMARK    7  A    between atoms: C_16  and  C_17
REMARK                            x       y       z     vdW  Elec       q    Type
REMARK                         _______ _______ _______ _____ _____    ______ ____
ROOT
ATOM      1  C   UNL     1      45.006   4.547  11.857  0.00  0.00    +0.000 C 
ENDROOT
BRANCH   1   2
ATOM      2  C   UNL     1      45.514   5.974  11.940  0.00  0.00    +0.000 A 
ATOM      3  C   UNL     1      44.633   7.056  11.867  0.00  0.00    +0.000 A 
ATOM      4  C   UNL     1      45.115   8.357  12.000  0.00  0.00    +0.000 A 
ATOM      5  C   UNL     1      46.483   8.594  12.181  0.00  0.00    +0.000 A 
ATOM      6  C   UNL     1      47.406   7.540  12.241  0.00  0.00    +0.000 A 
ATOM      7  C   UNL     1      46.885   6.239  12.135  0.00  0.00    +0.000 A 
BRANCH   6   8
ATOM      8  C   UNL     1      48.858   7.767  12.504  0.00  0.00    +0.000 A 
ATOM      9  C   UNL     1      49.687   8.119  11.413  0.00  0.00    +0.000 A 
ATOM     10  C   UNL     1      51.037   8.432  11.578  0.00  0.00    +0.000 A 
ATOM     11  C   UNL     1      51.596   8.436  12.849  0.00  0.00    +0.000 A 
ATOM     12  C   UNL     1      50.816   8.082  13.950  0.00  0.00    +0.000 A 
ATOM     13 CL   UNL     1      51.587   8.143  15.501  0.00  0.00    +0.000 Cl
ATOM     14  C   UNL     1      49.465   7.713  13.785  0.00  0.00    +0.000 A 
ATOM     15 CL   UNL     1      48.590   7.125  15.175  0.00  0.00    +0.000 Cl
ENDBRANCH   6   8
ENDBRANCH   1   2
BRANCH   1  16
ATOM     16  O   UNL     1      44.678   4.099  13.175  0.00  0.00    +0.000 OA
ATOM     17  H   UNL     1      45.451   4.243  13.744  0.00  0.00    +0.000 HD
ENDBRANCH   1  16
BRANCH   1  18
ATOM     18  C   UNL     1      43.794   4.457  10.913  0.00  0.00    +0.000 C 
BRANCH  18  19
ATOM     19  O   UNL     1      43.647   3.135  10.388  0.00  0.00    +0.000 OA
BRANCH  19  23
ATOM     20  C   UNL     1      46.427   2.517   7.468  0.00  0.00    +0.000 A 
ATOM     21  C   UNL     1      45.940   1.506   8.266  0.00  0.00    +0.000 A 
ATOM     22  N   UNL     1      44.982   1.686   9.204  0.00  0.00    +0.000 NA
ATOM     23  C   UNL     1      44.524   2.937   9.342  0.00  0.00    +0.000 A 
ATOM     24  N   UNL     1      44.903   3.991   8.593  0.00  0.00    +0.000 NA
ATOM     25  C   UNL     1      45.859   3.755   7.671  0.00  0.00    +0.000 A 
BRANCH  20  27
ATOM     26  N   UNL     1      47.491   3.098   5.357  0.00  0.00    +0.000 N 
ATOM     27  C   UNL     1      47.532   2.372   6.516  0.00  0.00    +0.000 C 
ATOM     28  O   UNL     1      48.480   1.636   6.757  0.00  0.00    +0.000 OA
ATOM     29  H   UNL     1      48.303   3.018   4.755  0.00  0.00    +0.000 HD
ATOM     30  H   UNL     1      46.875   3.883   5.202  0.00  0.00    +0.000 HD
ENDBRANCH  20  27
ENDBRANCH  19  23
ENDBRANCH  18  19
ENDBRANCH   1  18
TORSDOF 7
ENDMDL
MODEL 7
REMARK VINA RESULT:    -7.684      2.423      3.590
REMARK INTER + INTRA:         -11.361
REMARK INTER:                 -10.585
REMARK INTRA:                  -0.776
REMARK UNBOUND:                -0.757
REMARK  Name = 
REMARK  7 active torsions:
REMARK  status: ('A' for Active; 'I' for Inactive)
REMARK    1  A    between atoms: C_2  and  C_4
REMARK    2  A    between atoms: C_7  and  O_8
REMARK    3  A    between atoms: O_8  and  C_9
REMARK    4  A    between atoms: C_9  and  C_10
REMARK    5  A    between atoms: C_10  and  O_11
REMARK    6  A    between atoms: C_10  and  C_12
REMARK    7  A    between atoms: C_16  and  C_17
REMARK                            x       y       z     vdW  Elec       q    Type
REMARK                         _______ _______ _______ _____ _____    ______ ____
ROOT
ATOM      1  C   UNL     1      45.258   5.130  12.077  0.00  0.00    +0.000 C 
ENDROOT
BRANCH   1   2
ATOM      2  C   UNL     1      45.958   6.351  12.644  0.00  0.00    +0.000 A 
ATOM      3  C   UNL     1      45.457   7.636  12.421  0.00  0.00    +0.000 A 
ATOM      4  C   UNL     1      46.084   8.739  12.997  0.00  0.00    +0.000 A 
ATOM      5  C   UNL     1      47.234   8.574  13.781  0.00  0.00    +0.000 A 
ATOM      6  C   UNL     1      47.783   7.305  14.016  0.00  0.00    +0.000 A 
ATOM      7  C   UNL     1      47.109   6.211  13.447  0.00  0.00    +0.000 A 
BRANCH   6   8
ATOM      8  C   UNL     1      48.965   7.102  14.906  0.00  0.00    +0.000 A 
ATOM      9  C   UNL     1      48.796   6.317  16.070  0.00  0.00    +0.000 A 
ATOM     10  C   UNL     1      49.863   6.005  16.915  0.00  0.00    +0.000 A 
ATOM     11  C   UNL     1      51.143   6.442  16.603  0.00  0.00    +0.000 A 
ATOM     12  C   UNL     1      51.350   7.230  15.471  0.00  0.00    +0.000 A 
ATOM     13 CL   UNL     1      52.984   7.705  15.142  0.00  0.00    +0.000 Cl
ATOM     14  C   UNL     1      50.268   7.594  14.642  0.00  0.00    +0.000 A 
ATOM     15 CL   UNL     1      50.565   8.712  13.336  0.00  0.00    +0.000 Cl
ENDBRANCH   6   8
ENDBRANCH   1   2
BRANCH   1  16
ATOM     16  O   UNL     1      44.312   4.655  13.038  0.00  0.00    +0.000 OA
ATOM     17  H   UNL     1      44.028   5.408  13.580  0.00  0.00    +0.000 HD
ENDBRANCH   1  16
BRANCH   1  18
ATOM     18  C   UNL     1      44.579   5.469  10.737  0.00  0.00    +0.000 C 
BRANCH  18  19
ATOM     19  O   UNL     1      43.950   4.315  10.173  0.00  0.00    +0.000 OA
BRANCH  19  23
ATOM     20  C   UNL     1      46.524   2.598   7.515  0.00  0.00    +0.000 A 
ATOM     21  C   UNL     1      45.797   1.872   8.432  0.00  0.00    +0.000 A 
ATOM     22  N   UNL     1      44.903   2.421   9.285  0.00  0.00    +0.000 NA
ATOM     23  C   UNL     1      44.762   3.751   9.212  0.00  0.00    +0.000 A 
ATOM     24  N   UNL     1      45.395   4.552   8.332  0.00  0.00    +0.000 NA
ATOM     25  C   UNL     1      46.273   3.952   7.502  0.00  0.00    +0.000 A 
BRANCH  20  27
ATOM     26  N   UNL     1      48.018   2.805   5.605  0.00  0.00    +0.000 N 
ATOM     27  C   UNL     1      47.569   2.045   6.649  0.00  0.00    +0.000 C 
ATOM     28  O   UNL     1      48.045   0.938   6.864  0.00  0.00    +0.000 OA
ATOM     29  H   UNL     1      48.784   2.414   5.068  0.00  0.00    +0.000 HD
ATOM     30  H   UNL     1      47.845   3.795   5.509  0.00  0.00    +0.000 HD
ENDBRANCH  20  27
ENDBRANCH  19  23
ENDBRANCH  18  19
ENDBRANCH   1  18
TORSDOF 7
ENDMDL
MODEL 8
REMARK VINA RESULT:    -7.602      1.829      2.612
REMARK INTER + INTRA:         -11.248
REMARK INTER:                 -10.371
REMARK INTRA:                  -0.877
REMARK UNBOUND:                -0.757
REMARK  Name = 
REMARK  7 active torsions:
REMARK  status: ('A' for Active; 'I' for Inactive)
REMARK    1  A    between atoms: C_2  and  C_4
REMARK    2  A    between atoms: C_7  and  O_8
REMARK    3  A    between atoms: O_8  and  C_9
REMARK    4  A    between atoms: C_9  and  C_10
REMARK    5  A    between atoms: C_10  and  O_11
REMARK    6  A    between atoms: C_10  and  C_12
REMARK    7  A    between atoms: C_16  and  C_17
REMARK                            x       y       z     vdW  Elec       q    Type
REMARK                         _______ _______ _______ _____ _____    ______ ____
ROOT
ATOM      1  C   UNL     1      45.037   6.194  11.112  0.00  0.00    +0.000 C 
ENDROOT
BRANCH   1   2
ATOM      2  C   UNL     1      46.195   6.252  12.092  0.00  0.00    +0.000 A 
ATOM      3  C   UNL     1      46.228   5.424  13.216  0.00  0.00    +0.000 A 
ATOM      4  C   UNL     1      47.327   5.454  14.072  0.00  0.00    +0.000 A 
ATOM      5  C   UNL     1      48.392   6.331  13.832  0.00  0.00    +0.000 A 
ATOM      6  C   UNL     1      48.393   7.195  12.726  0.00  0.00    +0.000 A 
ATOM      7  C   UNL     1      47.285   7.117  11.865  0.00  0.00    +0.000 A 
BRANCH   6   8
ATOM      8  C   UNL     1      49.550   8.084  12.412  0.00  0.00    +0.000 A 
ATOM      9  C   UNL     1      50.420   7.703  11.364  0.00  0.00    +0.000 A 
ATOM     10  C   UNL     1      51.477   8.513  10.946  0.00  0.00    +0.000 A 
ATOM     11  C   UNL     1      51.679   9.750  11.544  0.00  0.00    +0.000 A 
ATOM     12  C   UNL     1      50.852  10.157  12.590  0.00  0.00    +0.000 A 
ATOM     13 CL   UNL     1      51.157  11.728  13.257  0.00  0.00    +0.000 Cl
ATOM     14  C   UNL     1      49.815   9.321  13.053  0.00  0.00    +0.000 A 
ATOM     15 CL   UNL     1      48.920   9.815  14.468  0.00  0.00    +0.000 Cl
ENDBRANCH   6   8
ENDBRANCH   1   2
BRANCH   1  16
ATOM     16  O   UNL     1      45.521   6.528   9.809  0.00  0.00    +0.000 OA
ATOM     17  H   UNL     1      46.459   6.767   9.887  0.00  0.00    +0.000 HD
ENDBRANCH   1  16
BRANCH   1  18
ATOM     18  C   UNL     1      44.382   4.801  11.131  0.00  0.00    +0.000 C 
BRANCH  18  19
ATOM     19  O   UNL     1      43.738   4.519   9.885  0.00  0.00    +0.000 OA
BRANCH  19  23
ATOM     20  C   UNL     1      46.312   2.195   7.738  0.00  0.00    +0.000 A 
ATOM     21  C   UNL     1      45.516   1.699   8.746  0.00  0.00    +0.000 A 
ATOM     22  N   UNL     1      44.622   2.446   9.433  0.00  0.00    +0.000 NA
ATOM     23  C   UNL     1      44.554   3.739   9.092  0.00  0.00    +0.000 A 
ATOM     24  N   UNL     1      45.258   4.320   8.101  0.00  0.00    +0.000 NA
ATOM     25  C   UNL     1      46.133   3.529   7.447  0.00  0.00    +0.000 A 
BRANCH  20  27
ATOM     26  N   UNL     1      48.413   2.120   6.510  0.00  0.00    +0.000 N 
ATOM     27  C   UNL     1      47.357   1.435   7.047  0.00  0.00    +0.000 C 
ATOM     28  O   UNL     1      47.301   0.215   6.966  0.00  0.00    +0.000 OA
ATOM     29  H   UNL     1      49.145   1.554   6.096  0.00  0.00    +0.000 HD
ATOM     30  H   UNL     1      48.640   3.077   6.737  0.00  0.00    +0.000 HD
ENDBRANCH  20  27
ENDBRANCH  19  23
ENDBRANCH  18  19
ENDBRANCH   1  18
TORSDOF 7
ENDMDL
MODEL 9
REMARK VINA RESULT:    -7.438      4.747      7.668
REMARK INTER + INTRA:         -11.022
REMARK INTER:                  -9.834
REMARK INTRA:                  -1.188
REMARK UNBOUND:                -0.757
REMARK  Name = 
REMARK  7 active torsions:
REMARK  status: ('A' for Active; 'I' for Inactive)
REMARK    1  A    between atoms: C_2  and  C_4
REMARK    2  A    between atoms: C_7  and  O_8
REMARK    3  A    between atoms: O_8  and  C_9
REMARK    4  A    between atoms: C_9  and  C_10
REMARK    5  A    between atoms: C_10  and  O_11
REMARK    6  A    between atoms: C_10  and  C_12
REMARK    7  A    between atoms: C_16  and  C_17
REMARK                            x       y       z     vdW  Elec       q    Type
REMARK                         _______ _______ _______ _____ _____    ______ ____
ROOT
ATOM      1  C   UNL     1      48.780   8.571  12.734  0.00  0.00    +0.000 C 
ENDROOT
BRANCH   1   2
ATOM      2  C   UNL     1      47.321   8.402  12.355  0.00  0.00    +0.000 A 
ATOM      3  C   UNL     1      46.510   9.512  12.104  0.00  0.00    +0.000 A 
ATOM      4  C   UNL     1      45.187   9.332  11.703  0.00  0.00    +0.000 A 
ATOM      5  C   UNL     1      44.651   8.045  11.575  0.00  0.00    +0.000 A 
ATOM      6  C   UNL     1      45.423   6.902  11.835  0.00  0.00    +0.000 A 
ATOM      7  C   UNL     1      46.761   7.116  12.207  0.00  0.00    +0.000 A 
BRANCH   6   8
ATOM      8  C   UNL     1      44.892   5.521  11.635  0.00  0.00    +0.000 A 
ATOM      9  C   UNL     1      44.164   4.927  12.693  0.00  0.00    +0.000 A 
ATOM     10  C   UNL     1      43.559   3.675  12.565  0.00  0.00    +0.000 A 
ATOM     11  C   UNL     1      43.636   2.990  11.360  0.00  0.00    +0.000 A 
ATOM     12  C   UNL     1      44.357   3.535  10.297  0.00  0.00    +0.000 A 
ATOM     13 CL   UNL     1      44.375   2.625   8.822  0.00  0.00    +0.000 Cl
ATOM     14  C   UNL     1      45.015   4.774  10.436  0.00  0.00    +0.000 A 
ATOM     15 CL   UNL     1      46.032   5.325   9.129  0.00  0.00    +0.000 Cl
ENDBRANCH   6   8
ENDBRANCH   1   2
BRANCH   1  16
ATOM     16  O   UNL     1      48.897   9.678  13.631  0.00  0.00    +0.000 OA
ATOM     17  H   UNL     1      49.841   9.838  13.793  0.00  0.00    +0.000 HD
ENDBRANCH   1  16
BRANCH   1  18
ATOM     18  C   UNL     1      49.330   7.277  13.362  0.00  0.00    +0.000 C 
BRANCH  18  19
ATOM     19  O   UNL     1      49.696   7.483  14.729  0.00  0.00    +0.000 OA
BRANCH  19  23
ATOM     20  C   UNL     1      48.090   4.586  17.108  0.00  0.00    +0.000 A 
ATOM     21  C   UNL     1      49.023   5.493  17.557  0.00  0.00    +0.000 A 
ATOM     22  N   UNL     1      49.527   6.490  16.795  0.00  0.00    +0.000 NA
ATOM     23  C   UNL     1      49.079   6.549  15.535  0.00  0.00    +0.000 A 
ATOM     24  N   UNL     1      48.144   5.737  15.003  0.00  0.00    +0.000 NA
ATOM     25  C   UNL     1      47.672   4.762  15.808  0.00  0.00    +0.000 A 
BRANCH  20  27
ATOM     26  N   UNL     1      48.246   3.112  19.039  0.00  0.00    +0.000 N 
ATOM     27  C   UNL     1      47.601   3.438  17.878  0.00  0.00    +0.000 C 
ATOM     28  O   UNL     1      46.627   2.797  17.505  0.00  0.00    +0.000 OA
ATOM     29  H   UNL     1      47.840   2.352  19.574  0.00  0.00    +0.000 HD
ATOM     30  H   UNL     1      48.892   3.722  19.519  0.00  0.00    +0.000 HD
ENDBRANCH  20  27
ENDBRANCH  19  23
ENDBRANCH  18  19
ENDBRANCH   1  18
TORSDOF 7
ENDMDL
