MODEL 1
REMARK VINA RESULT:    -8.207      0.000      0.000
REMARK INTER + INTRA:         -12.523
REMARK INTER:                 -11.565
REMARK INTRA:                  -0.958
REMARK UNBOUND:                -0.958
REMARK  Name = 
REMARK  7 active torsions:
REMARK  status: ('A' for Active; 'I' for Inactive)
REMARK    1  A    between atoms: C_2  and  C_3
REMARK    2  A    between atoms: C_7  and  C_8
REMARK    3  A    between atoms: C_8  and  O_9
REMARK    4  A    between atoms: O_9  and  C_10
REMARK    5  A    between atoms: C_13  and  C_14
REMARK    6  A    between atoms: C_14  and  N_15
REMARK    7  A    between atoms: C_16  and  C_18
REMARK                            x       y       z     vdW  Elec       q    Type
REMARK                         _______ _______ _______ _____ _____    ______ ____
ROOT
ATOM      1  C   UNL     1      45.497   3.972  12.391  0.00  0.00    +0.000 A 
ATOM      2  C   UNL     1      45.367   5.336  12.152  0.00  0.00    +0.000 A 
ATOM      3  C   UNL     1      46.287   6.223  12.710  0.00  0.00    +0.000 A 
ATOM      4  C   UNL     1      47.296   5.717  13.528  0.00  0.00    +0.000 A 
ATOM      5  N   UNL     1      47.425   4.394  13.793  0.00  0.00    +0.000 NA
ATOM      6  C   UNL     1      46.525   3.562  13.230  0.00  0.00    +0.000 A 
ENDROOT
BRANCH   1   7
ATOM      7  O   UNL     1      44.596   3.148  11.781  0.00  0.00    +0.000 OA
BRANCH   7   8
ATOM      8  C   UNL     1      44.031   3.685  10.578  0.00  0.00    +0.000 C 
BRANCH   8  13
ATOM      9  C   UNL     1      46.151   1.764   8.068  0.00  0.00    +0.000 A 
ATOM     10  C   UNL     1      46.656   2.793   7.274  0.00  0.00    +0.000 A 
ATOM     11  C   UNL     1      46.304   4.115   7.540  0.00  0.00    +0.000 A 
ATOM     12  C   UNL     1      45.444   4.411   8.596  0.00  0.00    +0.000 A 
ATOM     13  C   UNL     1      44.911   3.385   9.388  0.00  0.00    +0.000 A 
ATOM     14  C   UNL     1      45.282   2.058   9.122  0.00  0.00    +0.000 A 
BRANCH   9  16
ATOM     15  C   UNL     1      46.850  -0.730   7.605  0.00  0.00    +0.000 C 
ATOM     16  C   UNL     1      46.530   0.410   7.812  0.00  0.00    +0.000 C 
ENDBRANCH   9  16
ENDBRANCH   8  13
ENDBRANCH   7   8
ENDBRANCH   1   7
BRANCH   4  17
ATOM     17  C   UNL     1      48.316   6.629  14.159  0.00  0.00    +0.000 C 
BRANCH  17  18
ATOM     18  N   UNL     1      48.101   6.798  15.579  0.00  0.00    +0.000 N 
ATOM     19  C   UNL     1      49.035   6.419  16.502  0.00  0.00    +0.000 C 
ATOM     20  O   UNL     1      50.095   5.891  16.173  0.00  0.00    +0.000 OA
ATOM     21  H   UNL     1      47.153   7.024  15.869  0.00  0.00    +0.000 HD
BRANCH  19  22
ATOM     22  C   UNL     1      48.746   6.733  17.905  0.00  0.00    +0.000 A 
ATOM     23  C   UNL     1      48.563   8.057  18.281  0.00  0.00    +0.000 A 
ATOM     24  S   UNL     1      48.247   8.263  19.943  0.00  0.00    +0.000 S 
ATOM     25  C   UNL     1      48.373   6.590  20.227  0.00  0.00    +0.000 A 
ATOM     26  N   UNL     1      48.248   6.085  21.483  0.00  0.00    +0.000 NA
ATOM     27  C   UNL     1      48.390   4.804  21.559  0.00  0.00    +0.000 A 
ATOM     28  N   UNL     1      48.628   3.981  20.490  0.00  0.00    +0.000 N 
ATOM     29  C   UNL     1      48.704   4.439  19.195  0.00  0.00    +0.000 A 
ATOM     30  O   UNL     1      48.811   3.667  18.249  0.00  0.00    +0.000 OA
ATOM     31  C   UNL     1      48.607   5.880  19.062  0.00  0.00    +0.000 A 
ATOM     32  H   UNL     1      48.694   2.980  20.612  0.00  0.00    +0.000 HD
ENDBRANCH  19  22
ENDBRANCH  17  18
ENDBRANCH   4  17
TORSDOF 7
ENDMDL
MODEL 2
REMARK VINA RESULT:    -7.941      1.299      1.934
REMARK INTER + INTRA:         -12.149
REMARK INTER:                 -10.986
REMARK INTRA:                  -1.163
REMARK UNBOUND:                -0.958
REMARK  Name = 
REMARK  7 active torsions:
REMARK  status: ('A' for Active; 'I' for Inactive)
REMARK    1  A    between atoms: C_2  and  C_3
REMARK    2  A    between atoms: C_7  and  C_8
REMARK    3  A    between atoms: C_8  and  O_9
REMARK    4  A    between atoms: O_9  and  C_10
REMARK    5  A    between atoms: C_13  and  C_14
REMARK    6  A    between atoms: C_14  and  N_15
REMARK    7  A    between atoms: C_16  and  C_18
REMARK                            x       y       z     vdW  Elec       q    Type
REMARK                         _______ _______ _______ _____ _____    ______ ____
ROOT
ATOM      1  C   UNL     1      45.384   4.057  12.372  0.00  0.00    +0.000 A 
ATOM      2  C   UNL     1      45.264   5.442  12.327  0.00  0.00    +0.000 A 
ATOM      3  C   UNL     1      46.183   6.234  13.016  0.00  0.00    +0.000 A 
ATOM      4  C   UNL     1      47.179   5.610  13.765  0.00  0.00    +0.000 A 
ATOM      5  N   UNL     1      47.297   4.261  13.841  0.00  0.00    +0.000 NA
ATOM      6  C   UNL     1      46.399   3.524  13.156  0.00  0.00    +0.000 A 
ENDROOT
BRANCH   1   7
ATOM      7  O   UNL     1      44.485   3.335  11.641  0.00  0.00    +0.000 OA
BRANCH   7   8
ATOM      8  C   UNL     1      44.072   3.971  10.426  0.00  0.00    +0.000 C 
BRANCH   8  13
ATOM      9  C   UNL     1      46.205   1.913   8.037  0.00  0.00    +0.000 A 
ATOM     10  C   UNL     1      46.820   2.907   7.275  0.00  0.00    +0.000 A 
ATOM     11  C   UNL     1      46.538   4.250   7.523  0.00  0.00    +0.000 A 
ATOM     12  C   UNL     1      45.639   4.602   8.529  0.00  0.00    +0.000 A 
ATOM     13  C   UNL     1      44.998   3.614   9.287  0.00  0.00    +0.000 A 
ATOM     14  C   UNL     1      45.298   2.265   9.041  0.00  0.00    +0.000 A 
BRANCH   9  16
ATOM     15  C   UNL     1      46.761  -0.621   7.606  0.00  0.00    +0.000 C 
ATOM     16  C   UNL     1      46.511   0.538   7.801  0.00  0.00    +0.000 C 
ENDBRANCH   9  16
ENDBRANCH   8  13
ENDBRANCH   7   8
ENDBRANCH   1   7
BRANCH   4  17
ATOM     17  C   UNL     1      48.196   6.415  14.531  0.00  0.00    +0.000 C 
BRANCH  17  18
ATOM     18  N   UNL     1      48.059   6.260  15.962  0.00  0.00    +0.000 N 
ATOM     19  C   UNL     1      49.126   5.960  16.762  0.00  0.00    +0.000 C 
ATOM     20  O   UNL     1      50.252   5.782  16.303  0.00  0.00    +0.000 OA
ATOM     21  H   UNL     1      47.111   6.186  16.320  0.00  0.00    +0.000 HD
BRANCH  19  22
ATOM     22  C   UNL     1      48.882   5.928  18.208  0.00  0.00    +0.000 A 
ATOM     23  C   UNL     1      49.186   4.777  18.923  0.00  0.00    +0.000 A 
ATOM     24  S   UNL     1      48.837   4.887  20.587  0.00  0.00    +0.000 S 
ATOM     25  C   UNL     1      48.238   6.470  20.408  0.00  0.00    +0.000 A 
ATOM     26  N   UNL     1      47.725   7.145  21.472  0.00  0.00    +0.000 NA
ATOM     27  C   UNL     1      47.283   8.325  21.191  0.00  0.00    +0.000 A 
ATOM     28  N   UNL     1      47.324   8.898  19.946  0.00  0.00    +0.000 N 
ATOM     29  C   UNL     1      47.885   8.276  18.855  0.00  0.00    +0.000 A 
ATOM     30  O   UNL     1      48.002   8.854  17.781  0.00  0.00    +0.000 OA
ATOM     31  C   UNL     1      48.345   6.924  19.105  0.00  0.00    +0.000 A 
ATOM     32  H   UNL     1      46.992   9.840  19.800  0.00  0.00    +0.000 HD
ENDBRANCH  19  22
ENDBRANCH  17  18
ENDBRANCH   4  17
TORSDOF 7
ENDMDL
MODEL 3
REMARK VINA RESULT:    -7.591      4.086      5.942
REMARK INTER + INTRA:         -11.655
REMARK INTER:                 -10.665
REMARK INTRA:                  -0.990
REMARK UNBOUND:                -0.958
REMARK  Name = 
REMARK  7 active torsions:
REMARK  status: ('A' for Active; 'I' for Inactive)
REMARK    1  A    between atoms: C_2  and  C_3
REMARK    2  A    between atoms: C_7  and  C_8
REMARK    3  A    between atoms: C_8  and  O_9
REMARK    4  A    between atoms: O_9  and  C_10
REMARK    5  A    between atoms: C_13  and  C_14
REMARK    6  A    between atoms: C_14  and  N_15
REMARK    7  A    between atoms: C_16  and  C_18
REMARK                            x       y       z     vdW  Elec       q    Type
REMARK                         _______ _______ _______ _____ _____    ______ ____
ROOT
ATOM      1  C   UNL     1      45.144   3.878  12.714  0.00  0.00    +0.000 A 
ATOM      2  C   UNL     1      44.781   5.214  12.843  0.00  0.00    +0.000 A 
ATOM      3  C   UNL     1      45.728   6.146  13.266  0.00  0.00    +0.000 A 
ATOM      4  C   UNL     1      47.010   5.702  13.586  0.00  0.00    +0.000 A 
ATOM      5  N   UNL     1      47.376   4.400  13.491  0.00  0.00    +0.000 NA
ATOM      6  C   UNL     1      46.439   3.526  13.070  0.00  0.00    +0.000 A 
ENDROOT
BRANCH   1   7
ATOM      7  O   UNL     1      44.188   3.020  12.251  0.00  0.00    +0.000 OA
BRANCH   7   8
ATOM      8  C   UNL     1      43.515   3.473  11.070  0.00  0.00    +0.000 C 
BRANCH   8  13
ATOM      9  C   UNL     1      45.835   2.103   8.382  0.00  0.00    +0.000 A 
ATOM     10  C   UNL     1      46.243   3.270   7.735  0.00  0.00    +0.000 A 
ATOM     11  C   UNL     1      45.761   4.506   8.159  0.00  0.00    +0.000 A 
ATOM     12  C   UNL     1      44.866   4.580   9.226  0.00  0.00    +0.000 A 
ATOM     13  C   UNL     1      44.430   3.415   9.871  0.00  0.00    +0.000 A 
ATOM     14  C   UNL     1      44.933   2.175   9.446  0.00  0.00    +0.000 A 
BRANCH   9  16
ATOM     15  C   UNL     1      46.777  -0.233   7.622  0.00  0.00    +0.000 C 
ATOM     16  C   UNL     1      46.348   0.836   7.965  0.00  0.00    +0.000 C 
ENDBRANCH   9  16
ENDBRANCH   8  13
ENDBRANCH   7   8
ENDBRANCH   1   7
BRANCH   4  17
ATOM     17  C   UNL     1      48.073   6.663  14.052  0.00  0.00    +0.000 C 
BRANCH  17  18
ATOM     18  N   UNL     1      47.829   8.015  13.602  0.00  0.00    +0.000 N 
ATOM     19  C   UNL     1      48.280   8.468  12.393  0.00  0.00    +0.000 C 
ATOM     20  O   UNL     1      48.938   7.755  11.638  0.00  0.00    +0.000 OA
ATOM     21  H   UNL     1      47.486   8.670  14.300  0.00  0.00    +0.000 HD
BRANCH  19  22
ATOM     22  C   UNL     1      47.886   9.826  12.004  0.00  0.00    +0.000 A 
ATOM     23  C   UNL     1      48.869  10.765  11.726  0.00  0.00    +0.000 A 
ATOM     24  S   UNL     1      48.256  12.297  11.300  0.00  0.00    +0.000 S 
ATOM     25  C   UNL     1      46.651  11.768  11.502  0.00  0.00    +0.000 A 
ATOM     26  N   UNL     1      45.609  12.624  11.331  0.00  0.00    +0.000 NA
ATOM     27  C   UNL     1      44.448  12.099  11.539  0.00  0.00    +0.000 A 
ATOM     28  N   UNL     1      44.235  10.789  11.885  0.00  0.00    +0.000 N 
ATOM     29  C   UNL     1      45.254   9.874  12.012  0.00  0.00    +0.000 A 
ATOM     30  O   UNL     1      45.025   8.688  12.219  0.00  0.00    +0.000 OA
ATOM     31  C   UNL     1      46.583  10.429  11.844  0.00  0.00    +0.000 A 
ATOM     32  H   UNL     1      43.298  10.431  12.000  0.00  0.00    +0.000 HD
ENDBRANCH  19  22
ENDBRANCH  17  18
ENDBRANCH   4  17
TORSDOF 7
ENDMDL
MODEL 4
REMARK VINA RESULT:    -7.417      1.969      3.244
REMARK INTER + INTRA:         -11.410
REMARK INTER:                 -10.696
REMARK INTRA:                  -0.715
REMARK UNBOUND:                -0.958
REMARK  Name = 
REMARK  7 active torsions:
REMARK  status: ('A' for Active; 'I' for Inactive)
REMARK    1  A    between atoms: C_2  and  C_3
REMARK    2  A    between atoms: C_7  and  C_8
REMARK    3  A    between atoms: C_8  and  O_9
REMARK    4  A    between atoms: O_9  and  C_10
REMARK    5  A    between atoms: C_13  and  C_14
REMARK    6  A    between atoms: C_14  and  N_15
REMARK    7  A    between atoms: C_16  and  C_18
REMARK                            x       y       z     vdW  Elec       q    Type
REMARK                         _______ _______ _______ _____ _____    ______ ____
ROOT
ATOM      1  C   UNL     1      46.185   5.667  12.193  0.00  0.00    +0.000 A 
ATOM      2  C   UNL     1      47.319   6.228  12.771  0.00  0.00    +0.000 A 
ATOM      3  C   UNL     1      47.743   5.783  14.023  0.00  0.00    +0.000 A 
ATOM      4  C   UNL     1      46.994   4.808  14.679  0.00  0.00    +0.000 A 
ATOM      5  N   UNL     1      45.873   4.267  14.143  0.00  0.00    +0.000 NA
ATOM      6  C   UNL     1      45.493   4.713  12.928  0.00  0.00    +0.000 A 
ENDROOT
BRANCH   1   7
ATOM      7  O   UNL     1      45.843   6.109  10.948  0.00  0.00    +0.000 OA
BRANCH   7   8
ATOM      8  C   UNL     1      44.624   5.552  10.442  0.00  0.00    +0.000 C 
BRANCH   8  13
ATOM      9  C   UNL     1      45.791   3.096   7.779  0.00  0.00    +0.000 A 
ATOM     10  C   UNL     1      45.268   1.892   8.252  0.00  0.00    +0.000 A 
ATOM     11  C   UNL     1      44.544   1.867   9.442  0.00  0.00    +0.000 A 
ATOM     12  C   UNL     1      44.344   3.043  10.165  0.00  0.00    +0.000 A 
ATOM     13  C   UNL     1      44.883   4.255   9.714  0.00  0.00    +0.000 A 
ATOM     14  C   UNL     1      45.598   4.274   8.506  0.00  0.00    +0.000 A 
BRANCH   9  16
ATOM     15  C   UNL     1      47.114   3.149   5.506  0.00  0.00    +0.000 C 
ATOM     16  C   UNL     1      46.513   3.128   6.546  0.00  0.00    +0.000 C 
ENDBRANCH   9  16
ENDBRANCH   8  13
ENDBRANCH   7   8
ENDBRANCH   1   7
BRANCH   4  17
ATOM     17  C   UNL     1      47.405   4.292  16.034  0.00  0.00    +0.000 C 
BRANCH  17  18
ATOM     18  N   UNL     1      47.290   5.298  17.066  0.00  0.00    +0.000 N 
ATOM     19  C   UNL     1      48.387   5.917  17.597  0.00  0.00    +0.000 C 
ATOM     20  O   UNL     1      49.529   5.632  17.243  0.00  0.00    +0.000 OA
ATOM     21  H   UNL     1      46.383   5.382  17.517  0.00  0.00    +0.000 HD
BRANCH  19  22
ATOM     22  C   UNL     1      48.138   6.991  18.565  0.00  0.00    +0.000 A 
ATOM     23  C   UNL     1      48.005   6.675  19.911  0.00  0.00    +0.000 A 
ATOM     24  S   UNL     1      47.709   8.024  20.908  0.00  0.00    +0.000 S 
ATOM     25  C   UNL     1      47.718   9.079  19.572  0.00  0.00    +0.000 A 
ATOM     26  N   UNL     1      47.475  10.407  19.732  0.00  0.00    +0.000 NA
ATOM     27  C   UNL     1      47.487  11.086  18.634  0.00  0.00    +0.000 A 
ATOM     28  N   UNL     1      47.738  10.560  17.393  0.00  0.00    +0.000 N 
ATOM     29  C   UNL     1      48.045   9.234  17.191  0.00  0.00    +0.000 A 
ATOM     30  O   UNL     1      48.369   8.814  16.086  0.00  0.00    +0.000 OA
ATOM     31  C   UNL     1      47.989   8.416  18.387  0.00  0.00    +0.000 A 
ATOM     32  H   UNL     1      47.767  11.153  16.576  0.00  0.00    +0.000 HD
ENDBRANCH  19  22
ENDBRANCH  17  18
ENDBRANCH   4  17
TORSDOF 7
ENDMDL
MODEL 5
REMARK VINA RESULT:    -7.295      3.838      8.424
REMARK INTER + INTRA:         -11.238
REMARK INTER:                 -10.026
REMARK INTRA:                  -1.212
REMARK UNBOUND:                -0.958
REMARK  Name = 
REMARK  7 active torsions:
REMARK  status: ('A' for Active; 'I' for Inactive)
REMARK    1  A    between atoms: C_2  and  C_3
REMARK    2  A    between atoms: C_7  and  C_8
REMARK    3  A    between atoms: C_8  and  O_9
REMARK    4  A    between atoms: O_9  and  C_10
REMARK    5  A    between atoms: C_13  and  C_14
REMARK    6  A    between atoms: C_14  and  N_15
REMARK    7  A    between atoms: C_16  and  C_18
REMARK                            x       y       z     vdW  Elec       q    Type
REMARK                         _______ _______ _______ _____ _____    ______ ____
ROOT
ATOM      1  C   UNL     1      49.482   7.506  16.324  0.00  0.00    +0.000 A 
ATOM      2  C   UNL     1      48.583   8.553  16.149  0.00  0.00    +0.000 A 
ATOM      3  C   UNL     1      48.110   8.846  14.871  0.00  0.00    +0.000 A 
ATOM      4  C   UNL     1      48.582   8.101  13.792  0.00  0.00    +0.000 A 
ATOM      5  N   UNL     1      49.477   7.093  13.939  0.00  0.00    +0.000 NA
ATOM      6  C   UNL     1      49.908   6.828  15.189  0.00  0.00    +0.000 A 
ENDROOT
BRANCH   1   7
ATOM      7  O   UNL     1      49.875   7.235  17.603  0.00  0.00    +0.000 OA
BRANCH   7   8
ATOM      8  C   UNL     1      48.892   6.548  18.386  0.00  0.00    +0.000 C 
BRANCH   8  13
ATOM      9  C   UNL     1      49.696   2.961  17.402  0.00  0.00    +0.000 A 
ATOM     10  C   UNL     1      48.472   2.522  16.897  0.00  0.00    +0.000 A 
ATOM     11  C   UNL     1      47.376   3.382  16.881  0.00  0.00    +0.000 A 
ATOM     12  C   UNL     1      47.498   4.681  17.375  0.00  0.00    +0.000 A 
ATOM     13  C   UNL     1      48.715   5.127  17.907  0.00  0.00    +0.000 A 
ATOM     14  C   UNL     1      49.818   4.259  17.904  0.00  0.00    +0.000 A 
BRANCH   9  16
ATOM     15  C   UNL     1      51.779   1.354  17.399  0.00  0.00    +0.000 C 
ATOM     16  C   UNL     1      50.828   2.088  17.396  0.00  0.00    +0.000 C 
ENDBRANCH   9  16
ENDBRANCH   8  13
ENDBRANCH   7   8
ENDBRANCH   1   7
BRANCH   4  17
ATOM     17  C   UNL     1      48.107   8.375  12.389  0.00  0.00    +0.000 C 
BRANCH  17  18
ATOM     18  N   UNL     1      47.505   7.214  11.773  0.00  0.00    +0.000 N 
ATOM     19  C   UNL     1      46.165   6.960  11.865  0.00  0.00    +0.000 C 
ATOM     20  O   UNL     1      45.408   7.691  12.500  0.00  0.00    +0.000 OA
ATOM     21  H   UNL     1      48.143   6.496  11.440  0.00  0.00    +0.000 HD
BRANCH  19  22
ATOM     22  C   UNL     1      45.656   5.807  11.115  0.00  0.00    +0.000 A 
ATOM     23  C   UNL     1      45.869   5.741   9.744  0.00  0.00    +0.000 A 
ATOM     24  S   UNL     1      45.210   4.351   9.012  0.00  0.00    +0.000 S 
ATOM     25  C   UNL     1      44.589   3.800  10.497  0.00  0.00    +0.000 A 
ATOM     26  N   UNL     1      43.858   2.655  10.565  0.00  0.00    +0.000 NA
ATOM     27  C   UNL     1      43.428   2.367  11.748  0.00  0.00    +0.000 A 
ATOM     28  N   UNL     1      43.677   3.111  12.872  0.00  0.00    +0.000 N 
ATOM     29  C   UNL     1      44.458   4.244  12.861  0.00  0.00    +0.000 A 
ATOM     30  O   UNL     1      44.750   4.828  13.898  0.00  0.00    +0.000 OA
ATOM     31  C   UNL     1      44.919   4.642  11.545  0.00  0.00    +0.000 A 
ATOM     32  H   UNL     1      43.340   2.812  13.775  0.00  0.00    +0.000 HD
ENDBRANCH  19  22
ENDBRANCH  17  18
ENDBRANCH   4  17
TORSDOF 7
ENDMDL
MODEL 6
REMARK VINA RESULT:    -6.891      3.390      8.989
REMARK INTER + INTRA:         -10.670
REMARK INTER:                  -9.840
REMARK INTRA:                  -0.830
REMARK UNBOUND:                -0.958
REMARK  Name = 
REMARK  7 active torsions:
REMARK  status: ('A' for Active; 'I' for Inactive)
REMARK    1  A    between atoms: C_2  and  C_3
REMARK    2  A    between atoms: C_7  and  C_8
REMARK    3  A    between atoms: C_8  and  O_9
REMARK    4  A    between atoms: O_9  and  C_10
REMARK    5  A    between atoms: C_13  and  C_14
REMARK    6  A    between atoms: C_14  and  N_15
REMARK    7  A    between atoms: C_16  and  C_18
REMARK                            x       y       z     vdW  Elec       q    Type
REMARK                         _______ _______ _______ _____ _____    ______ ____
ROOT
ATOM      1  C   UNL     1      49.592   7.633  16.426  0.00  0.00    +0.000 A 
ATOM      2  C   UNL     1      48.487   8.447  16.205  0.00  0.00    +0.000 A 
ATOM      3  C   UNL     1      47.881   8.457  14.949  0.00  0.00    +0.000 A 
ATOM      4  C   UNL     1      48.427   7.673  13.933  0.00  0.00    +0.000 A 
ATOM      5  N   UNL     1      49.519   6.893  14.122  0.00  0.00    +0.000 NA
ATOM      6  C   UNL     1      50.076   6.899  15.351  0.00  0.00    +0.000 A 
ENDROOT
BRANCH   1   7
ATOM      7  O   UNL     1      50.115   7.629  17.687  0.00  0.00    +0.000 OA
BRANCH   7   8
ATOM      8  C   UNL     1      49.276   7.007  18.668  0.00  0.00    +0.000 C 
BRANCH   8  13
ATOM      9  C   UNL     1      49.607   3.356  17.648  0.00  0.00    +0.000 A 
ATOM     10  C   UNL     1      48.287   3.023  17.345  0.00  0.00    +0.000 A 
ATOM     11  C   UNL     1      47.279   3.977  17.479  0.00  0.00    +0.000 A 
ATOM     12  C   UNL     1      47.588   5.263  17.921  0.00  0.00    +0.000 A 
ATOM     13  C   UNL     1      48.906   5.604  18.252  0.00  0.00    +0.000 A 
ATOM     14  C   UNL     1      49.916   4.641  18.099  0.00  0.00    +0.000 A 
BRANCH   9  16
ATOM     15  C   UNL     1      51.522   1.577  17.348  0.00  0.00    +0.000 C 
ATOM     16  C   UNL     1      50.645   2.386  17.488  0.00  0.00    +0.000 C 
ENDBRANCH   9  16
ENDBRANCH   8  13
ENDBRANCH   7   8
ENDBRANCH   1   7
BRANCH   4  17
ATOM     17  C   UNL     1      47.816   7.647  12.557  0.00  0.00    +0.000 C 
BRANCH  17  18
ATOM     18  N   UNL     1      47.025   6.459  12.326  0.00  0.00    +0.000 N 
ATOM     19  C   UNL     1      45.693   6.525  12.025  0.00  0.00    +0.000 C 
ATOM     20  O   UNL     1      45.094   7.596  11.960  0.00  0.00    +0.000 OA
ATOM     21  H   UNL     1      47.449   5.574  12.591  0.00  0.00    +0.000 HD
BRANCH  19  22
ATOM     22  C   UNL     1      45.021   5.259  11.713  0.00  0.00    +0.000 A 
ATOM     23  C   UNL     1      44.268   4.630  12.696  0.00  0.00    +0.000 A 
ATOM     24  S   UNL     1      43.559   3.166  12.189  0.00  0.00    +0.000 S 
ATOM     25  C   UNL     1      44.258   3.304  10.643  0.00  0.00    +0.000 A 
ATOM     26  N   UNL     1      44.079   2.332   9.708  0.00  0.00    +0.000 NA
ATOM     27  C   UNL     1      44.684   2.552   8.589  0.00  0.00    +0.000 A 
ATOM     28  N   UNL     1      45.437   3.665   8.314  0.00  0.00    +0.000 N 
ATOM     29  C   UNL     1      45.597   4.698   9.207  0.00  0.00    +0.000 A 
ATOM     30  O   UNL     1      46.188   5.726   8.895  0.00  0.00    +0.000 OA
ATOM     31  C   UNL     1      44.984   4.474  10.502  0.00  0.00    +0.000 A 
ATOM     32  H   UNL     1      45.856   3.793   7.405  0.00  0.00    +0.000 HD
ENDBRANCH  19  22
ENDBRANCH  17  18
ENDBRANCH   4  17
TORSDOF 7
ENDMDL
MODEL 7
REMARK VINA RESULT:    -6.845      2.105      2.883
REMARK INTER + INTRA:         -10.605
REMARK INTER:                  -9.400
REMARK INTRA:                  -1.205
REMARK UNBOUND:                -0.958
REMARK  Name = 
REMARK  7 active torsions:
REMARK  status: ('A' for Active; 'I' for Inactive)
REMARK    1  A    between atoms: C_2  and  C_3
REMARK    2  A    between atoms: C_7  and  C_8
REMARK    3  A    between atoms: C_8  and  O_9
REMARK    4  A    between atoms: O_9  and  C_10
REMARK    5  A    between atoms: C_13  and  C_14
REMARK    6  A    between atoms: C_14  and  N_15
REMARK    7  A    between atoms: C_16  and  C_18
REMARK                            x       y       z     vdW  Elec       q    Type
REMARK                         _______ _______ _______ _____ _____    ______ ____
ROOT
ATOM      1  C   UNL     1      46.072   7.431  11.776  0.00  0.00    +0.000 A 
ATOM      2  C   UNL     1      45.891   8.543  12.593  0.00  0.00    +0.000 A 
ATOM      3  C   UNL     1      46.927   8.956  13.429  0.00  0.00    +0.000 A 
ATOM      4  C   UNL     1      48.109   8.219  13.450  0.00  0.00    +0.000 A 
ATOM      5  N   UNL     1      48.295   7.118  12.680  0.00  0.00    +0.000 NA
ATOM      6  C   UNL     1      47.277   6.749  11.876  0.00  0.00    +0.000 A 
ENDROOT
BRANCH   1   7
ATOM      7  O   UNL     1      45.040   7.100  10.946  0.00  0.00    +0.000 OA
BRANCH   7   8
ATOM      8  C   UNL     1      44.163   6.097  11.471  0.00  0.00    +0.000 C 
BRANCH   8  13
ATOM      9  C   UNL     1      45.245   3.543   8.865  0.00  0.00    +0.000 A 
ATOM     10  C   UNL     1      44.660   2.373   9.352  0.00  0.00    +0.000 A 
ATOM     11  C   UNL     1      43.921   2.403  10.533  0.00  0.00    +0.000 A 
ATOM     12  C   UNL     1      43.769   3.599  11.233  0.00  0.00    +0.000 A 
ATOM     13  C   UNL     1      44.369   4.777  10.768  0.00  0.00    +0.000 A 
ATOM     14  C   UNL     1      45.099   4.740   9.570  0.00  0.00    +0.000 A 
BRANCH   9  16
ATOM     15  C   UNL     1      46.597   3.505   6.609  0.00  0.00    +0.000 C 
ATOM     16  C   UNL     1      45.983   3.519   7.641  0.00  0.00    +0.000 C 
ENDBRANCH   9  16
ENDBRANCH   8  13
ENDBRANCH   7   8
ENDBRANCH   1   7
BRANCH   4  17
ATOM     17  C   UNL     1      49.261   8.618  14.336  0.00  0.00    +0.000 C 
BRANCH  17  18
ATOM     18  N   UNL     1      49.340   7.813  15.534  0.00  0.00    +0.000 N 
ATOM     19  C   UNL     1      48.696   8.167  16.687  0.00  0.00    +0.000 C 
ATOM     20  O   UNL     1      48.036   9.201  16.771  0.00  0.00    +0.000 OA
ATOM     21  H   UNL     1      50.050   7.086  15.545  0.00  0.00    +0.000 HD
BRANCH  19  22
ATOM     22  C   UNL     1      48.769   7.221  17.805  0.00  0.00    +0.000 A 
ATOM     23  C   UNL     1      49.054   7.695  19.078  0.00  0.00    +0.000 A 
ATOM     24  S   UNL     1      49.116   6.477  20.268  0.00  0.00    +0.000 S 
ATOM     25  C   UNL     1      48.794   5.265  19.117  0.00  0.00    +0.000 A 
ATOM     26  N   UNL     1      48.755   3.954  19.478  0.00  0.00    +0.000 NA
ATOM     27  C   UNL     1      48.526   3.140  18.503  0.00  0.00    +0.000 A 
ATOM     28  N   UNL     1      48.314   3.520  17.203  0.00  0.00    +0.000 N 
ATOM     29  C   UNL     1      48.287   4.835  16.803  0.00  0.00    +0.000 A 
ATOM     30  O   UNL     1      47.991   5.148  15.655  0.00  0.00    +0.000 OA
ATOM     31  C   UNL     1      48.596   5.788  17.851  0.00  0.00    +0.000 A 
ATOM     32  H   UNL     1      48.105   2.833  16.492  0.00  0.00    +0.000 HD
ENDBRANCH  19  22
ENDBRANCH  17  18
ENDBRANCH   4  17
TORSDOF 7
ENDMDL
MODEL 8
REMARK VINA RESULT:    -6.741      3.965      9.029
REMARK INTER + INTRA:         -10.457
REMARK INTER:                  -9.208
REMARK INTRA:                  -1.249
REMARK UNBOUND:                -0.958
REMARK  Name = 
REMARK  7 active torsions:
REMARK  status: ('A' for Active; 'I' for Inactive)
REMARK    1  A    between atoms: C_2  and  C_3
REMARK    2  A    between atoms: C_7  and  C_8
REMARK    3  A    between atoms: C_8  and  O_9
REMARK    4  A    between atoms: O_9  and  C_10
REMARK    5  A    between atoms: C_13  and  C_14
REMARK    6  A    between atoms: C_14  and  N_15
REMARK    7  A    between atoms: C_16  and  C_18
REMARK                            x       y       z     vdW  Elec       q    Type
REMARK                         _______ _______ _______ _____ _____    ______ ____
ROOT
ATOM      1  C   UNL     1      51.095   3.916  18.403  0.00  0.00    +0.000 A 
ATOM      2  C   UNL     1      50.089   4.733  18.907  0.00  0.00    +0.000 A 
ATOM      3  C   UNL     1      48.785   4.586  18.436  0.00  0.00    +0.000 A 
ATOM      4  C   UNL     1      48.531   3.643  17.442  0.00  0.00    +0.000 A 
ATOM      5  N   UNL     1      49.503   2.855  16.920  0.00  0.00    +0.000 NA
ATOM      6  C   UNL     1      50.752   3.015  17.403  0.00  0.00    +0.000 A 
ENDROOT
BRANCH   1   7
ATOM      7  O   UNL     1      52.343   4.073  18.934  0.00  0.00    +0.000 OA
BRANCH   7   8
ATOM      8  C   UNL     1      52.794   5.432  18.979  0.00  0.00    +0.000 C 
BRANCH   8  13
ATOM      9  C   UNL     1      53.236   7.111  15.592  0.00  0.00    +0.000 A 
ATOM     10  C   UNL     1      54.423   6.534  15.141  0.00  0.00    +0.000 A 
ATOM     11  C   UNL     1      55.094   5.606  15.935  0.00  0.00    +0.000 A 
ATOM     12  C   UNL     1      54.583   5.256  17.184  0.00  0.00    +0.000 A 
ATOM     13  C   UNL     1      53.403   5.844  17.661  0.00  0.00    +0.000 A 
ATOM     14  C   UNL     1      52.727   6.767  16.847  0.00  0.00    +0.000 A 
BRANCH   9  16
ATOM     15  C   UNL     1      51.941   8.833  14.083  0.00  0.00    +0.000 C 
ATOM     16  C   UNL     1      52.534   8.045  14.768  0.00  0.00    +0.000 C 
ENDBRANCH   9  16
ENDBRANCH   8  13
ENDBRANCH   7   8
ENDBRANCH   1   7
BRANCH   4  17
ATOM     17  C   UNL     1      47.142   3.443  16.894  0.00  0.00    +0.000 C 
BRANCH  17  18
ATOM     18  N   UNL     1      46.793   4.433  15.901  0.00  0.00    +0.000 N 
ATOM     19  C   UNL     1      46.912   4.186  14.561  0.00  0.00    +0.000 C 
ATOM     20  O   UNL     1      47.348   3.119  14.134  0.00  0.00    +0.000 OA
ATOM     21  H   UNL     1      46.645   5.381  16.237  0.00  0.00    +0.000 HD
BRANCH  19  22
ATOM     22  C   UNL     1      46.432   5.229  13.649  0.00  0.00    +0.000 A 
ATOM     23  C   UNL     1      47.223   6.348  13.420  0.00  0.00    +0.000 A 
ATOM     24  S   UNL     1      46.527   7.475  12.348  0.00  0.00    +0.000 S 
ATOM     25  C   UNL     1      45.127   6.522  12.174  0.00  0.00    +0.000 A 
ATOM     26  N   UNL     1      44.088   6.945  11.405  0.00  0.00    +0.000 NA
ATOM     27  C   UNL     1      43.081   6.138  11.381  0.00  0.00    +0.000 A 
ATOM     28  N   UNL     1      43.027   4.937  12.040  0.00  0.00    +0.000 N 
ATOM     29  C   UNL     1      44.075   4.443  12.781  0.00  0.00    +0.000 A 
ATOM     30  O   UNL     1      44.037   3.320  13.272  0.00  0.00    +0.000 OA
ATOM     31  C   UNL     1      45.210   5.339  12.887  0.00  0.00    +0.000 A 
ATOM     32  H   UNL     1      42.221   4.335  11.951  0.00  0.00    +0.000 HD
ENDBRANCH  19  22
ENDBRANCH  17  18
ENDBRANCH   4  17
TORSDOF 7
ENDMDL
MODEL 9
REMARK VINA RESULT:    -6.596      3.627     10.088
REMARK INTER + INTRA:         -10.253
REMARK INTER:                  -9.298
REMARK INTRA:                  -0.956
REMARK UNBOUND:                -0.958
REMARK  Name = 
REMARK  7 active torsions:
REMARK  status: ('A' for Active; 'I' for Inactive)
REMARK    1  A    between atoms: C_2  and  C_3
REMARK    2  A    between atoms: C_7  and  C_8
REMARK    3  A    between atoms: C_8  and  O_9
REMARK    4  A    between atoms: O_9  and  C_10
REMARK    5  A    between atoms: C_13  and  C_14
REMARK    6  A    between atoms: C_14  and  N_15
REMARK    7  A    between atoms: C_16  and  C_18
REMARK                            x       y       z     vdW  Elec       q    Type
REMARK                         _______ _______ _______ _____ _____    ______ ____
ROOT
ATOM      1  C   UNL     1      49.153   6.205  19.075  0.00  0.00    +0.000 A 
ATOM      2  C   UNL     1      47.804   5.864  19.069  0.00  0.00    +0.000 A 
ATOM      3  C   UNL     1      47.303   5.065  18.042  0.00  0.00    +0.000 A 
ATOM      4  C   UNL     1      48.164   4.660  17.023  0.00  0.00    +0.000 A 
ATOM      5  N   UNL     1      49.475   5.003  16.998  0.00  0.00    +0.000 NA
ATOM      6  C   UNL     1      49.931   5.769  18.011  0.00  0.00    +0.000 A 
ENDROOT
BRANCH   1   7
ATOM      7  O   UNL     1      49.597   6.950  20.129  0.00  0.00    +0.000 OA
BRANCH   7   8
ATOM      8  C   UNL     1      48.555   7.450  20.975  0.00  0.00    +0.000 C 
BRANCH   8  13
ATOM      9  C   UNL     1      46.417  10.541  20.376  0.00  0.00    +0.000 A 
ATOM     10  C   UNL     1      47.305  11.376  19.698  0.00  0.00    +0.000 A 
ATOM     11  C   UNL     1      48.606  10.947  19.440  0.00  0.00    +0.000 A 
ATOM     12  C   UNL     1      49.023   9.685  19.863  0.00  0.00    +0.000 A 
ATOM     13  C   UNL     1      48.149   8.845  20.565  0.00  0.00    +0.000 A 
ATOM     14  C   UNL     1      46.836   9.280  20.807  0.00  0.00    +0.000 A 
BRANCH   9  16
ATOM     15  C   UNL     1      43.945  11.323  20.821  0.00  0.00    +0.000 C 
ATOM     16  C   UNL     1      45.075  10.970  20.620  0.00  0.00    +0.000 C 
ENDBRANCH   9  16
ENDBRANCH   8  13
ENDBRANCH   7   8
ENDBRANCH   1   7
BRANCH   4  17
ATOM     17  C   UNL     1      47.676   3.799  15.888  0.00  0.00    +0.000 C 
BRANCH  17  18
ATOM     18  N   UNL     1      46.748   4.496  15.026  0.00  0.00    +0.000 N 
ATOM     19  C   UNL     1      47.173   5.365  14.059  0.00  0.00    +0.000 C 
ATOM     20  O   UNL     1      48.364   5.617  13.891  0.00  0.00    +0.000 OA
ATOM     21  H   UNL     1      45.769   4.467  15.297  0.00  0.00    +0.000 HD
BRANCH  19  22
ATOM     22  C   UNL     1      46.145   5.935  13.181  0.00  0.00    +0.000 A 
ATOM     23  C   UNL     1      46.170   7.294  12.899  0.00  0.00    +0.000 A 
ATOM     24  S   UNL     1      44.907   7.807  11.877  0.00  0.00    +0.000 S 
ATOM     25  C   UNL     1      44.262   6.235  11.798  0.00  0.00    +0.000 A 
ATOM     26  N   UNL     1      43.120   5.984  11.102  0.00  0.00    +0.000 NA
ATOM     27  C   UNL     1      42.729   4.755  11.147  0.00  0.00    +0.000 A 
ATOM     28  N   UNL     1      43.386   3.750  11.809  0.00  0.00    +0.000 N 
ATOM     29  C   UNL     1      44.572   3.945  12.476  0.00  0.00    +0.000 A 
ATOM     30  O   UNL     1      45.190   3.008  12.969  0.00  0.00    +0.000 OA
ATOM     31  C   UNL     1      45.026   5.322  12.505  0.00  0.00    +0.000 A 
ATOM     32  H   UNL     1      43.045   2.800  11.775  0.00  0.00    +0.000 HD
ENDBRANCH  19  22
ENDBRANCH  17  18
ENDBRANCH   4  17
TORSDOF 7
ENDMDL
