MODEL 1
REMARK VINA RESULT:    -7.791      0.000      0.000
REMARK INTER + INTRA:         -11.967
REMARK INTER:                 -10.524
REMARK INTRA:                  -1.443
REMARK UNBOUND:                -1.443
REMARK  Name = 
REMARK  7 active torsions:
REMARK  status: ('A' for Active; 'I' for Inactive)
REMARK    1  A    between atoms: C_1  and  C_2
REMARK    2  A    between atoms: C_2  and  N_3
REMARK    3  A    between atoms: N_3  and  C_4
REMARK    4  A    between atoms: C_4  and  C_5
REMARK    5  A    between atoms: C_8  and  C_9
REMARK    6  A    between atoms: C_9  and  C_10
REMARK    7  A    between atoms: C_18  and  C_20
REMARK                            x       y       z     vdW  Elec       q    Type
REMARK                         _______ _______ _______ _____ _____    ______ ____
ROOT
ATOM      1  N   UNL     1      46.364   7.125  12.224  0.00  0.00    +0.000 N 
ATOM      2  C   UNL     1      45.098   6.791  11.712  0.00  0.00    +0.000 C 
ATOM      3  O   UNL     1      44.305   7.655  11.343  0.00  0.00    +0.000 OA
ENDROOT
BRANCH   2   4
ATOM      4  C   UNL     1      44.692   5.385  11.661  0.00  0.00    +0.000 A 
ATOM      5  C   UNL     1      43.968   4.739  12.650  0.00  0.00    +0.000 A 
ATOM      6  S   UNL     1      43.548   3.134  12.248  0.00  0.00    +0.000 S 
ATOM      7  C   UNL     1      44.215   3.300  10.693  0.00  0.00    +0.000 A 
ATOM      8  N   UNL     1      44.100   2.310   9.772  0.00  0.00    +0.000 NA
ATOM      9  C   UNL     1      44.600   2.593   8.622  0.00  0.00    +0.000 A 
ATOM     10  N   UNL     1      45.237   3.771   8.310  0.00  0.00    +0.000 N 
ATOM     11  C   UNL     1      45.494   4.751   9.245  0.00  0.00    +0.000 A 
ATOM     12  O   UNL     1      46.266   5.670   9.008  0.00  0.00    +0.000 OA
ATOM     13  C   UNL     1      44.834   4.521  10.521  0.00  0.00    +0.000 A 
ATOM     14  H   UNL     1      45.670   3.901   7.409  0.00  0.00    +0.000 HD
ENDBRANCH   2   4
BRANCH   1  16
ATOM     15  C   UNL     1      48.052   8.948  11.930  0.00  0.00    +0.000 C 
ATOM     16  C   UNL     1      46.638   8.565  12.360  0.00  0.00    +0.000 C 
ENDBRANCH   1  16
BRANCH   1  17
ATOM     17  C   UNL     1      47.386   6.119  12.576  0.00  0.00    +0.000 C 
BRANCH  17  18
ATOM     18  C   UNL     1      47.534   5.814  14.041  0.00  0.00    +0.000 A 
ATOM     19  C   UNL     1      48.376   6.592  14.849  0.00  0.00    +0.000 A 
ATOM     20  C   UNL     1      48.744   6.134  16.111  0.00  0.00    +0.000 A 
ATOM     21  C   UNL     1      48.240   4.919  16.596  0.00  0.00    +0.000 A 
ATOM     22  C   UNL     1      47.273   4.233  15.849  0.00  0.00    +0.000 A 
ATOM     23  C   UNL     1      46.928   4.675  14.575  0.00  0.00    +0.000 A 
BRANCH  21  24
ATOM     24  C   UNL     1      48.804   4.288  17.846  0.00  0.00    +0.000 C 
BRANCH  24  25
ATOM     25  C   UNL     1      50.104   3.542  17.701  0.00  0.00    +0.000 A 
ATOM     26  C   UNL     1      50.117   2.206  17.307  0.00  0.00    +0.000 A 
ATOM     27  C   UNL     1      51.317   1.503  17.343  0.00  0.00    +0.000 A 
ATOM     28  C   UNL     1      52.473   2.152  17.757  0.00  0.00    +0.000 A 
ATOM     29  C   UNL     1      52.384   3.488  18.106  0.00  0.00    +0.000 A 
ATOM     30  N   UNL     1      51.231   4.191  18.091  0.00  0.00    +0.000 NA
ENDBRANCH  24  25
ENDBRANCH  21  24
ENDBRANCH  17  18
ENDBRANCH   1  17
TORSDOF 6
ENDMDL
MODEL 2
REMARK VINA RESULT:    -7.050      1.647      2.488
REMARK INTER + INTRA:         -10.965
REMARK INTER:                  -9.765
REMARK INTRA:                  -1.200
REMARK UNBOUND:                -1.443
REMARK  Name = 
REMARK  7 active torsions:
REMARK  status: ('A' for Active; 'I' for Inactive)
REMARK    1  A    between atoms: C_1  and  C_2
REMARK    2  A    between atoms: C_2  and  N_3
REMARK    3  A    between atoms: N_3  and  C_4
REMARK    4  A    between atoms: C_4  and  C_5
REMARK    5  A    between atoms: C_8  and  C_9
REMARK    6  A    between atoms: C_9  and  C_10
REMARK    7  A    between atoms: C_18  and  C_20
REMARK                            x       y       z     vdW  Elec       q    Type
REMARK                         _______ _______ _______ _____ _____    ______ ____
ROOT
ATOM      1  N   UNL     1      46.264   6.953  12.401  0.00  0.00    +0.000 N 
ATOM      2  C   UNL     1      45.033   6.615  11.811  0.00  0.00    +0.000 C 
ATOM      3  O   UNL     1      44.238   7.477  11.444  0.00  0.00    +0.000 OA
ENDROOT
BRANCH   2   4
ATOM      4  C   UNL     1      44.665   5.204  11.676  0.00  0.00    +0.000 A 
ATOM      5  C   UNL     1      43.963   4.479  12.626  0.00  0.00    +0.000 A 
ATOM      6  S   UNL     1      43.584   2.892  12.127  0.00  0.00    +0.000 S 
ATOM      7  C   UNL     1      44.238   3.170  10.583  0.00  0.00    +0.000 A 
ATOM      8  N   UNL     1      44.144   2.237   9.603  0.00  0.00    +0.000 NA
ATOM      9  C   UNL     1      44.631   2.603   8.471  0.00  0.00    +0.000 A 
ATOM     10  N   UNL     1      45.234   3.814   8.230  0.00  0.00    +0.000 N 
ATOM     11  C   UNL     1      45.470   4.742   9.222  0.00  0.00    +0.000 A 
ATOM     12  O   UNL     1      46.216   5.695   9.039  0.00  0.00    +0.000 OA
ATOM     13  C   UNL     1      44.824   4.416  10.484  0.00  0.00    +0.000 A 
ATOM     14  H   UNL     1      45.659   4.012   7.337  0.00  0.00    +0.000 HD
ENDBRANCH   2   4
BRANCH   1  16
ATOM     15  C   UNL     1      47.762   8.901  11.933  0.00  0.00    +0.000 C 
ATOM     16  C   UNL     1      46.496   8.390  12.617  0.00  0.00    +0.000 C 
ENDBRANCH   1  16
BRANCH   1  17
ATOM     17  C   UNL     1      47.292   5.953  12.756  0.00  0.00    +0.000 C 
BRANCH  17  18
ATOM     18  C   UNL     1      47.521   5.737  14.226  0.00  0.00    +0.000 A 
ATOM     19  C   UNL     1      48.417   6.552  14.934  0.00  0.00    +0.000 A 
ATOM     20  C   UNL     1      48.852   6.169  16.200  0.00  0.00    +0.000 A 
ATOM     21  C   UNL     1      48.365   4.993  16.787  0.00  0.00    +0.000 A 
ATOM     22  C   UNL     1      47.350   4.275  16.141  0.00  0.00    +0.000 A 
ATOM     23  C   UNL     1      46.937   4.642  14.864  0.00  0.00    +0.000 A 
BRANCH  21  24
ATOM     24  C   UNL     1      48.995   4.433  18.040  0.00  0.00    +0.000 C 
BRANCH  24  25
ATOM     25  C   UNL     1      48.585   5.063  19.345  0.00  0.00    +0.000 A 
ATOM     26  C   UNL     1      48.980   4.505  20.559  0.00  0.00    +0.000 A 
ATOM     27  C   UNL     1      48.448   5.013  21.740  0.00  0.00    +0.000 A 
ATOM     28  C   UNL     1      47.549   6.070  21.681  0.00  0.00    +0.000 A 
ATOM     29  C   UNL     1      47.227   6.587  20.439  0.00  0.00    +0.000 A 
ATOM     30  N   UNL     1      47.719   6.106  19.276  0.00  0.00    +0.000 NA
ENDBRANCH  24  25
ENDBRANCH  21  24
ENDBRANCH  17  18
ENDBRANCH   1  17
TORSDOF 6
ENDMDL
MODEL 3
REMARK VINA RESULT:    -6.993      3.933      8.328
REMARK INTER + INTRA:         -10.889
REMARK INTER:                  -9.949
REMARK INTRA:                  -0.940
REMARK UNBOUND:                -1.443
REMARK  Name = 
REMARK  7 active torsions:
REMARK  status: ('A' for Active; 'I' for Inactive)
REMARK    1  A    between atoms: C_1  and  C_2
REMARK    2  A    between atoms: C_2  and  N_3
REMARK    3  A    between atoms: N_3  and  C_4
REMARK    4  A    between atoms: C_4  and  C_5
REMARK    5  A    between atoms: C_8  and  C_9
REMARK    6  A    between atoms: C_9  and  C_10
REMARK    7  A    between atoms: C_18  and  C_20
REMARK                            x       y       z     vdW  Elec       q    Type
REMARK                         _______ _______ _______ _____ _____    ______ ____
ROOT
ATOM      1  N   UNL     1      46.969   6.390  13.664  0.00  0.00    +0.000 N 
ATOM      2  C   UNL     1      48.300   6.839  13.721  0.00  0.00    +0.000 C 
ATOM      3  O   UNL     1      49.172   6.194  14.297  0.00  0.00    +0.000 OA
ENDROOT
BRANCH   2   4
ATOM      4  C   UNL     1      48.648   8.131  13.123  0.00  0.00    +0.000 A 
ATOM      5  C   UNL     1      48.767   8.361  11.761  0.00  0.00    +0.000 A 
ATOM      6  S   UNL     1      49.070   9.994  11.372  0.00  0.00    +0.000 S 
ATOM      7  C   UNL     1      48.928  10.458  13.001  0.00  0.00    +0.000 A 
ATOM      8  N   UNL     1      48.974  11.765  13.364  0.00  0.00    +0.000 NA
ATOM      9  C   UNL     1      48.796  11.974  14.621  0.00  0.00    +0.000 A 
ATOM     10  N   UNL     1      48.604  10.991  15.561  0.00  0.00    +0.000 N 
ATOM     11  C   UNL     1      48.679   9.646  15.263  0.00  0.00    +0.000 A 
ATOM     12  O   UNL     1      48.748   8.801  16.146  0.00  0.00    +0.000 OA
ATOM     13  C   UNL     1      48.754   9.374  13.836  0.00  0.00    +0.000 A 
ATOM     14  H   UNL     1      48.542  11.218  16.542  0.00  0.00    +0.000 HD
ENDBRANCH   2   4
BRANCH   1  16
ATOM     15  C   UNL     1      46.867   3.893  13.553  0.00  0.00    +0.000 C 
ATOM     16  C   UNL     1      46.682   5.149  14.401  0.00  0.00    +0.000 C 
ENDBRANCH   1  16
BRANCH   1  17
ATOM     17  C   UNL     1      45.915   7.078  12.890  0.00  0.00    +0.000 C 
BRANCH  17  18
ATOM     18  C   UNL     1      45.369   6.326  11.708  0.00  0.00    +0.000 A 
ATOM     19  C   UNL     1      44.110   5.712  11.775  0.00  0.00    +0.000 A 
ATOM     20  C   UNL     1      43.741   4.777  10.811  0.00  0.00    +0.000 A 
ATOM     21  C   UNL     1      44.606   4.480   9.749  0.00  0.00    +0.000 A 
ATOM     22  C   UNL     1      45.788   5.218   9.603  0.00  0.00    +0.000 A 
ATOM     23  C   UNL     1      46.170   6.130  10.581  0.00  0.00    +0.000 A 
BRANCH  21  24
ATOM     24  C   UNL     1      44.339   3.308   8.835  0.00  0.00    +0.000 C 
BRANCH  24  25
ATOM     25  C   UNL     1      45.521   2.744   8.092  0.00  0.00    +0.000 A 
ATOM     26  C   UNL     1      46.041   3.402   6.980  0.00  0.00    +0.000 A 
ATOM     27  C   UNL     1      47.023   2.772   6.222  0.00  0.00    +0.000 A 
ATOM     28  C   UNL     1      47.470   1.512   6.599  0.00  0.00    +0.000 A 
ATOM     29  C   UNL     1      46.923   0.937   7.732  0.00  0.00    +0.000 A 
ATOM     30  N   UNL     1      45.961   1.520   8.480  0.00  0.00    +0.000 NA
ENDBRANCH  24  25
ENDBRANCH  21  24
ENDBRANCH  17  18
ENDBRANCH   1  17
TORSDOF 6
ENDMDL
MODEL 4
REMARK VINA RESULT:    -6.991      2.925      7.932
REMARK INTER + INTRA:         -10.885
REMARK INTER:                  -9.635
REMARK INTRA:                  -1.250
REMARK UNBOUND:                -1.443
REMARK  Name = 
REMARK  7 active torsions:
REMARK  status: ('A' for Active; 'I' for Inactive)
REMARK    1  A    between atoms: C_1  and  C_2
REMARK    2  A    between atoms: C_2  and  N_3
REMARK    3  A    between atoms: N_3  and  C_4
REMARK    4  A    between atoms: C_4  and  C_5
REMARK    5  A    between atoms: C_8  and  C_9
REMARK    6  A    between atoms: C_9  and  C_10
REMARK    7  A    between atoms: C_18  and  C_20
REMARK                            x       y       z     vdW  Elec       q    Type
REMARK                         _______ _______ _______ _____ _____    ______ ____
ROOT
ATOM      1  N   UNL     1      48.605   7.159  15.253  0.00  0.00    +0.000 N 
ATOM      2  C   UNL     1      48.477   6.823  16.612  0.00  0.00    +0.000 C 
ATOM      3  O   UNL     1      48.386   7.686  17.482  0.00  0.00    +0.000 OA
ENDROOT
BRANCH   2   4
ATOM      4  C   UNL     1      48.500   5.413  17.009  0.00  0.00    +0.000 A 
ATOM      5  C   UNL     1      47.394   4.578  17.012  0.00  0.00    +0.000 A 
ATOM      6  S   UNL     1      47.764   2.961  17.414  0.00  0.00    +0.000 S 
ATOM      7  C   UNL     1      49.427   3.307  17.473  0.00  0.00    +0.000 A 
ATOM      8  N   UNL     1      50.341   2.323  17.666  0.00  0.00    +0.000 NA
ATOM      9  C   UNL     1      51.564   2.719  17.631  0.00  0.00    +0.000 A 
ATOM     10  N   UNL     1      51.964   4.021  17.449  0.00  0.00    +0.000 N 
ATOM     11  C   UNL     1      51.074   5.072  17.379  0.00  0.00    +0.000 A 
ATOM     12  O   UNL     1      51.453   6.233  17.462  0.00  0.00    +0.000 OA
ATOM     13  C   UNL     1      49.685   4.650  17.289  0.00  0.00    +0.000 A 
ATOM     14  H   UNL     1      52.938   4.276  17.503  0.00  0.00    +0.000 HD
ENDBRANCH   2   4
BRANCH   1  16
ATOM     15  C   UNL     1      49.816   8.930  13.967  0.00  0.00    +0.000 C 
ATOM     16  C   UNL     1      48.702   8.597  14.957  0.00  0.00    +0.000 C 
ENDBRANCH   1  16
BRANCH   1  17
ATOM     17  C   UNL     1      48.606   6.156  14.168  0.00  0.00    +0.000 C 
BRANCH  17  18
ATOM     18  C   UNL     1      47.330   6.036  13.381  0.00  0.00    +0.000 A 
ATOM     19  C   UNL     1      46.396   5.036  13.689  0.00  0.00    +0.000 A 
ATOM     20  C   UNL     1      45.379   4.735  12.786  0.00  0.00    +0.000 A 
ATOM     21  C   UNL     1      45.259   5.458  11.591  0.00  0.00    +0.000 A 
ATOM     22  C   UNL     1      46.097   6.560  11.372  0.00  0.00    +0.000 A 
ATOM     23  C   UNL     1      47.131   6.842  12.259  0.00  0.00    +0.000 A 
BRANCH  21  24
ATOM     24  C   UNL     1      44.326   4.999  10.497  0.00  0.00    +0.000 C 
BRANCH  24  25
ATOM     25  C   UNL     1      44.899   4.063   9.466  0.00  0.00    +0.000 A 
ATOM     26  C   UNL     1      44.837   2.683   9.646  0.00  0.00    +0.000 A 
ATOM     27  C   UNL     1      45.520   1.856   8.759  0.00  0.00    +0.000 A 
ATOM     28  C   UNL     1      46.233   2.423   7.711  0.00  0.00    +0.000 A 
ATOM     29  C   UNL     1      46.223   3.800   7.584  0.00  0.00    +0.000 A 
ATOM     30  N   UNL     1      45.579   4.628   8.436  0.00  0.00    +0.000 NA
ENDBRANCH  24  25
ENDBRANCH  21  24
ENDBRANCH  17  18
ENDBRANCH   1  17
TORSDOF 6
ENDMDL
MODEL 5
REMARK VINA RESULT:    -6.908      3.511      7.952
REMARK INTER + INTRA:         -10.773
REMARK INTER:                  -9.342
REMARK INTRA:                  -1.432
REMARK UNBOUND:                -1.443
REMARK  Name = 
REMARK  7 active torsions:
REMARK  status: ('A' for Active; 'I' for Inactive)
REMARK    1  A    between atoms: C_1  and  C_2
REMARK    2  A    between atoms: C_2  and  N_3
REMARK    3  A    between atoms: N_3  and  C_4
REMARK    4  A    between atoms: C_4  and  C_5
REMARK    5  A    between atoms: C_8  and  C_9
REMARK    6  A    between atoms: C_9  and  C_10
REMARK    7  A    between atoms: C_18  and  C_20
REMARK                            x       y       z     vdW  Elec       q    Type
REMARK                         _______ _______ _______ _____ _____    ______ ____
ROOT
ATOM      1  N   UNL     1      48.680   7.423  13.628  0.00  0.00    +0.000 N 
ATOM      2  C   UNL     1      49.631   7.495  14.661  0.00  0.00    +0.000 C 
ATOM      3  O   UNL     1      50.813   7.224  14.467  0.00  0.00    +0.000 OA
ENDROOT
BRANCH   2   4
ATOM      4  C   UNL     1      49.197   7.854  16.014  0.00  0.00    +0.000 A 
ATOM      5  C   UNL     1      49.200   9.142  16.525  0.00  0.00    +0.000 A 
ATOM      6  S   UNL     1      48.528   9.254  18.089  0.00  0.00    +0.000 S 
ATOM      7  C   UNL     1      48.102   7.608  18.076  0.00  0.00    +0.000 A 
ATOM      8  N   UNL     1      47.386   7.061  19.089  0.00  0.00    +0.000 NA
ATOM      9  C   UNL     1      47.087   5.822  18.921  0.00  0.00    +0.000 A 
ATOM     10  N   UNL     1      47.464   5.063  17.839  0.00  0.00    +0.000 N 
ATOM     11  C   UNL     1      48.300   5.535  16.850  0.00  0.00    +0.000 A 
ATOM     12  O   UNL     1      48.815   4.780  16.036  0.00  0.00    +0.000 OA
ATOM     13  C   UNL     1      48.555   6.965  16.942  0.00  0.00    +0.000 A 
ATOM     14  H   UNL     1      47.257   4.076  17.802  0.00  0.00    +0.000 HD
ENDBRANCH   2   4
BRANCH   1  16
ATOM     15  C   UNL     1      49.482   8.050  11.344  0.00  0.00    +0.000 C 
ATOM     16  C   UNL     1      49.178   6.930  12.334  0.00  0.00    +0.000 C 
ENDBRANCH   1  16
BRANCH   1  17
ATOM     17  C   UNL     1      47.274   7.844  13.792  0.00  0.00    +0.000 C 
BRANCH  17  18
ATOM     18  C   UNL     1      46.240   6.946  13.171  0.00  0.00    +0.000 A 
ATOM     19  C   UNL     1      46.239   5.569  13.439  0.00  0.00    +0.000 A 
ATOM     20  C   UNL     1      45.489   4.708  12.643  0.00  0.00    +0.000 A 
ATOM     21  C   UNL     1      44.701   5.216  11.601  0.00  0.00    +0.000 A 
ATOM     22  C   UNL     1      44.582   6.604  11.447  0.00  0.00    +0.000 A 
ATOM     23  C   UNL     1      45.354   7.463  12.223  0.00  0.00    +0.000 A 
BRANCH  21  24
ATOM     24  C   UNL     1      44.076   4.295  10.581  0.00  0.00    +0.000 C 
BRANCH  24  25
ATOM     25  C   UNL     1      44.997   3.700   9.550  0.00  0.00    +0.000 A 
ATOM     26  C   UNL     1      45.583   4.503   8.573  0.00  0.00    +0.000 A 
ATOM     27  C   UNL     1      46.293   3.898   7.540  0.00  0.00    +0.000 A 
ATOM     28  C   UNL     1      46.413   2.515   7.516  0.00  0.00    +0.000 A 
ATOM     29  C   UNL     1      45.826   1.790   8.537  0.00  0.00    +0.000 A 
ATOM     30  N   UNL     1      45.121   2.348   9.545  0.00  0.00    +0.000 NA
ENDBRANCH  24  25
ENDBRANCH  21  24
ENDBRANCH  17  18
ENDBRANCH   1  17
TORSDOF 6
ENDMDL
MODEL 6
REMARK VINA RESULT:    -6.649      2.201      3.127
REMARK INTER + INTRA:         -10.424
REMARK INTER:                  -9.016
REMARK INTRA:                  -1.407
REMARK UNBOUND:                -1.443
REMARK  Name = 
REMARK  7 active torsions:
REMARK  status: ('A' for Active; 'I' for Inactive)
REMARK    1  A    between atoms: C_1  and  C_2
REMARK    2  A    between atoms: C_2  and  N_3
REMARK    3  A    between atoms: N_3  and  C_4
REMARK    4  A    between atoms: C_4  and  C_5
REMARK    5  A    between atoms: C_8  and  C_9
REMARK    6  A    between atoms: C_9  and  C_10
REMARK    7  A    between atoms: C_18  and  C_20
REMARK                            x       y       z     vdW  Elec       q    Type
REMARK                         _______ _______ _______ _____ _____    ______ ____
ROOT
ATOM      1  N   UNL     1      46.312   7.556  12.227  0.00  0.00    +0.000 N 
ATOM      2  C   UNL     1      45.145   7.331  11.475  0.00  0.00    +0.000 C 
ATOM      3  O   UNL     1      44.247   8.168  11.415  0.00  0.00    +0.000 OA
ENDROOT
BRANCH   2   4
ATOM      4  C   UNL     1      44.970   6.050  10.786  0.00  0.00    +0.000 A 
ATOM      5  C   UNL     1      45.533   5.733   9.560  0.00  0.00    +0.000 A 
ATOM      6  S   UNL     1      45.241   4.124   9.074  0.00  0.00    +0.000 S 
ATOM      7  C   UNL     1      44.462   3.771  10.543  0.00  0.00    +0.000 A 
ATOM      8  N   UNL     1      44.049   2.512  10.833  0.00  0.00    +0.000 NA
ATOM      9  C   UNL     1      43.526   2.379  12.001  0.00  0.00    +0.000 A 
ATOM     10  N   UNL     1      43.349   3.400  12.903  0.00  0.00    +0.000 N 
ATOM     11  C   UNL     1      43.631   4.717  12.606  0.00  0.00    +0.000 A 
ATOM     12  O   UNL     1      43.243   5.629  13.324  0.00  0.00    +0.000 OA
ATOM     13  C   UNL     1      44.338   4.887  11.345  0.00  0.00    +0.000 A 
ATOM     14  H   UNL     1      42.867   3.243  13.775  0.00  0.00    +0.000 HD
ENDBRANCH   2   4
BRANCH   1  16
ATOM     15  C   UNL     1      47.449   9.763  12.529  0.00  0.00    +0.000 C 
ATOM     16  C   UNL     1      46.347   8.814  12.991  0.00  0.00    +0.000 C 
ENDBRANCH   1  16
BRANCH   1  17
ATOM     17  C   UNL     1      47.459   6.626  12.237  0.00  0.00    +0.000 C 
BRANCH  17  18
ATOM     18  C   UNL     1      47.627   5.801  13.484  0.00  0.00    +0.000 A 
ATOM     19  C   UNL     1      47.002   4.550  13.598  0.00  0.00    +0.000 A 
ATOM     20  C   UNL     1      46.907   3.934  14.843  0.00  0.00    +0.000 A 
ATOM     21  C   UNL     1      47.473   4.538  15.975  0.00  0.00    +0.000 A 
ATOM     22  C   UNL     1      48.234   5.704  15.819  0.00  0.00    +0.000 A 
ATOM     23  C   UNL     1      48.304   6.335  14.581  0.00  0.00    +0.000 A 
BRANCH  21  24
ATOM     24  C   UNL     1      47.178   4.017  17.361  0.00  0.00    +0.000 C 
BRANCH  24  25
ATOM     25  C   UNL     1      47.756   4.794  18.514  0.00  0.00    +0.000 A 
ATOM     26  C   UNL     1      48.971   4.421  19.085  0.00  0.00    +0.000 A 
ATOM     27  C   UNL     1      49.392   5.057  20.249  0.00  0.00    +0.000 A 
ATOM     28  C   UNL     1      48.601   6.054  20.805  0.00  0.00    +0.000 A 
ATOM     29  C   UNL     1      47.421   6.385  20.163  0.00  0.00    +0.000 A 
ATOM     30  N   UNL     1      46.982   5.778  19.039  0.00  0.00    +0.000 NA
ENDBRANCH  24  25
ENDBRANCH  21  24
ENDBRANCH  17  18
ENDBRANCH   1  17
TORSDOF 6
ENDMDL
MODEL 7
REMARK VINA RESULT:    -6.514      3.430      8.181
REMARK INTER + INTRA:         -10.241
REMARK INTER:                  -8.793
REMARK INTRA:                  -1.449
REMARK UNBOUND:                -1.443
REMARK  Name = 
REMARK  7 active torsions:
REMARK  status: ('A' for Active; 'I' for Inactive)
REMARK    1  A    between atoms: C_1  and  C_2
REMARK    2  A    between atoms: C_2  and  N_3
REMARK    3  A    between atoms: N_3  and  C_4
REMARK    4  A    between atoms: C_4  and  C_5
REMARK    5  A    between atoms: C_8  and  C_9
REMARK    6  A    between atoms: C_9  and  C_10
REMARK    7  A    between atoms: C_18  and  C_20
REMARK                            x       y       z     vdW  Elec       q    Type
REMARK                         _______ _______ _______ _____ _____    ______ ____
ROOT
ATOM      1  N   UNL     1      49.162   7.761  14.507  0.00  0.00    +0.000 N 
ATOM      2  C   UNL     1      49.696   6.975  15.543  0.00  0.00    +0.000 C 
ATOM      3  O   UNL     1      50.907   6.809  15.666  0.00  0.00    +0.000 OA
ENDROOT
BRANCH   2   4
ATOM      4  C   UNL     1      48.788   6.294  16.469  0.00  0.00    +0.000 A 
ATOM      5  C   UNL     1      48.291   5.014  16.286  0.00  0.00    +0.000 A 
ATOM      6  S   UNL     1      47.351   4.455  17.596  0.00  0.00    +0.000 S 
ATOM      7  C   UNL     1      47.684   5.859  18.495  0.00  0.00    +0.000 A 
ATOM      8  N   UNL     1      47.262   5.986  19.778  0.00  0.00    +0.000 NA
ATOM      9  C   UNL     1      47.633   7.074  20.355  0.00  0.00    +0.000 A 
ATOM     10  N   UNL     1      48.367   8.069  19.756  0.00  0.00    +0.000 N 
ATOM     11  C   UNL     1      48.707   8.047  18.420  0.00  0.00    +0.000 A 
ATOM     12  O   UNL     1      49.143   9.042  17.856  0.00  0.00    +0.000 OA
ATOM     13  C   UNL     1      48.414   6.778  17.770  0.00  0.00    +0.000 A 
ATOM     14  H   UNL     1      48.565   8.931  20.242  0.00  0.00    +0.000 HD
ENDBRANCH   2   4
BRANCH   1  16
ATOM     15  C   UNL     1      50.328   9.810  13.670  0.00  0.00    +0.000 C 
ATOM     16  C   UNL     1      50.138   8.300  13.546  0.00  0.00    +0.000 C 
ENDBRANCH   1  16
BRANCH   1  17
ATOM     17  C   UNL     1      47.723   8.074  14.388  0.00  0.00    +0.000 C 
BRANCH  17  18
ATOM     18  C   UNL     1      47.004   7.435  13.231  0.00  0.00    +0.000 A 
ATOM     19  C   UNL     1      46.043   8.156  12.506  0.00  0.00    +0.000 A 
ATOM     20  C   UNL     1      45.175   7.485  11.648  0.00  0.00    +0.000 A 
ATOM     21  C   UNL     1      45.286   6.099  11.474  0.00  0.00    +0.000 A 
ATOM     22  C   UNL     1      46.351   5.417  12.077  0.00  0.00    +0.000 A 
ATOM     23  C   UNL     1      47.200   6.081  12.956  0.00  0.00    +0.000 A 
BRANCH  21  24
ATOM     24  C   UNL     1      44.216   5.320  10.747  0.00  0.00    +0.000 C 
BRANCH  24  25
ATOM     25  C   UNL     1      44.684   4.315   9.728  0.00  0.00    +0.000 A 
ATOM     26  C   UNL     1      44.454   2.954   9.915  0.00  0.00    +0.000 A 
ATOM     27  C   UNL     1      45.041   2.044   9.041  0.00  0.00    +0.000 A 
ATOM     28  C   UNL     1      45.830   2.514   7.999  0.00  0.00    +0.000 A 
ATOM     29  C   UNL     1      45.988   3.882   7.864  0.00  0.00    +0.000 A 
ATOM     30  N   UNL     1      45.439   4.787   8.704  0.00  0.00    +0.000 NA
ENDBRANCH  24  25
ENDBRANCH  21  24
ENDBRANCH  17  18
ENDBRANCH   1  17
TORSDOF 6
ENDMDL
MODEL 8
REMARK VINA RESULT:    -6.403      4.294      8.020
REMARK INTER + INTRA:         -10.091
REMARK INTER:                  -8.778
REMARK INTRA:                  -1.314
REMARK UNBOUND:                -1.443
REMARK  Name = 
REMARK  7 active torsions:
REMARK  status: ('A' for Active; 'I' for Inactive)
REMARK    1  A    between atoms: C_1  and  C_2
REMARK    2  A    between atoms: C_2  and  N_3
REMARK    3  A    between atoms: N_3  and  C_4
REMARK    4  A    between atoms: C_4  and  C_5
REMARK    5  A    between atoms: C_8  and  C_9
REMARK    6  A    between atoms: C_9  and  C_10
REMARK    7  A    between atoms: C_18  and  C_20
REMARK                            x       y       z     vdW  Elec       q    Type
REMARK                         _______ _______ _______ _____ _____    ______ ____
ROOT
ATOM      1  N   UNL     1      46.217   9.039  12.626  0.00  0.00    +0.000 N 
ATOM      2  C   UNL     1      47.367   9.777  12.298  0.00  0.00    +0.000 C 
ATOM      3  O   UNL     1      47.295  10.938  11.900  0.00  0.00    +0.000 OA
ENDROOT
BRANCH   2   4
ATOM      4  C   UNL     1      48.682   9.136  12.384  0.00  0.00    +0.000 A 
ATOM      5  C   UNL     1      49.411   8.689  11.294  0.00  0.00    +0.000 A 
ATOM      6  S   UNL     1      50.956   8.093  11.707  0.00  0.00    +0.000 S 
ATOM      7  C   UNL     1      50.740   8.531  13.336  0.00  0.00    +0.000 A 
ATOM      8  N   UNL     1      51.745   8.394  14.238  0.00  0.00    +0.000 NA
ATOM      9  C   UNL     1      51.461   8.817  15.419  0.00  0.00    +0.000 A 
ATOM     10  N   UNL     1      50.248   9.342  15.794  0.00  0.00    +0.000 N 
ATOM     11  C   UNL     1      49.157   9.381  14.952  0.00  0.00    +0.000 A 
ATOM     12  O   UNL     1      48.034   9.623  15.374  0.00  0.00    +0.000 OA
ATOM     13  C   UNL     1      49.476   9.028  13.577  0.00  0.00    +0.000 A 
ATOM     14  H   UNL     1      50.067   9.589  16.755  0.00  0.00    +0.000 HD
ENDBRANCH   2   4
BRANCH   1  16
ATOM     15  C   UNL     1      44.282   9.318  11.066  0.00  0.00    +0.000 C 
ATOM     16  C   UNL     1      44.933   9.717  12.387  0.00  0.00    +0.000 C 
ENDBRANCH   1  16
BRANCH   1  17
ATOM     17  C   UNL     1      46.266   7.683  13.210  0.00  0.00    +0.000 C 
BRANCH  17  18
ATOM     18  C   UNL     1      45.984   6.548  12.264  0.00  0.00    +0.000 A 
ATOM     19  C   UNL     1      46.552   6.532  10.982  0.00  0.00    +0.000 A 
ATOM     20  C   UNL     1      46.060   5.658  10.016  0.00  0.00    +0.000 A 
ATOM     21  C   UNL     1      45.030   4.763  10.333  0.00  0.00    +0.000 A 
ATOM     22  C   UNL     1      44.584   4.675  11.659  0.00  0.00    +0.000 A 
ATOM     23  C   UNL     1      45.054   5.568  12.617  0.00  0.00    +0.000 A 
BRANCH  21  24
ATOM     24  C   UNL     1      44.321   3.982   9.253  0.00  0.00    +0.000 C 
BRANCH  24  25
ATOM     25  C   UNL     1      45.182   3.137   8.351  0.00  0.00    +0.000 A 
ATOM     26  C   UNL     1      45.567   1.854   8.735  0.00  0.00    +0.000 A 
ATOM     27  C   UNL     1      46.494   1.168   7.957  0.00  0.00    +0.000 A 
ATOM     28  C   UNL     1      47.001   1.770   6.812  0.00  0.00    +0.000 A 
ATOM     29  C   UNL     1      46.547   3.035   6.484  0.00  0.00    +0.000 A 
ATOM     30  N   UNL     1      45.658   3.729   7.227  0.00  0.00    +0.000 NA
ENDBRANCH  24  25
ENDBRANCH  21  24
ENDBRANCH  17  18
ENDBRANCH   1  17
TORSDOF 6
ENDMDL
MODEL 9
REMARK VINA RESULT:    -6.239      3.495      7.701
REMARK INTER + INTRA:          -9.870
REMARK INTER:                  -8.287
REMARK INTRA:                  -1.584
REMARK UNBOUND:                -1.443
REMARK  Name = 
REMARK  7 active torsions:
REMARK  status: ('A' for Active; 'I' for Inactive)
REMARK    1  A    between atoms: C_1  and  C_2
REMARK    2  A    between atoms: C_2  and  N_3
REMARK    3  A    between atoms: N_3  and  C_4
REMARK    4  A    between atoms: C_4  and  C_5
REMARK    5  A    between atoms: C_8  and  C_9
REMARK    6  A    between atoms: C_9  and  C_10
REMARK    7  A    between atoms: C_18  and  C_20
REMARK                            x       y       z     vdW  Elec       q    Type
REMARK                         _______ _______ _______ _____ _____    ______ ____
ROOT
ATOM      1  N   UNL     1      48.699   8.136  17.277  0.00  0.00    +0.000 N 
ATOM      2  C   UNL     1      48.855   7.049  18.154  0.00  0.00    +0.000 C 
ATOM      3  O   UNL     1      48.201   6.960  19.191  0.00  0.00    +0.000 OA
ENDROOT
BRANCH   2   4
ATOM      4  C   UNL     1      49.855   6.021  17.855  0.00  0.00    +0.000 A 
ATOM      5  C   UNL     1      51.213   6.149  18.104  0.00  0.00    +0.000 A 
ATOM      6  S   UNL     1      52.104   4.737  17.753  0.00  0.00    +0.000 S 
ATOM      7  C   UNL     1      50.686   3.878  17.377  0.00  0.00    +0.000 A 
ATOM      8  N   UNL     1      50.724   2.552  17.091  0.00  0.00    +0.000 NA
ATOM      9  C   UNL     1      49.572   2.020  16.881  0.00  0.00    +0.000 A 
ATOM     10  N   UNL     1      48.377   2.699  16.901  0.00  0.00    +0.000 N 
ATOM     11  C   UNL     1      48.298   4.067  17.057  0.00  0.00    +0.000 A 
ATOM     12  O   UNL     1      47.260   4.675  16.830  0.00  0.00    +0.000 OA
ATOM     13  C   UNL     1      49.565   4.683  17.420  0.00  0.00    +0.000 A 
ATOM     14  H   UNL     1      47.515   2.236  16.658  0.00  0.00    +0.000 HD
ENDBRANCH   2   4
BRANCH   1  16
ATOM     15  C   UNL     1      48.307  10.596  17.502  0.00  0.00    +0.000 C 
ATOM     16  C   UNL     1      47.766   9.185  17.719  0.00  0.00    +0.000 C 
ENDBRANCH   1  16
BRANCH   1  17
ATOM     17  C   UNL     1      49.383   8.226  15.971  0.00  0.00    +0.000 C 
BRANCH  17  18
ATOM     18  C   UNL     1      48.526   7.985  14.759  0.00  0.00    +0.000 A 
ATOM     19  C   UNL     1      47.862   9.051  14.134  0.00  0.00    +0.000 A 
ATOM     20  C   UNL     1      46.846   8.794  13.217  0.00  0.00    +0.000 A 
ATOM     21  C   UNL     1      46.513   7.474  12.884  0.00  0.00    +0.000 A 
ATOM     22  C   UNL     1      47.291   6.424  13.391  0.00  0.00    +0.000 A 
ATOM     23  C   UNL     1      48.287   6.679  14.329  0.00  0.00    +0.000 A 
BRANCH  21  24
ATOM     24  C   UNL     1      45.269   7.165  12.087  0.00  0.00    +0.000 C 
BRANCH  24  25
ATOM     25  C   UNL     1      44.752   5.752  12.159  0.00  0.00    +0.000 A 
ATOM     26  C   UNL     1      45.038   4.838  11.146  0.00  0.00    +0.000 A 
ATOM     27  C   UNL     1      44.410   3.597  11.161  0.00  0.00    +0.000 A 
ATOM     28  C   UNL     1      43.526   3.294  12.189  0.00  0.00    +0.000 A 
ATOM     29  C   UNL     1      43.316   4.245  13.172  0.00  0.00    +0.000 A 
ATOM     30  N   UNL     1      43.902   5.461  13.177  0.00  0.00    +0.000 NA
ENDBRANCH  24  25
ENDBRANCH  21  24
ENDBRANCH  17  18
ENDBRANCH   1  17
TORSDOF 6
ENDMDL
