MODEL 1
REMARK VINA RESULT:    -7.923      0.000      0.000
REMARK INTER + INTRA:         -13.319
REMARK INTER:                 -12.323
REMARK INTRA:                  -0.996
REMARK UNBOUND:                -0.996
REMARK  Name = 
REMARK  12 active torsions:
REMARK  status: ('A' for Active; 'I' for Inactive)
REMARK    1  A    between atoms: C_1  and  C_2
REMARK    2  A    between atoms: C_2  and  C_3
REMARK    3  A    between atoms: C_2  and  N_11
REMARK    4  A    between atoms: C_3  and  C_4
REMARK    5  A    between atoms: C_8  and  O_9
REMARK    6  A    between atoms: N_11  and  C_12
REMARK    7  A    between atoms: N_11  and  C_13
REMARK    8  A    between atoms: C_13  and  C_14
REMARK    9  A    between atoms: C_17  and  C_18
REMARK   10  A    between atoms: C_18  and  N_19
REMARK   11  A    between atoms: N_19  and  C_20
REMARK   12  A    between atoms: C_20  and  C_21
REMARK                            x       y       z     vdW  Elec       q    Type
REMARK                         _______ _______ _______ _____ _____    ______ ____
ROOT
ATOM      1  C   UNL     1      47.269   5.695  13.256  0.00  0.00    +0.000 A 
ATOM      2  C   UNL     1      46.541   6.112  12.139  0.00  0.00    +0.000 A 
ATOM      3  C   UNL     1      45.478   5.353  11.666  0.00  0.00    +0.000 A 
ATOM      4  C   UNL     1      45.212   4.127  12.264  0.00  0.00    +0.000 A 
ATOM      5  N   UNL     1      45.942   3.665  13.311  0.00  0.00    +0.000 NA
ATOM      6  C   UNL     1      46.927   4.459  13.793  0.00  0.00    +0.000 A 
ENDROOT
BRANCH   1   7
ATOM      7  C   UNL     1      48.424   6.496  13.815  0.00  0.00    +0.000 C 
BRANCH   7   8
ATOM      8  N   UNL     1      48.098   7.546  14.813  0.00  0.00    +0.000 NA
ATOM      9  C   UNL     1      47.710   8.811  14.175  0.00  0.00    +0.000 C 
BRANCH   8  11
ATOM     10  C   UNL     1      50.611   7.367  15.233  0.00  0.00    +0.000 C 
ATOM     11  C   UNL     1      49.224   7.774  15.768  0.00  0.00    +0.000 C 
BRANCH  11  12
ATOM     12  C   UNL     1      49.046   7.130  17.184  0.00  0.00    +0.000 C 
BRANCH  12  13
ATOM     13  C   UNL     1      49.032   5.623  17.366  0.00  0.00    +0.000 A 
ATOM     14  C   UNL     1      50.177   4.819  17.437  0.00  0.00    +0.000 A 
ATOM     15  C   UNL     1      50.077   3.426  17.536  0.00  0.00    +0.000 A 
ATOM     16  C   UNL     1      48.829   2.807  17.557  0.00  0.00    +0.000 A 
ATOM     17  C   UNL     1      47.689   3.595  17.473  0.00  0.00    +0.000 A 
ATOM     18  C   UNL     1      47.782   4.980  17.377  0.00  0.00    +0.000 A 
BRANCH  17  19
ATOM     19  O   UNL     1      46.440   3.046  17.469  0.00  0.00    +0.000 OA
ATOM     20  H   UNL     1      46.532   2.082  17.410  0.00  0.00    +0.000 HD
ENDBRANCH  17  19
ENDBRANCH  12  13
ENDBRANCH  11  12
ENDBRANCH   8  11
ENDBRANCH   7   8
ENDBRANCH   1   7
BRANCH   4  21
ATOM     21  C   UNL     1      44.124   3.242  11.700  0.00  0.00    +0.000 C 
BRANCH  21  22
ATOM     22  N   UNL     1      44.596   2.368  10.636  0.00  0.00    +0.000 NA
ATOM     23  H   UNL     1      44.067   1.496  10.645  0.00  0.00    +0.000 HD
BRANCH  22  24
ATOM     24  C   UNL     1      44.462   3.012   9.332  0.00  0.00    +0.000 C 
BRANCH  24  25
ATOM     25  C   UNL     1      45.529   2.556   8.362  0.00  0.00    +0.000 A 
ATOM     26  C   UNL     1      46.007   3.435   7.389  0.00  0.00    +0.000 A 
ATOM     27  C   UNL     1      46.992   2.996   6.513  0.00  0.00    +0.000 A 
ATOM     28  C   UNL     1      47.469   1.695   6.627  0.00  0.00    +0.000 A 
ATOM     29  C   UNL     1      46.939   0.885   7.619  0.00  0.00    +0.000 A 
ATOM     30  N   UNL     1      45.983   1.284   8.486  0.00  0.00    +0.000 NA
ENDBRANCH  24  25
ENDBRANCH  22  24
ENDBRANCH  21  22
ENDBRANCH   4  21
TORSDOF 10
ENDMDL
MODEL 2
REMARK VINA RESULT:    -7.696      1.148      1.627
REMARK INTER + INTRA:         -12.966
REMARK INTER:                 -11.268
REMARK INTRA:                  -1.697
REMARK UNBOUND:                -0.996
REMARK  Name = 
REMARK  12 active torsions:
REMARK  status: ('A' for Active; 'I' for Inactive)
REMARK    1  A    between atoms: C_1  and  C_2
REMARK    2  A    between atoms: C_2  and  C_3
REMARK    3  A    between atoms: C_2  and  N_11
REMARK    4  A    between atoms: C_3  and  C_4
REMARK    5  A    between atoms: C_8  and  O_9
REMARK    6  A    between atoms: N_11  and  C_12
REMARK    7  A    between atoms: N_11  and  C_13
REMARK    8  A    between atoms: C_13  and  C_14
REMARK    9  A    between atoms: C_17  and  C_18
REMARK   10  A    between atoms: C_18  and  N_19
REMARK   11  A    between atoms: N_19  and  C_20
REMARK   12  A    between atoms: C_20  and  C_21
REMARK                            x       y       z     vdW  Elec       q    Type
REMARK                         _______ _______ _______ _____ _____    ______ ____
ROOT
ATOM      1  C   UNL     1      47.783   6.175  13.441  0.00  0.00    +0.000 A 
ATOM      2  C   UNL     1      47.202   5.054  14.036  0.00  0.00    +0.000 A 
ATOM      3  C   UNL     1      46.202   4.345  13.381  0.00  0.00    +0.000 A 
ATOM      4  C   UNL     1      45.726   4.826  12.167  0.00  0.00    +0.000 A 
ATOM      5  N   UNL     1      46.228   5.949  11.593  0.00  0.00    +0.000 NA
ATOM      6  C   UNL     1      47.247   6.579  12.222  0.00  0.00    +0.000 A 
ENDROOT
BRANCH   1   7
ATOM      7  C   UNL     1      48.883   6.969  14.110  0.00  0.00    +0.000 C 
BRANCH   7   8
ATOM      8  N   UNL     1      48.548   7.645  15.388  0.00  0.00    +0.000 NA
ATOM      9  C   UNL     1      48.126   9.038  15.181  0.00  0.00    +0.000 C 
BRANCH   8  11
ATOM     10  C   UNL     1      51.050   7.271  15.733  0.00  0.00    +0.000 C 
ATOM     11  C   UNL     1      49.680   7.588  16.361  0.00  0.00    +0.000 C 
BRANCH  11  12
ATOM     12  C   UNL     1      49.473   6.624  17.578  0.00  0.00    +0.000 C 
BRANCH  12  13
ATOM     13  C   UNL     1      48.838   5.257  17.398  0.00  0.00    +0.000 A 
ATOM     14  C   UNL     1      47.493   4.964  17.655  0.00  0.00    +0.000 A 
ATOM     15  C   UNL     1      47.001   3.659  17.530  0.00  0.00    +0.000 A 
ATOM     16  C   UNL     1      47.847   2.618  17.152  0.00  0.00    +0.000 A 
ATOM     17  C   UNL     1      49.184   2.897  16.908  0.00  0.00    +0.000 A 
ATOM     18  C   UNL     1      49.679   4.192  17.029  0.00  0.00    +0.000 A 
BRANCH  17  19
ATOM     19  O   UNL     1      50.066   1.917  16.555  0.00  0.00    +0.000 OA
ATOM     20  H   UNL     1      50.848   1.992  17.125  0.00  0.00    +0.000 HD
ENDBRANCH  17  19
ENDBRANCH  12  13
ENDBRANCH  11  12
ENDBRANCH   8  11
ENDBRANCH   7   8
ENDBRANCH   1   7
BRANCH   4  21
ATOM     21  C   UNL     1      44.572   4.125  11.488  0.00  0.00    +0.000 C 
BRANCH  21  22
ATOM     22  N   UNL     1      44.914   2.790  11.019  0.00  0.00    +0.000 NA
ATOM     23  H   UNL     1      44.570   2.093  11.681  0.00  0.00    +0.000 HD
BRANCH  22  24
ATOM     24  C   UNL     1      44.346   2.537   9.699  0.00  0.00    +0.000 C 
BRANCH  24  25
ATOM     25  C   UNL     1      45.413   2.454   8.629  0.00  0.00    +0.000 A 
ATOM     26  C   UNL     1      45.743   3.588   7.885  0.00  0.00    +0.000 A 
ATOM     27  C   UNL     1      46.731   3.489   6.912  0.00  0.00    +0.000 A 
ATOM     28  C   UNL     1      47.357   2.265   6.706  0.00  0.00    +0.000 A 
ATOM     29  C   UNL     1      46.969   1.187   7.485  0.00  0.00    +0.000 A 
ATOM     30  N   UNL     1      46.015   1.253   8.439  0.00  0.00    +0.000 NA
ENDBRANCH  24  25
ENDBRANCH  22  24
ENDBRANCH  21  22
ENDBRANCH   4  21
TORSDOF 10
ENDMDL
MODEL 3
REMARK VINA RESULT:    -7.224      2.776      8.759
REMARK INTER + INTRA:         -12.232
REMARK INTER:                 -12.453
REMARK INTRA:                   0.221
REMARK UNBOUND:                -0.996
REMARK  Name = 
REMARK  12 active torsions:
REMARK  status: ('A' for Active; 'I' for Inactive)
REMARK    1  A    between atoms: C_1  and  C_2
REMARK    2  A    between atoms: C_2  and  C_3
REMARK    3  A    between atoms: C_2  and  N_11
REMARK    4  A    between atoms: C_3  and  C_4
REMARK    5  A    between atoms: C_8  and  O_9
REMARK    6  A    between atoms: N_11  and  C_12
REMARK    7  A    between atoms: N_11  and  C_13
REMARK    8  A    between atoms: C_13  and  C_14
REMARK    9  A    between atoms: C_17  and  C_18
REMARK   10  A    between atoms: C_18  and  N_19
REMARK   11  A    between atoms: N_19  and  C_20
REMARK   12  A    between atoms: C_20  and  C_21
REMARK                            x       y       z     vdW  Elec       q    Type
REMARK                         _______ _______ _______ _____ _____    ______ ____
ROOT
ATOM      1  C   UNL     1      45.908   5.335  12.954  0.00  0.00    +0.000 A 
ATOM      2  C   UNL     1      46.022   6.707  12.721  0.00  0.00    +0.000 A 
ATOM      3  C   UNL     1      47.111   7.418  13.211  0.00  0.00    +0.000 A 
ATOM      4  C   UNL     1      48.032   6.760  14.017  0.00  0.00    +0.000 A 
ATOM      5  N   UNL     1      47.914   5.440  14.313  0.00  0.00    +0.000 NA
ATOM      6  C   UNL     1      46.881   4.760  13.764  0.00  0.00    +0.000 A 
ENDROOT
BRANCH   1   7
ATOM      7  C   UNL     1      44.749   4.517  12.428  0.00  0.00    +0.000 C 
BRANCH   7   8
ATOM      8  N   UNL     1      43.995   5.075  11.277  0.00  0.00    +0.000 NA
ATOM      9  C   UNL     1      42.630   5.470  11.652  0.00  0.00    +0.000 C 
BRANCH   8  11
ATOM     10  C   UNL     1      44.052   2.640  10.512  0.00  0.00    +0.000 C 
ATOM     11  C   UNL     1      43.959   4.128  10.123  0.00  0.00    +0.000 C 
BRANCH  11  12
ATOM     12  C   UNL     1      45.014   4.398   8.998  0.00  0.00    +0.000 C 
BRANCH  12  13
ATOM     13  C   UNL     1      45.715   3.254   8.287  0.00  0.00    +0.000 A 
ATOM     14  C   UNL     1      45.606   1.906   8.649  0.00  0.00    +0.000 A 
ATOM     15  C   UNL     1      46.340   0.917   7.984  0.00  0.00    +0.000 A 
ATOM     16  C   UNL     1      47.206   1.257   6.946  0.00  0.00    +0.000 A 
ATOM     17  C   UNL     1      47.330   2.593   6.589  0.00  0.00    +0.000 A 
ATOM     18  C   UNL     1      46.601   3.580   7.246  0.00  0.00    +0.000 A 
BRANCH  17  19
ATOM     19  O   UNL     1      48.176   2.991   5.595  0.00  0.00    +0.000 OA
ATOM     20  H   UNL     1      48.551   2.198   5.179  0.00  0.00    +0.000 HD
ENDBRANCH  17  19
ENDBRANCH  12  13
ENDBRANCH  11  12
ENDBRANCH   8  11
ENDBRANCH   7   8
ENDBRANCH   1   7
BRANCH   4  21
ATOM     21  C   UNL     1      49.168   7.538  14.640  0.00  0.00    +0.000 C 
BRANCH  21  22
ATOM     22  N   UNL     1      50.279   6.692  15.051  0.00  0.00    +0.000 NA
ATOM     23  H   UNL     1      51.137   7.006  14.597  0.00  0.00    +0.000 HD
BRANCH  22  24
ATOM     24  C   UNL     1      50.450   6.719  16.500  0.00  0.00    +0.000 C 
BRANCH  24  25
ATOM     25  C   UNL     1      49.749   5.560  17.175  0.00  0.00    +0.000 A 
ATOM     26  C   UNL     1      48.576   5.781  17.899  0.00  0.00    +0.000 A 
ATOM     27  C   UNL     1      47.946   4.701  18.504  0.00  0.00    +0.000 A 
ATOM     28  C   UNL     1      48.504   3.434  18.376  0.00  0.00    +0.000 A 
ATOM     29  C   UNL     1      49.673   3.300  17.643  0.00  0.00    +0.000 A 
ATOM     30  N   UNL     1      50.306   4.330  17.041  0.00  0.00    +0.000 NA
ENDBRANCH  24  25
ENDBRANCH  22  24
ENDBRANCH  21  22
ENDBRANCH   4  21
TORSDOF 10
ENDMDL
MODEL 4
REMARK VINA RESULT:    -6.777      2.929      8.702
REMARK INTER + INTRA:         -11.536
REMARK INTER:                 -11.160
REMARK INTRA:                  -0.376
REMARK UNBOUND:                -0.996
REMARK  Name = 
REMARK  12 active torsions:
REMARK  status: ('A' for Active; 'I' for Inactive)
REMARK    1  A    between atoms: C_1  and  C_2
REMARK    2  A    between atoms: C_2  and  C_3
REMARK    3  A    between atoms: C_2  and  N_11
REMARK    4  A    between atoms: C_3  and  C_4
REMARK    5  A    between atoms: C_8  and  O_9
REMARK    6  A    between atoms: N_11  and  C_12
REMARK    7  A    between atoms: N_11  and  C_13
REMARK    8  A    between atoms: C_13  and  C_14
REMARK    9  A    between atoms: C_17  and  C_18
REMARK   10  A    between atoms: C_18  and  N_19
REMARK   11  A    between atoms: N_19  and  C_20
REMARK   12  A    between atoms: C_20  and  C_21
REMARK                            x       y       z     vdW  Elec       q    Type
REMARK                         _______ _______ _______ _____ _____    ______ ____
ROOT
ATOM      1  C   UNL     1      46.869   4.876  14.068  0.00  0.00    +0.000 A 
ATOM      2  C   UNL     1      46.979   4.342  15.354  0.00  0.00    +0.000 A 
ATOM      3  C   UNL     1      47.817   4.929  16.293  0.00  0.00    +0.000 A 
ATOM      4  C   UNL     1      48.615   5.999  15.903  0.00  0.00    +0.000 A 
ATOM      5  N   UNL     1      48.576   6.501  14.642  0.00  0.00    +0.000 NA
ATOM      6  C   UNL     1      47.700   5.951  13.770  0.00  0.00    +0.000 A 
ENDROOT
BRANCH   1   7
ATOM      7  C   UNL     1      45.959   4.279  13.018  0.00  0.00    +0.000 C 
BRANCH   7   8
ATOM      8  N   UNL     1      44.528   4.671  13.062  0.00  0.00    +0.000 NA
ATOM      9  C   UNL     1      43.634   3.509  12.960  0.00  0.00    +0.000 C 
BRANCH   8  11
ATOM     10  C   UNL     1      42.769   5.545  11.429  0.00  0.00    +0.000 C 
ATOM     11  C   UNL     1      44.192   5.674  12.006  0.00  0.00    +0.000 C 
BRANCH  11  12
ATOM     12  C   UNL     1      45.194   5.745  10.805  0.00  0.00    +0.000 C 
BRANCH  12  13
ATOM     13  C   UNL     1      45.219   4.665   9.737  0.00  0.00    +0.000 A 
ATOM     14  C   UNL     1      44.584   3.422   9.848  0.00  0.00    +0.000 A 
ATOM     15  C   UNL     1      44.714   2.453   8.846  0.00  0.00    +0.000 A 
ATOM     16  C   UNL     1      45.487   2.705   7.714  0.00  0.00    +0.000 A 
ATOM     17  C   UNL     1      46.130   3.930   7.602  0.00  0.00    +0.000 A 
ATOM     18  C   UNL     1      46.004   4.898   8.595  0.00  0.00    +0.000 A 
BRANCH  17  19
ATOM     19  O   UNL     1      46.917   4.228   6.529  0.00  0.00    +0.000 OA
ATOM     20  H   UNL     1      46.903   5.189   6.398  0.00  0.00    +0.000 HD
ENDBRANCH  17  19
ENDBRANCH  12  13
ENDBRANCH  11  12
ENDBRANCH   8  11
ENDBRANCH   7   8
ENDBRANCH   1   7
BRANCH   4  21
ATOM     21  C   UNL     1      49.605   6.587  16.882  0.00  0.00    +0.000 C 
BRANCH  21  22
ATOM     22  N   UNL     1      50.024   5.641  17.905  0.00  0.00    +0.000 NA
ATOM     23  H   UNL     1      49.442   4.805  17.862  0.00  0.00    +0.000 HD
BRANCH  22  24
ATOM     24  C   UNL     1      51.427   5.273  17.734  0.00  0.00    +0.000 C 
BRANCH  24  25
ATOM     25  C   UNL     1      51.617   3.774  17.676  0.00  0.00    +0.000 A 
ATOM     26  C   UNL     1      52.790   3.200  18.170  0.00  0.00    +0.000 A 
ATOM     27  C   UNL     1      52.939   1.820  18.112  0.00  0.00    +0.000 A 
ATOM     28  C   UNL     1      51.920   1.051  17.562  0.00  0.00    +0.000 A 
ATOM     29  C   UNL     1      50.788   1.698  17.091  0.00  0.00    +0.000 A 
ATOM     30  N   UNL     1      50.614   3.037  17.136  0.00  0.00    +0.000 NA
ENDBRANCH  24  25
ENDBRANCH  22  24
ENDBRANCH  21  22
ENDBRANCH   4  21
TORSDOF 10
ENDMDL
MODEL 5
REMARK VINA RESULT:    -6.703      3.691      5.921
REMARK INTER + INTRA:         -11.422
REMARK INTER:                 -10.353
REMARK INTRA:                  -1.069
REMARK UNBOUND:                -0.996
REMARK  Name = 
REMARK  12 active torsions:
REMARK  status: ('A' for Active; 'I' for Inactive)
REMARK    1  A    between atoms: C_1  and  C_2
REMARK    2  A    between atoms: C_2  and  C_3
REMARK    3  A    between atoms: C_2  and  N_11
REMARK    4  A    between atoms: C_3  and  C_4
REMARK    5  A    between atoms: C_8  and  O_9
REMARK    6  A    between atoms: N_11  and  C_12
REMARK    7  A    between atoms: N_11  and  C_13
REMARK    8  A    between atoms: C_13  and  C_14
REMARK    9  A    between atoms: C_17  and  C_18
REMARK   10  A    between atoms: C_18  and  N_19
REMARK   11  A    between atoms: N_19  and  C_20
REMARK   12  A    between atoms: C_20  and  C_21
REMARK                            x       y       z     vdW  Elec       q    Type
REMARK                         _______ _______ _______ _____ _____    ______ ____
ROOT
ATOM      1  C   UNL     1      46.140   6.752  12.666  0.00  0.00    +0.000 A 
ATOM      2  C   UNL     1      45.238   6.938  11.616  0.00  0.00    +0.000 A 
ATOM      3  C   UNL     1      44.448   5.886  11.169  0.00  0.00    +0.000 A 
ATOM      4  C   UNL     1      44.638   4.625  11.721  0.00  0.00    +0.000 A 
ATOM      5  N   UNL     1      45.551   4.399  12.700  0.00  0.00    +0.000 NA
ATOM      6  C   UNL     1      46.257   5.458  13.162  0.00  0.00    +0.000 A 
ENDROOT
BRANCH   1   7
ATOM      7  C   UNL     1      47.009   7.871  13.195  0.00  0.00    +0.000 C 
BRANCH   7   8
ATOM      8  N   UNL     1      48.471   7.761  12.958  0.00  0.00    +0.000 NA
ATOM      9  C   UNL     1      49.211   7.479  14.195  0.00  0.00    +0.000 C 
BRANCH   8  11
ATOM     10  C   UNL     1      50.491   9.288  12.633  0.00  0.00    +0.000 C 
ATOM     11  C   UNL     1      49.020   8.983  12.295  0.00  0.00    +0.000 C 
BRANCH  11  12
ATOM     12  C   UNL     1      48.193  10.295  12.513  0.00  0.00    +0.000 C 
BRANCH  12  13
ATOM     13  C   UNL     1      47.646  11.083  11.337  0.00  0.00    +0.000 A 
ATOM     14  C   UNL     1      46.294  11.393  11.146  0.00  0.00    +0.000 A 
ATOM     15  C   UNL     1      45.862  12.066   9.997  0.00  0.00    +0.000 A 
ATOM     16  C   UNL     1      46.773  12.436   9.010  0.00  0.00    +0.000 A 
ATOM     17  C   UNL     1      48.113  12.121   9.184  0.00  0.00    +0.000 A 
ATOM     18  C   UNL     1      48.550  11.454  10.325  0.00  0.00    +0.000 A 
BRANCH  17  19
ATOM     19  O   UNL     1      49.050  12.439   8.244  0.00  0.00    +0.000 OA
ATOM     20  H   UNL     1      49.774  12.913   8.685  0.00  0.00    +0.000 HD
ENDBRANCH  17  19
ENDBRANCH  12  13
ENDBRANCH  11  12
ENDBRANCH   8  11
ENDBRANCH   7   8
ENDBRANCH   1   7
BRANCH   4  21
ATOM     21  C   UNL     1      43.858   3.448  11.180  0.00  0.00    +0.000 C 
BRANCH  21  22
ATOM     22  N   UNL     1      44.713   2.388  10.667  0.00  0.00    +0.000 NA
ATOM     23  H   UNL     1      44.620   1.557  11.251  0.00  0.00    +0.000 HD
BRANCH  22  24
ATOM     24  C   UNL     1      44.368   2.060   9.287  0.00  0.00    +0.000 C 
BRANCH  24  25
ATOM     25  C   UNL     1      45.562   2.165   8.364  0.00  0.00    +0.000 A 
ATOM     26  C   UNL     1      45.874   3.387   7.764  0.00  0.00    +0.000 A 
ATOM     27  C   UNL     1      46.979   3.461   6.926  0.00  0.00    +0.000 A 
ATOM     28  C   UNL     1      47.739   2.318   6.705  0.00  0.00    +0.000 A 
ATOM     29  C   UNL     1      47.361   1.143   7.336  0.00  0.00    +0.000 A 
ATOM     30  N   UNL     1      46.294   1.041   8.158  0.00  0.00    +0.000 NA
ENDBRANCH  24  25
ENDBRANCH  22  24
ENDBRANCH  21  22
ENDBRANCH   4  21
TORSDOF 10
ENDMDL
MODEL 6
REMARK VINA RESULT:    -6.589      2.556      8.804
REMARK INTER + INTRA:         -11.244
REMARK INTER:                 -10.604
REMARK INTRA:                  -0.640
REMARK UNBOUND:                -0.996
REMARK  Name = 
REMARK  12 active torsions:
REMARK  status: ('A' for Active; 'I' for Inactive)
REMARK    1  A    between atoms: C_1  and  C_2
REMARK    2  A    between atoms: C_2  and  C_3
REMARK    3  A    between atoms: C_2  and  N_11
REMARK    4  A    between atoms: C_3  and  C_4
REMARK    5  A    between atoms: C_8  and  O_9
REMARK    6  A    between atoms: N_11  and  C_12
REMARK    7  A    between atoms: N_11  and  C_13
REMARK    8  A    between atoms: C_13  and  C_14
REMARK    9  A    between atoms: C_17  and  C_18
REMARK   10  A    between atoms: C_18  and  N_19
REMARK   11  A    between atoms: N_19  and  C_20
REMARK   12  A    between atoms: C_20  and  C_21
REMARK                            x       y       z     vdW  Elec       q    Type
REMARK                         _______ _______ _______ _____ _____    ______ ____
ROOT
ATOM      1  C   UNL     1      46.472   6.519  12.062  0.00  0.00    +0.000 A 
ATOM      2  C   UNL     1      47.288   5.882  12.999  0.00  0.00    +0.000 A 
ATOM      3  C   UNL     1      47.884   6.606  14.025  0.00  0.00    +0.000 A 
ATOM      4  C   UNL     1      47.732   7.987  14.045  0.00  0.00    +0.000 A 
ATOM      5  N   UNL     1      46.996   8.643  13.111  0.00  0.00    +0.000 NA
ATOM      6  C   UNL     1      46.372   7.903  12.166  0.00  0.00    +0.000 A 
ENDROOT
BRANCH   1   7
ATOM      7  C   UNL     1      45.790   5.771  10.938  0.00  0.00    +0.000 C 
BRANCH   7   8
ATOM      8  N   UNL     1      44.388   5.339  11.166  0.00  0.00    +0.000 NA
ATOM      9  C   UNL     1      43.816   5.941  12.378  0.00  0.00    +0.000 C 
BRANCH   8  11
ATOM     10  C   UNL     1      45.450   3.137  11.904  0.00  0.00    +0.000 C 
ATOM     11  C   UNL     1      44.267   3.851  11.223  0.00  0.00    +0.000 C 
BRANCH  11  12
ATOM     12  C   UNL     1      44.003   3.145   9.851  0.00  0.00    +0.000 C 
BRANCH  12  13
ATOM     13  C   UNL     1      45.131   2.901   8.863  0.00  0.00    +0.000 A 
ATOM     14  C   UNL     1      45.687   3.881   8.032  0.00  0.00    +0.000 A 
ATOM     15  C   UNL     1      46.679   3.559   7.098  0.00  0.00    +0.000 A 
ATOM     16  C   UNL     1      47.129   2.247   6.970  0.00  0.00    +0.000 A 
ATOM     17  C   UNL     1      46.574   1.266   7.780  0.00  0.00    +0.000 A 
ATOM     18  C   UNL     1      45.588   1.580   8.712  0.00  0.00    +0.000 A 
BRANCH  17  19
ATOM     19  O   UNL     1      46.958  -0.040   7.687  0.00  0.00    +0.000 OA
ATOM     20  H   UNL     1      46.354  -0.492   7.077  0.00  0.00    +0.000 HD
ENDBRANCH  17  19
ENDBRANCH  12  13
ENDBRANCH  11  12
ENDBRANCH   8  11
ENDBRANCH   7   8
ENDBRANCH   1   7
BRANCH   4  21
ATOM     21  C   UNL     1      48.453   8.802  15.094  0.00  0.00    +0.000 C 
BRANCH  21  22
ATOM     22  N   UNL     1      48.092   8.428  16.453  0.00  0.00    +0.000 NA
ATOM     23  H   UNL     1      47.365   7.713  16.433  0.00  0.00    +0.000 HD
BRANCH  22  24
ATOM     24  C   UNL     1      49.252   7.931  17.186  0.00  0.00    +0.000 C 
BRANCH  24  25
ATOM     25  C   UNL     1      49.015   6.547  17.751  0.00  0.00    +0.000 A 
ATOM     26  C   UNL     1      49.488   5.426  17.067  0.00  0.00    +0.000 A 
ATOM     27  C   UNL     1      49.265   4.165  17.608  0.00  0.00    +0.000 A 
ATOM     28  C   UNL     1      48.575   4.058  18.811  0.00  0.00    +0.000 A 
ATOM     29  C   UNL     1      48.137   5.220  19.424  0.00  0.00    +0.000 A 
ATOM     30  N   UNL     1      48.340   6.458  18.924  0.00  0.00    +0.000 NA
ENDBRANCH  24  25
ENDBRANCH  22  24
ENDBRANCH  21  22
ENDBRANCH   4  21
TORSDOF 10
ENDMDL
MODEL 7
REMARK VINA RESULT:    -6.573      1.835      2.595
REMARK INTER + INTRA:         -11.220
REMARK INTER:                 -10.004
REMARK INTRA:                  -1.216
REMARK UNBOUND:                -0.996
REMARK  Name = 
REMARK  12 active torsions:
REMARK  status: ('A' for Active; 'I' for Inactive)
REMARK    1  A    between atoms: C_1  and  C_2
REMARK    2  A    between atoms: C_2  and  C_3
REMARK    3  A    between atoms: C_2  and  N_11
REMARK    4  A    between atoms: C_3  and  C_4
REMARK    5  A    between atoms: C_8  and  O_9
REMARK    6  A    between atoms: N_11  and  C_12
REMARK    7  A    between atoms: N_11  and  C_13
REMARK    8  A    between atoms: C_13  and  C_14
REMARK    9  A    between atoms: C_17  and  C_18
REMARK   10  A    between atoms: C_18  and  N_19
REMARK   11  A    between atoms: N_19  and  C_20
REMARK   12  A    between atoms: C_20  and  C_21
REMARK                            x       y       z     vdW  Elec       q    Type
REMARK                         _______ _______ _______ _____ _____    ______ ____
ROOT
ATOM      1  C   UNL     1      48.183   8.199  13.370  0.00  0.00    +0.000 A 
ATOM      2  C   UNL     1      48.261   7.028  12.612  0.00  0.00    +0.000 A 
ATOM      3  C   UNL     1      47.132   6.518  11.983  0.00  0.00    +0.000 A 
ATOM      4  C   UNL     1      45.907   7.138  12.198  0.00  0.00    +0.000 A 
ATOM      5  N   UNL     1      45.788   8.242  12.981  0.00  0.00    +0.000 NA
ATOM      6  C   UNL     1      46.917   8.755  13.524  0.00  0.00    +0.000 A 
ENDROOT
BRANCH   1   7
ATOM      7  C   UNL     1      49.387   8.799  14.060  0.00  0.00    +0.000 C 
BRANCH   7   8
ATOM      8  N   UNL     1      49.453   8.672  15.538  0.00  0.00    +0.000 NA
ATOM      9  C   UNL     1      49.355   9.976  16.208  0.00  0.00    +0.000 C 
BRANCH   8  11
ATOM     10  C   UNL     1      51.812   7.908  14.928  0.00  0.00    +0.000 C 
ATOM     11  C   UNL     1      50.687   7.956  15.980  0.00  0.00    +0.000 C 
BRANCH  11  12
ATOM     12  C   UNL     1      50.465   6.500  16.514  0.00  0.00    +0.000 C 
BRANCH  12  13
ATOM     13  C   UNL     1      49.211   6.129  17.285  0.00  0.00    +0.000 A 
ATOM     14  C   UNL     1      48.811   6.725  18.488  0.00  0.00    +0.000 A 
ATOM     15  C   UNL     1      47.676   6.277  19.174  0.00  0.00    +0.000 A 
ATOM     16  C   UNL     1      46.921   5.217  18.675  0.00  0.00    +0.000 A 
ATOM     17  C   UNL     1      47.318   4.612  17.491  0.00  0.00    +0.000 A 
ATOM     18  C   UNL     1      48.445   5.054  16.803  0.00  0.00    +0.000 A 
BRANCH  17  19
ATOM     19  O   UNL     1      46.632   3.557  16.962  0.00  0.00    +0.000 OA
ATOM     20  H   UNL     1      47.270   2.862  16.737  0.00  0.00    +0.000 HD
ENDBRANCH  17  19
ENDBRANCH  12  13
ENDBRANCH  11  12
ENDBRANCH   8  11
ENDBRANCH   7   8
ENDBRANCH   1   7
BRANCH   4  21
ATOM     21  C   UNL     1      44.653   6.541  11.604  0.00  0.00    +0.000 C 
BRANCH  21  22
ATOM     22  N   UNL     1      44.860   5.994  10.271  0.00  0.00    +0.000 NA
ATOM     23  H   UNL     1      45.854   6.009  10.042  0.00  0.00    +0.000 HD
BRANCH  22  24
ATOM     24  C   UNL     1      44.355   4.627  10.182  0.00  0.00    +0.000 C 
BRANCH  24  25
ATOM     25  C   UNL     1      45.152   3.791   9.205  0.00  0.00    +0.000 A 
ATOM     26  C   UNL     1      45.178   2.401   9.338  0.00  0.00    +0.000 A 
ATOM     27  C   UNL     1      45.911   1.653   8.425  0.00  0.00    +0.000 A 
ATOM     28  C   UNL     1      46.601   2.308   7.411  0.00  0.00    +0.000 A 
ATOM     29  C   UNL     1      46.525   3.691   7.351  0.00  0.00    +0.000 A 
ATOM     30  N   UNL     1      45.820   4.444   8.222  0.00  0.00    +0.000 NA
ENDBRANCH  24  25
ENDBRANCH  22  24
ENDBRANCH  21  22
ENDBRANCH   4  21
TORSDOF 10
ENDMDL
MODEL 8
REMARK VINA RESULT:    -6.532      3.441      5.001
REMARK INTER + INTRA:         -11.156
REMARK INTER:                 -10.189
REMARK INTRA:                  -0.966
REMARK UNBOUND:                -0.996
REMARK  Name = 
REMARK  12 active torsions:
REMARK  status: ('A' for Active; 'I' for Inactive)
REMARK    1  A    between atoms: C_1  and  C_2
REMARK    2  A    between atoms: C_2  and  C_3
REMARK    3  A    between atoms: C_2  and  N_11
REMARK    4  A    between atoms: C_3  and  C_4
REMARK    5  A    between atoms: C_8  and  O_9
REMARK    6  A    between atoms: N_11  and  C_12
REMARK    7  A    between atoms: N_11  and  C_13
REMARK    8  A    between atoms: C_13  and  C_14
REMARK    9  A    between atoms: C_17  and  C_18
REMARK   10  A    between atoms: C_18  and  N_19
REMARK   11  A    between atoms: N_19  and  C_20
REMARK   12  A    between atoms: C_20  and  C_21
REMARK                            x       y       z     vdW  Elec       q    Type
REMARK                         _______ _______ _______ _____ _____    ______ ____
ROOT
ATOM      1  C   UNL     1      46.266   7.297  12.817  0.00  0.00    +0.000 A 
ATOM      2  C   UNL     1      45.095   7.391  12.062  0.00  0.00    +0.000 A 
ATOM      3  C   UNL     1      44.369   6.250  11.740  0.00  0.00    +0.000 A 
ATOM      4  C   UNL     1      44.878   5.008  12.101  0.00  0.00    +0.000 A 
ATOM      5  N   UNL     1      46.046   4.881  12.782  0.00  0.00    +0.000 NA
ATOM      6  C   UNL     1      46.694   6.014  13.140  0.00  0.00    +0.000 A 
ENDROOT
BRANCH   1   7
ATOM      7  C   UNL     1      47.080   8.511  13.204  0.00  0.00    +0.000 C 
BRANCH   7   8
ATOM      8  N   UNL     1      48.380   8.267  13.878  0.00  0.00    +0.000 NA
ATOM      9  C   UNL     1      48.348   8.658  15.294  0.00  0.00    +0.000 C 
BRANCH   8  11
ATOM     10  C   UNL     1      49.524  10.486  13.342  0.00  0.00    +0.000 C 
ATOM     11  C   UNL     1      49.507   8.954  13.179  0.00  0.00    +0.000 C 
BRANCH  11  12
ATOM     12  C   UNL     1      49.649   8.631  11.653  0.00  0.00    +0.000 C 
BRANCH  12  13
ATOM     13  C   UNL     1      51.012   8.569  10.987  0.00  0.00    +0.000 A 
ATOM     14  C   UNL     1      51.770   9.689  10.621  0.00  0.00    +0.000 A 
ATOM     15  C   UNL     1      52.989   9.547   9.946  0.00  0.00    +0.000 A 
ATOM     16  C   UNL     1      53.470   8.281   9.616  0.00  0.00    +0.000 A 
ATOM     17  C   UNL     1      52.719   7.167   9.962  0.00  0.00    +0.000 A 
ATOM     18  C   UNL     1      51.507   7.302  10.634  0.00  0.00    +0.000 A 
BRANCH  17  19
ATOM     19  O   UNL     1      53.127   5.904   9.648  0.00  0.00    +0.000 OA
ATOM     20  H   UNL     1      52.533   5.275  10.086  0.00  0.00    +0.000 HD
ENDBRANCH  17  19
ENDBRANCH  12  13
ENDBRANCH  11  12
ENDBRANCH   8  11
ENDBRANCH   7   8
ENDBRANCH   1   7
BRANCH   4  21
ATOM     21  C   UNL     1      44.154   3.752  11.674  0.00  0.00    +0.000 C 
BRANCH  21  22
ATOM     22  N   UNL     1      45.011   2.816  10.961  0.00  0.00    +0.000 NA
ATOM     23  H   UNL     1      45.150   1.978  11.525  0.00  0.00    +0.000 HD
BRANCH  22  24
ATOM     24  C   UNL     1      44.431   2.453   9.672  0.00  0.00    +0.000 C 
BRANCH  24  25
ATOM     25  C   UNL     1      45.469   2.416   8.573  0.00  0.00    +0.000 A 
ATOM     26  C   UNL     1      45.721   3.561   7.814  0.00  0.00    +0.000 A 
ATOM     27  C   UNL     1      46.685   3.506   6.814  0.00  0.00    +0.000 A 
ATOM     28  C   UNL     1      47.365   2.313   6.595  0.00  0.00    +0.000 A 
ATOM     29  C   UNL     1      47.053   1.222   7.390  0.00  0.00    +0.000 A 
ATOM     30  N   UNL     1      46.124   1.246   8.370  0.00  0.00    +0.000 NA
ENDBRANCH  24  25
ENDBRANCH  22  24
ENDBRANCH  21  22
ENDBRANCH   4  21
TORSDOF 10
ENDMDL
MODEL 9
REMARK VINA RESULT:    -6.389      2.132      2.900
REMARK INTER + INTRA:         -10.934
REMARK INTER:                 -10.070
REMARK INTRA:                  -0.864
REMARK UNBOUND:                -0.996
REMARK  Name = 
REMARK  12 active torsions:
REMARK  status: ('A' for Active; 'I' for Inactive)
REMARK    1  A    between atoms: C_1  and  C_2
REMARK    2  A    between atoms: C_2  and  C_3
REMARK    3  A    between atoms: C_2  and  N_11
REMARK    4  A    between atoms: C_3  and  C_4
REMARK    5  A    between atoms: C_8  and  O_9
REMARK    6  A    between atoms: N_11  and  C_12
REMARK    7  A    between atoms: N_11  and  C_13
REMARK    8  A    between atoms: C_13  and  C_14
REMARK    9  A    between atoms: C_17  and  C_18
REMARK   10  A    between atoms: C_18  and  N_19
REMARK   11  A    between atoms: N_19  and  C_20
REMARK   12  A    between atoms: C_20  and  C_21
REMARK                            x       y       z     vdW  Elec       q    Type
REMARK                         _______ _______ _______ _____ _____    ______ ____
ROOT
ATOM      1  C   UNL     1      47.054   5.785  13.199  0.00  0.00    +0.000 A 
ATOM      2  C   UNL     1      46.357   6.182  12.055  0.00  0.00    +0.000 A 
ATOM      3  C   UNL     1      45.325   5.399  11.551  0.00  0.00    +0.000 A 
ATOM      4  C   UNL     1      45.062   4.172  12.148  0.00  0.00    +0.000 A 
ATOM      5  N   UNL     1      45.765   3.730  13.222  0.00  0.00    +0.000 NA
ATOM      6  C   UNL     1      46.718   4.546  13.732  0.00  0.00    +0.000 A 
ENDROOT
BRANCH   1   7
ATOM      7  C   UNL     1      48.174   6.611  13.792  0.00  0.00    +0.000 C 
BRANCH   7   8
ATOM      8  N   UNL     1      48.655   7.768  12.996  0.00  0.00    +0.000 NA
ATOM      9  C   UNL     1      49.931   7.483  12.325  0.00  0.00    +0.000 C 
BRANCH   8  11
ATOM     10  C   UNL     1      50.202   9.308  14.322  0.00  0.00    +0.000 C 
ATOM     11  C   UNL     1      48.775   9.004  13.827  0.00  0.00    +0.000 C 
BRANCH  11  12
ATOM     12  C   UNL     1      47.811   9.081  15.059  0.00  0.00    +0.000 C 
BRANCH  12  13
ATOM     13  C   UNL     1      48.351   9.170  16.475  0.00  0.00    +0.000 A 
ATOM     14  C   UNL     1      48.509  10.361  17.194  0.00  0.00    +0.000 A 
ATOM     15  C   UNL     1      49.081  10.364  18.472  0.00  0.00    +0.000 A 
ATOM     16  C   UNL     1      49.514   9.174  19.054  0.00  0.00    +0.000 A 
ATOM     17  C   UNL     1      49.374   7.991  18.344  0.00  0.00    +0.000 A 
ATOM     18  C   UNL     1      48.805   7.981  17.073  0.00  0.00    +0.000 A 
BRANCH  17  19
ATOM     19  O   UNL     1      49.798   6.797  18.852  0.00  0.00    +0.000 OA
ATOM     20  H   UNL     1      49.398   6.085  18.329  0.00  0.00    +0.000 HD
ENDBRANCH  17  19
ENDBRANCH  12  13
ENDBRANCH  11  12
ENDBRANCH   8  11
ENDBRANCH   7   8
ENDBRANCH   1   7
BRANCH   4  21
ATOM     21  C   UNL     1      44.011   3.263  11.554  0.00  0.00    +0.000 C 
BRANCH  21  22
ATOM     22  N   UNL     1      44.552   2.333  10.573  0.00  0.00    +0.000 NA
ATOM     23  H   UNL     1      44.090   1.428  10.665  0.00  0.00    +0.000 HD
BRANCH  22  24
ATOM     24  C   UNL     1      44.374   2.840   9.216  0.00  0.00    +0.000 C 
BRANCH  24  25
ATOM     25  C   UNL     1      45.542   2.488   8.322  0.00  0.00    +0.000 A 
ATOM     26  C   UNL     1      46.112   3.465   7.504  0.00  0.00    +0.000 A 
ATOM     27  C   UNL     1      47.189   3.120   6.695  0.00  0.00    +0.000 A 
ATOM     28  C   UNL     1      47.663   1.813   6.721  0.00  0.00    +0.000 A 
ATOM     29  C   UNL     1      47.038   0.902   7.559  0.00  0.00    +0.000 A 
ATOM     30  N   UNL     1      45.993   1.209   8.357  0.00  0.00    +0.000 NA
ENDBRANCH  24  25
ENDBRANCH  22  24
ENDBRANCH  21  22
ENDBRANCH   4  21
TORSDOF 10
ENDMDL
