MODEL 1
REMARK VINA RESULT:    -7.516      0.000      0.000
REMARK INTER + INTRA:         -11.281
REMARK INTER:                 -10.812
REMARK INTRA:                  -0.470
REMARK UNBOUND:                -0.470
REMARK  Name = 
REMARK  10 active torsions:
REMARK  status: ('A' for Active; 'I' for Inactive)
REMARK    1  A    between atoms: C_1  and  C_2
REMARK    2  A    between atoms: C_2  and  C_3
REMARK    3  A    between atoms: C_3  and  C_4
REMARK    4  A    between atoms: C_3  and  C_16
REMARK    5  A    between atoms: C_4  and  O_5
REMARK    6  A    between atoms: O_5  and  C_6
REMARK    7  A    between atoms: CA_9  and  C_10
REMARK    8  A    between atoms: C_10  and  OXT_12
REMARK    9  A    between atoms: C_13  and  C_14
REMARK   10  A    between atoms: C_20  and  C_21
REMARK                            x       y       z     vdW  Elec       q    Type
REMARK                         _______ _______ _______ _____ _____    ______ ____
ROOT
ATOM      1  C   UNL     1      44.619   3.537  11.505  0.00  0.00    +0.000 C 
ENDROOT
BRANCH   1   2
ATOM      2  C   UNL     1      44.659   5.057  11.772  0.00  0.00    +0.000 C 
BRANCH   2   3
ATOM      3  C   UNL     1      46.003   5.527  12.318  0.00  0.00    +0.000 A 
ATOM      4  C   UNL     1      46.576   4.892  13.422  0.00  0.00    +0.000 A 
ATOM      5  N   UNL     1      47.735   5.275  14.011  0.00  0.00    +0.000 NA
ATOM      6  C   UNL     1      48.377   6.338  13.477  0.00  0.00    +0.000 A 
ATOM      7  C   UNL     1      47.921   7.019  12.363  0.00  0.00    +0.000 A 
ATOM      8  C   UNL     1      46.723   6.601  11.775  0.00  0.00    +0.000 A 
BRANCH   7   9
ATOM      9  C   UNL     1      48.650   8.127  11.840  0.00  0.00    +0.000 C 
ATOM     10  N   UNL     1      49.241   9.038  11.428  0.00  0.00    +0.000 NA
ENDBRANCH   7   9
ENDBRANCH   2   3
BRANCH   2  12
ATOM     11  C   UNL     1      42.162   5.752  11.895  0.00  0.00    +0.000 C 
ATOM     12  C   UNL     1      43.469   5.521  12.646  0.00  0.00    +0.000 C 
ENDBRANCH   2  12
ENDBRANCH   1   2
BRANCH   1  13
ATOM     13  O   UNL     1      44.033   3.259  10.222  0.00  0.00    +0.000 OA
BRANCH  13  14
ATOM     14  C   UNL     1      44.924   2.957   9.227  0.00  0.00    +0.000 A 
ATOM     15  C   UNL     1      45.364   3.987   8.404  0.00  0.00    +0.000 A 
ATOM     16  N   UNL     1      46.234   3.829   7.368  0.00  0.00    +0.000 NA
ATOM     17  CA  UNL     1      46.677   2.551   7.120  0.00  0.00    +0.000 A 
ATOM     18  C   UNL     1      46.289   1.449   7.881  0.00  0.00    +0.000 A 
ATOM     19  C   UNL     1      46.699   0.020   7.685  0.00  0.00    +0.000 C 
ATOM     20  C   UNL     1      45.387   1.682   8.935  0.00  0.00    +0.000 A 
BRANCH  17  21
ATOM     21  C   UNL     1      47.610   2.468   5.938  0.00  0.00    +0.000 C 
ATOM     22  O   UNL     1      48.521   1.670   5.790  0.00  0.00    +0.000 OA
BRANCH  21  23
ATOM     23  OXT UNL     1      47.317   3.420   5.016  0.00  0.00    +0.000 OA
ATOM     24  HXT UNL     1      47.978   3.377   4.287  0.00  0.00    +0.000 HD
ENDBRANCH  21  23
ENDBRANCH  17  21
ENDBRANCH  13  14
ENDBRANCH   1  13
TORSDOF 8
ENDMDL
MODEL 2
REMARK VINA RESULT:    -7.072      3.259      7.346
REMARK INTER + INTRA:         -10.642
REMARK INTER:                  -9.986
REMARK INTRA:                  -0.656
REMARK UNBOUND:                -0.470
REMARK  Name = 
REMARK  10 active torsions:
REMARK  status: ('A' for Active; 'I' for Inactive)
REMARK    1  A    between atoms: C_1  and  C_2
REMARK    2  A    between atoms: C_2  and  C_3
REMARK    3  A    between atoms: C_3  and  C_4
REMARK    4  A    between atoms: C_3  and  C_16
REMARK    5  A    between atoms: C_4  and  O_5
REMARK    6  A    between atoms: O_5  and  C_6
REMARK    7  A    between atoms: CA_9  and  C_10
REMARK    8  A    between atoms: C_10  and  OXT_12
REMARK    9  A    between atoms: C_13  and  C_14
REMARK   10  A    between atoms: C_20  and  C_21
REMARK                            x       y       z     vdW  Elec       q    Type
REMARK                         _______ _______ _______ _____ _____    ______ ____
ROOT
ATOM      1  C   UNL     1      44.952   3.893  12.181  0.00  0.00    +0.000 C 
ENDROOT
BRANCH   1   2
ATOM      2  C   UNL     1      44.114   3.794  10.888  0.00  0.00    +0.000 C 
BRANCH   2   3
ATOM      3  C   UNL     1      44.957   3.464   9.661  0.00  0.00    +0.000 A 
ATOM      4  C   UNL     1      45.336   4.473   8.775  0.00  0.00    +0.000 A 
ATOM      5  N   UNL     1      46.034   4.267   7.631  0.00  0.00    +0.000 NA
ATOM      6  C   UNL     1      46.391   2.995   7.346  0.00  0.00    +0.000 A 
ATOM      7  C   UNL     1      46.101   1.923   8.171  0.00  0.00    +0.000 A 
ATOM      8  C   UNL     1      45.382   2.165   9.344  0.00  0.00    +0.000 A 
BRANCH   7   9
ATOM      9  C   UNL     1      46.515   0.605   7.819  0.00  0.00    +0.000 C 
ATOM     10  N   UNL     1      46.845  -0.475   7.546  0.00  0.00    +0.000 NA
ENDBRANCH   7   9
ENDBRANCH   2   3
BRANCH   2  12
ATOM     11  C   UNL     1      42.472   5.521  11.916  0.00  0.00    +0.000 C 
ATOM     12  C   UNL     1      43.226   5.043  10.678  0.00  0.00    +0.000 C 
ENDBRANCH   2  12
ENDBRANCH   1   2
BRANCH   1  13
ATOM     13  O   UNL     1      45.917   4.954  12.083  0.00  0.00    +0.000 OA
BRANCH  13  14
ATOM     14  C   UNL     1      46.668   5.166  13.209  0.00  0.00    +0.000 A 
ATOM     15  C   UNL     1      47.656   6.142  13.165  0.00  0.00    +0.000 A 
ATOM     16  N   UNL     1      48.486   6.447  14.201  0.00  0.00    +0.000 NA
ATOM     17  CA  UNL     1      48.336   5.711  15.352  0.00  0.00    +0.000 A 
ATOM     18  C   UNL     1      47.381   4.704  15.495  0.00  0.00    +0.000 A 
ATOM     19  C   UNL     1      47.148   3.838  16.696  0.00  0.00    +0.000 C 
ATOM     20  C   UNL     1      46.558   4.440  14.386  0.00  0.00    +0.000 A 
BRANCH  17  21
ATOM     21  C   UNL     1      49.316   6.096  16.433  0.00  0.00    +0.000 C 
ATOM     22  O   UNL     1      50.478   5.734  16.518  0.00  0.00    +0.000 OA
BRANCH  21  23
ATOM     23  OXT UNL     1      48.741   6.925  17.341  0.00  0.00    +0.000 OA
ATOM     24  HXT UNL     1      47.786   6.699  17.422  0.00  0.00    +0.000 HD
ENDBRANCH  21  23
ENDBRANCH  17  21
ENDBRANCH  13  14
ENDBRANCH   1  13
TORSDOF 8
ENDMDL
MODEL 3
REMARK VINA RESULT:    -6.958      1.801      2.413
REMARK INTER + INTRA:         -10.479
REMARK INTER:                 -10.129
REMARK INTRA:                  -0.350
REMARK UNBOUND:                -0.470
REMARK  Name = 
REMARK  10 active torsions:
REMARK  status: ('A' for Active; 'I' for Inactive)
REMARK    1  A    between atoms: C_1  and  C_2
REMARK    2  A    between atoms: C_2  and  C_3
REMARK    3  A    between atoms: C_3  and  C_4
REMARK    4  A    between atoms: C_3  and  C_16
REMARK    5  A    between atoms: C_4  and  O_5
REMARK    6  A    between atoms: O_5  and  C_6
REMARK    7  A    between atoms: CA_9  and  C_10
REMARK    8  A    between atoms: C_10  and  OXT_12
REMARK    9  A    between atoms: C_13  and  C_14
REMARK   10  A    between atoms: C_20  and  C_21
REMARK                            x       y       z     vdW  Elec       q    Type
REMARK                         _______ _______ _______ _____ _____    ______ ____
ROOT
ATOM      1  C   UNL     1      44.013   4.909  11.233  0.00  0.00    +0.000 C 
ENDROOT
BRANCH   1   2
ATOM      2  C   UNL     1      45.344   5.687  11.317  0.00  0.00    +0.000 C 
BRANCH   2   3
ATOM      3  C   UNL     1      46.134   5.373  12.583  0.00  0.00    +0.000 A 
ATOM      4  C   UNL     1      45.916   4.178  13.271  0.00  0.00    +0.000 A 
ATOM      5  N   UNL     1      46.527   3.839  14.432  0.00  0.00    +0.000 NA
ATOM      6  C   UNL     1      47.414   4.722  14.943  0.00  0.00    +0.000 A 
ATOM      7  C   UNL     1      47.735   5.918  14.327  0.00  0.00    +0.000 A 
ATOM      8  C   UNL     1      47.091   6.240  13.130  0.00  0.00    +0.000 A 
BRANCH   7   9
ATOM      9  C   UNL     1      48.689   6.802  14.912  0.00  0.00    +0.000 C 
ATOM     10  N   UNL     1      49.463   7.516  15.402  0.00  0.00    +0.000 NA
ENDBRANCH   7   9
ENDBRANCH   2   3
BRANCH   2  12
ATOM     11  C   UNL     1      43.709   7.702  11.297  0.00  0.00    +0.000 C 
ATOM     12  C   UNL     1      45.140   7.206  11.108  0.00  0.00    +0.000 C 
ENDBRANCH   2  12
ENDBRANCH   1   2
BRANCH   1  13
ATOM     13  O   UNL     1      43.656   4.655   9.863  0.00  0.00    +0.000 OA
BRANCH  13  14
ATOM     14  C   UNL     1      44.473   3.778   9.201  0.00  0.00    +0.000 A 
ATOM     15  C   UNL     1      44.655   2.513   9.745  0.00  0.00    +0.000 A 
ATOM     16  N   UNL     1      45.449   1.547   9.204  0.00  0.00    +0.000 NA
ATOM     17  CA  UNL     1      46.126   1.875   8.053  0.00  0.00    +0.000 A 
ATOM     18  C   UNL     1      46.018   3.120   7.433  0.00  0.00    +0.000 A 
ATOM     19  C   UNL     1      46.722   3.580   6.192  0.00  0.00    +0.000 C 
ATOM     20  C   UNL     1      45.182   4.070   8.046  0.00  0.00    +0.000 A 
BRANCH  17  21
ATOM     21  C   UNL     1      47.003   0.757   7.544  0.00  0.00    +0.000 C 
ATOM     22  O   UNL     1      46.761  -0.436   7.606  0.00  0.00    +0.000 OA
BRANCH  21  23
ATOM     23  OXT UNL     1      48.141   1.244   6.988  0.00  0.00    +0.000 OA
ATOM     24  HXT UNL     1      48.044   2.215   6.855  0.00  0.00    +0.000 HD
ENDBRANCH  21  23
ENDBRANCH  17  21
ENDBRANCH  13  14
ENDBRANCH   1  13
TORSDOF 8
ENDMDL
MODEL 4
REMARK VINA RESULT:    -6.868      1.180      2.422
REMARK INTER + INTRA:         -10.349
REMARK INTER:                 -10.698
REMARK INTRA:                   0.349
REMARK UNBOUND:                -0.470
REMARK  Name = 
REMARK  10 active torsions:
REMARK  status: ('A' for Active; 'I' for Inactive)
REMARK    1  A    between atoms: C_1  and  C_2
REMARK    2  A    between atoms: C_2  and  C_3
REMARK    3  A    between atoms: C_3  and  C_4
REMARK    4  A    between atoms: C_3  and  C_16
REMARK    5  A    between atoms: C_4  and  O_5
REMARK    6  A    between atoms: O_5  and  C_6
REMARK    7  A    between atoms: CA_9  and  C_10
REMARK    8  A    between atoms: C_10  and  OXT_12
REMARK    9  A    between atoms: C_13  and  C_14
REMARK   10  A    between atoms: C_20  and  C_21
REMARK                            x       y       z     vdW  Elec       q    Type
REMARK                         _______ _______ _______ _____ _____    ______ ____
ROOT
ATOM      1  C   UNL     1      44.328   3.666  11.337  0.00  0.00    +0.000 C 
ENDROOT
BRANCH   1   2
ATOM      2  C   UNL     1      45.013   5.046  11.225  0.00  0.00    +0.000 C 
BRANCH   2   3
ATOM      3  C   UNL     1      46.008   5.305  12.351  0.00  0.00    +0.000 A 
ATOM      4  C   UNL     1      47.034   6.237  12.184  0.00  0.00    +0.000 A 
ATOM      5  N   UNL     1      47.996   6.492  13.104  0.00  0.00    +0.000 NA
ATOM      6  C   UNL     1      47.942   5.797  14.262  0.00  0.00    +0.000 A 
ATOM      7  C   UNL     1      46.951   4.876  14.550  0.00  0.00    +0.000 A 
ATOM      8  C   UNL     1      45.970   4.635  13.583  0.00  0.00    +0.000 A 
BRANCH   7   9
ATOM      9  C   UNL     1      46.943   4.183  15.796  0.00  0.00    +0.000 C 
ATOM     10  N   UNL     1      46.925   3.628  16.815  0.00  0.00    +0.000 NA
ENDBRANCH   7   9
ENDBRANCH   2   3
BRANCH   2  12
ATOM     11  C   UNL     1      44.391   7.521  11.696  0.00  0.00    +0.000 C 
ATOM     12  C   UNL     1      43.984   6.191  11.070  0.00  0.00    +0.000 C 
ENDBRANCH   2  12
ENDBRANCH   1   2
BRANCH   1  13
ATOM     13  O   UNL     1      43.814   3.248  10.061  0.00  0.00    +0.000 OA
BRANCH  13  14
ATOM     14  C   UNL     1      44.762   2.949   9.119  0.00  0.00    +0.000 A 
ATOM     15  C   UNL     1      45.205   3.969   8.286  0.00  0.00    +0.000 A 
ATOM     16  N   UNL     1      46.129   3.812   7.298  0.00  0.00    +0.000 NA
ATOM     17  CA  UNL     1      46.629   2.544   7.112  0.00  0.00    +0.000 A 
ATOM     18  C   UNL     1      46.243   1.452   7.889  0.00  0.00    +0.000 A 
ATOM     19  C   UNL     1      46.713   0.034   7.759  0.00  0.00    +0.000 C 
ATOM     20  C   UNL     1      45.284   1.684   8.891  0.00  0.00    +0.000 A 
BRANCH  17  21
ATOM     21  C   UNL     1      47.621   2.459   5.979  0.00  0.00    +0.000 C 
ATOM     22  O   UNL     1      48.531   1.655   5.874  0.00  0.00    +0.000 OA
BRANCH  21  23
ATOM     23  OXT UNL     1      47.382   3.418   5.048  0.00  0.00    +0.000 OA
ATOM     24  HXT UNL     1      48.081   4.109   5.111  0.00  0.00    +0.000 HD
ENDBRANCH  21  23
ENDBRANCH  17  21
ENDBRANCH  13  14
ENDBRANCH   1  13
TORSDOF 8
ENDMDL
MODEL 5
REMARK VINA RESULT:    -6.696      3.445      7.217
REMARK INTER + INTRA:         -10.101
REMARK INTER:                  -9.500
REMARK INTRA:                  -0.601
REMARK UNBOUND:                -0.470
REMARK  Name = 
REMARK  10 active torsions:
REMARK  status: ('A' for Active; 'I' for Inactive)
REMARK    1  A    between atoms: C_1  and  C_2
REMARK    2  A    between atoms: C_2  and  C_3
REMARK    3  A    between atoms: C_3  and  C_4
REMARK    4  A    between atoms: C_3  and  C_16
REMARK    5  A    between atoms: C_4  and  O_5
REMARK    6  A    between atoms: O_5  and  C_6
REMARK    7  A    between atoms: CA_9  and  C_10
REMARK    8  A    between atoms: C_10  and  OXT_12
REMARK    9  A    between atoms: C_13  and  C_14
REMARK   10  A    between atoms: C_20  and  C_21
REMARK                            x       y       z     vdW  Elec       q    Type
REMARK                         _______ _______ _______ _____ _____    ______ ____
ROOT
ATOM      1  C   UNL     1      46.417   7.031  12.383  0.00  0.00    +0.000 C 
ENDROOT
BRANCH   1   2
ATOM      2  C   UNL     1      44.939   6.822  11.984  0.00  0.00    +0.000 C 
BRANCH   2   3
ATOM      3  C   UNL     1      44.736   5.611  11.081  0.00  0.00    +0.000 A 
ATOM      4  C   UNL     1      43.857   4.593  11.455  0.00  0.00    +0.000 A 
ATOM      5  N   UNL     1      43.655   3.455  10.747  0.00  0.00    +0.000 NA
ATOM      6  C   UNL     1      44.350   3.312   9.597  0.00  0.00    +0.000 A 
ATOM      7  C   UNL     1      45.220   4.273   9.111  0.00  0.00    +0.000 A 
ATOM      8  C   UNL     1      45.406   5.437   9.862  0.00  0.00    +0.000 A 
BRANCH   7   9
ATOM      9  C   UNL     1      45.915   4.068   7.884  0.00  0.00    +0.000 C 
ATOM     10  N   UNL     1      46.489   3.888   6.890  0.00  0.00    +0.000 NA
ENDBRANCH   7   9
ENDBRANCH   2   3
BRANCH   2  12
ATOM     11  C   UNL     1      45.027   9.407  11.764  0.00  0.00    +0.000 C 
ATOM     12  C   UNL     1      44.312   8.110  11.399  0.00  0.00    +0.000 C 
ENDBRANCH   2  12
ENDBRANCH   1   2
BRANCH   1  13
ATOM     13  O   UNL     1      47.128   5.782  12.378  0.00  0.00    +0.000 OA
BRANCH  13  14
ATOM     14  C   UNL     1      47.356   5.236  13.613  0.00  0.00    +0.000 A 
ATOM     15  C   UNL     1      47.006   3.907  13.818  0.00  0.00    +0.000 A 
ATOM     16  N   UNL     1      47.161   3.241  14.996  0.00  0.00    +0.000 NA
ATOM     17  CA  UNL     1      47.678   3.957  16.050  0.00  0.00    +0.000 A 
ATOM     18  C   UNL     1      48.052   5.298  15.950  0.00  0.00    +0.000 A 
ATOM     19  C   UNL     1      48.607   6.168  17.036  0.00  0.00    +0.000 C 
ATOM     20  C   UNL     1      47.864   5.924  14.705  0.00  0.00    +0.000 A 
BRANCH  17  21
ATOM     21  C   UNL     1      47.784   3.149  17.319  0.00  0.00    +0.000 C 
ATOM     22  O   UNL     1      48.813   2.857  17.906  0.00  0.00    +0.000 OA
BRANCH  21  23
ATOM     23  OXT UNL     1      46.559   2.762  17.756  0.00  0.00    +0.000 OA
ATOM     24  HXT UNL     1      45.964   3.547  17.779  0.00  0.00    +0.000 HD
ENDBRANCH  21  23
ENDBRANCH  17  21
ENDBRANCH  13  14
ENDBRANCH   1  13
TORSDOF 8
ENDMDL
MODEL 6
REMARK VINA RESULT:    -6.478      4.925      8.123
REMARK INTER + INTRA:          -9.788
REMARK INTER:                  -9.096
REMARK INTRA:                  -0.691
REMARK UNBOUND:                -0.470
REMARK  Name = 
REMARK  10 active torsions:
REMARK  status: ('A' for Active; 'I' for Inactive)
REMARK    1  A    between atoms: C_1  and  C_2
REMARK    2  A    between atoms: C_2  and  C_3
REMARK    3  A    between atoms: C_3  and  C_4
REMARK    4  A    between atoms: C_3  and  C_16
REMARK    5  A    between atoms: C_4  and  O_5
REMARK    6  A    between atoms: O_5  and  C_6
REMARK    7  A    between atoms: CA_9  and  C_10
REMARK    8  A    between atoms: C_10  and  OXT_12
REMARK    9  A    between atoms: C_13  and  C_14
REMARK   10  A    between atoms: C_20  and  C_21
REMARK                            x       y       z     vdW  Elec       q    Type
REMARK                         _______ _______ _______ _____ _____    ______ ____
ROOT
ATOM      1  C   UNL     1      46.697   3.942  14.473  0.00  0.00    +0.000 C 
ENDROOT
BRANCH   1   2
ATOM      2  C   UNL     1      46.347   5.298  13.821  0.00  0.00    +0.000 C 
BRANCH   2   3
ATOM      3  C   UNL     1      45.286   5.175  12.733  0.00  0.00    +0.000 A 
ATOM      4  C   UNL     1      43.939   5.377  13.037  0.00  0.00    +0.000 A 
ATOM      5  N   UNL     1      42.922   5.233  12.152  0.00  0.00    +0.000 NA
ATOM      6  C   UNL     1      43.250   4.881  10.889  0.00  0.00    +0.000 A 
ATOM      7  C   UNL     1      44.554   4.692  10.467  0.00  0.00    +0.000 A 
ATOM      8  C   UNL     1      45.581   4.849  11.401  0.00  0.00    +0.000 A 
BRANCH   7   9
ATOM      9  C   UNL     1      44.834   4.332   9.116  0.00  0.00    +0.000 C 
ATOM     10  N   UNL     1      45.078   4.043   8.018  0.00  0.00    +0.000 NA
ENDBRANCH   7   9
ENDBRANCH   2   3
BRANCH   2  12
ATOM     11  C   UNL     1      48.338   6.859  14.402  0.00  0.00    +0.000 C 
ATOM     12  C   UNL     1      47.611   6.047  13.334  0.00  0.00    +0.000 C 
ENDBRANCH   2  12
ENDBRANCH   1   2
BRANCH   1  13
ATOM     13  O   UNL     1      46.929   4.100  15.883  0.00  0.00    +0.000 OA
BRANCH  13  14
ATOM     14  C   UNL     1      48.108   3.576  16.343  0.00  0.00    +0.000 A 
ATOM     15  C   UNL     1      48.485   2.315  15.895  0.00  0.00    +0.000 A 
ATOM     16  N   UNL     1      49.619   1.667  16.279  0.00  0.00    +0.000 NA
ATOM     17  CA  UNL     1      50.421   2.310  17.192  0.00  0.00    +0.000 A 
ATOM     18  C   UNL     1      50.127   3.573  17.709  0.00  0.00    +0.000 A 
ATOM     19  C   UNL     1      50.923   4.349  18.715  0.00  0.00    +0.000 C 
ATOM     20  C   UNL     1      48.940   4.184  17.271  0.00  0.00    +0.000 A 
BRANCH  17  21
ATOM     21  C   UNL     1      51.636   1.506  17.583  0.00  0.00    +0.000 C 
ATOM     22  O   UNL     1      52.801   1.835  17.431  0.00  0.00    +0.000 OA
BRANCH  21  23
ATOM     23  OXT UNL     1      51.279   0.323  18.144  0.00  0.00    +0.000 OA
ATOM     24  HXT UNL     1      51.468   0.355  19.110  0.00  0.00    +0.000 HD
ENDBRANCH  21  23
ENDBRANCH  17  21
ENDBRANCH  13  14
ENDBRANCH   1  13
TORSDOF 8
ENDMDL
MODEL 7
REMARK VINA RESULT:    -6.439      3.696      7.446
REMARK INTER + INTRA:          -9.731
REMARK INTER:                  -8.940
REMARK INTRA:                  -0.791
REMARK UNBOUND:                -0.470
REMARK  Name = 
REMARK  10 active torsions:
REMARK  status: ('A' for Active; 'I' for Inactive)
REMARK    1  A    between atoms: C_1  and  C_2
REMARK    2  A    between atoms: C_2  and  C_3
REMARK    3  A    between atoms: C_3  and  C_4
REMARK    4  A    between atoms: C_3  and  C_16
REMARK    5  A    between atoms: C_4  and  O_5
REMARK    6  A    between atoms: O_5  and  C_6
REMARK    7  A    between atoms: CA_9  and  C_10
REMARK    8  A    between atoms: C_10  and  OXT_12
REMARK    9  A    between atoms: C_13  and  C_14
REMARK   10  A    between atoms: C_20  and  C_21
REMARK                            x       y       z     vdW  Elec       q    Type
REMARK                         _______ _______ _______ _____ _____    ______ ____
ROOT
ATOM      1  C   UNL     1      44.841   5.109  13.081  0.00  0.00    +0.000 C 
ENDROOT
BRANCH   1   2
ATOM      2  C   UNL     1      44.395   5.581  11.679  0.00  0.00    +0.000 C 
BRANCH   2   3
ATOM      3  C   UNL     1      44.482   4.480  10.629  0.00  0.00    +0.000 A 
ATOM      4  C   UNL     1      43.843   3.256  10.837  0.00  0.00    +0.000 A 
ATOM      5  N   UNL     1      43.911   2.201   9.988  0.00  0.00    +0.000 NA
ATOM      6  C   UNL     1      44.642   2.361   8.862  0.00  0.00    +0.000 A 
ATOM      7  C   UNL     1      45.287   3.541   8.537  0.00  0.00    +0.000 A 
ATOM      8  C   UNL     1      45.197   4.612   9.430  0.00  0.00    +0.000 A 
BRANCH   7   9
ATOM      9  C   UNL     1      46.034   3.650   7.327  0.00  0.00    +0.000 C 
ATOM     10  N   UNL     1      46.644   3.754   6.345  0.00  0.00    +0.000 NA
ENDBRANCH   7   9
ENDBRANCH   2   3
BRANCH   2  12
ATOM     11  C   UNL     1      45.317   7.915  12.344  0.00  0.00    +0.000 C 
ATOM     12  C   UNL     1      45.129   6.873  11.245  0.00  0.00    +0.000 C 
ENDBRANCH   2  12
ENDBRANCH   1   2
BRANCH   1  13
ATOM     13  O   UNL     1      46.163   4.548  13.033  0.00  0.00    +0.000 OA
BRANCH  13  14
ATOM     14  C   UNL     1      46.920   4.740  14.159  0.00  0.00    +0.000 A 
ATOM     15  C   UNL     1      47.776   5.833  14.195  0.00  0.00    +0.000 A 
ATOM     16  N   UNL     1      48.596   6.137  15.240  0.00  0.00    +0.000 NA
ATOM     17  CA  UNL     1      48.578   5.276  16.312  0.00  0.00    +0.000 A 
ATOM     18  C   UNL     1      47.761   4.147  16.370  0.00  0.00    +0.000 A 
ATOM     19  C   UNL     1      47.678   3.143  17.479  0.00  0.00    +0.000 C 
ATOM     20  C   UNL     1      46.940   3.892  15.257  0.00  0.00    +0.000 A 
BRANCH  17  21
ATOM     21  C   UNL     1      49.538   5.674  17.406  0.00  0.00    +0.000 C 
ATOM     22  O   UNL     1      49.251   6.229  18.453  0.00  0.00    +0.000 OA
BRANCH  21  23
ATOM     23  OXT UNL     1      50.812   5.334  17.084  0.00  0.00    +0.000 OA
ATOM     24  HXT UNL     1      51.377   5.409  17.887  0.00  0.00    +0.000 HD
ENDBRANCH  21  23
ENDBRANCH  17  21
ENDBRANCH  13  14
ENDBRANCH   1  13
TORSDOF 8
ENDMDL
MODEL 8
REMARK VINA RESULT:    -6.228      4.626      8.526
REMARK INTER + INTRA:          -9.429
REMARK INTER:                  -8.898
REMARK INTRA:                  -0.531
REMARK UNBOUND:                -0.470
REMARK  Name = 
REMARK  10 active torsions:
REMARK  status: ('A' for Active; 'I' for Inactive)
REMARK    1  A    between atoms: C_1  and  C_2
REMARK    2  A    between atoms: C_2  and  C_3
REMARK    3  A    between atoms: C_3  and  C_4
REMARK    4  A    between atoms: C_3  and  C_16
REMARK    5  A    between atoms: C_4  and  O_5
REMARK    6  A    between atoms: O_5  and  C_6
REMARK    7  A    between atoms: CA_9  and  C_10
REMARK    8  A    between atoms: C_10  and  OXT_12
REMARK    9  A    between atoms: C_13  and  C_14
REMARK   10  A    between atoms: C_20  and  C_21
REMARK                            x       y       z     vdW  Elec       q    Type
REMARK                         _______ _______ _______ _____ _____    ______ ____
ROOT
ATOM      1  C   UNL     1      46.862   4.911  13.750  0.00  0.00    +0.000 C 
ENDROOT
BRANCH   1   2
ATOM      2  C   UNL     1      45.492   5.402  13.234  0.00  0.00    +0.000 C 
BRANCH   2   3
ATOM      3  C   UNL     1      44.975   4.583  12.057  0.00  0.00    +0.000 A 
ATOM      4  C   UNL     1      43.984   3.619  12.250  0.00  0.00    +0.000 A 
ATOM      5  N   UNL     1      43.504   2.805  11.277  0.00  0.00    +0.000 NA
ATOM      6  C   UNL     1      44.021   2.955  10.037  0.00  0.00    +0.000 A 
ATOM      7  C   UNL     1      44.979   3.902   9.724  0.00  0.00    +0.000 A 
ATOM      8  C   UNL     1      45.454   4.728  10.746  0.00  0.00    +0.000 A 
BRANCH   7   9
ATOM      9  C   UNL     1      45.477   4.018   8.393  0.00  0.00    +0.000 C 
ATOM     10  N   UNL     1      45.890   4.098   7.310  0.00  0.00    +0.000 NA
ENDBRANCH   7   9
ENDBRANCH   2   3
BRANCH   2  12
ATOM     11  C   UNL     1      46.877   7.559  12.830  0.00  0.00    +0.000 C 
ATOM     12  C   UNL     1      45.495   6.922  12.942  0.00  0.00    +0.000 C 
ENDBRANCH   2  12
ENDBRANCH   1   2
BRANCH   1  13
ATOM     13  O   UNL     1      46.695   3.900  14.758  0.00  0.00    +0.000 OA
BRANCH  13  14
ATOM     14  C   UNL     1      47.354   4.135  15.935  0.00  0.00    +0.000 A 
ATOM     15  C   UNL     1      47.329   3.145  16.910  0.00  0.00    +0.000 A 
ATOM     16  N   UNL     1      47.926   3.248  18.130  0.00  0.00    +0.000 NA
ATOM     17  CA  UNL     1      48.572   4.430  18.406  0.00  0.00    +0.000 A 
ATOM     18  C   UNL     1      48.647   5.487  17.498  0.00  0.00    +0.000 A 
ATOM     19  C   UNL     1      49.311   6.816  17.706  0.00  0.00    +0.000 C 
ATOM     20  C   UNL     1      48.008   5.314  16.258  0.00  0.00    +0.000 A 
BRANCH  17  21
ATOM     21  C   UNL     1      49.175   4.466  19.788  0.00  0.00    +0.000 C 
ATOM     22  O   UNL     1      50.189   5.057  20.119  0.00  0.00    +0.000 OA
BRANCH  21  23
ATOM     23  OXT UNL     1      48.436   3.737  20.662  0.00  0.00    +0.000 OA
ATOM     24  HXT UNL     1      49.039   3.186  21.212  0.00  0.00    +0.000 HD
ENDBRANCH  21  23
ENDBRANCH  17  21
ENDBRANCH  13  14
ENDBRANCH   1  13
TORSDOF 8
ENDMDL
MODEL 9
REMARK VINA RESULT:    -6.221      4.489      6.897
REMARK INTER + INTRA:          -9.418
REMARK INTER:                  -8.835
REMARK INTRA:                  -0.584
REMARK UNBOUND:                -0.470
REMARK  Name = 
REMARK  10 active torsions:
REMARK  status: ('A' for Active; 'I' for Inactive)
REMARK    1  A    between atoms: C_1  and  C_2
REMARK    2  A    between atoms: C_2  and  C_3
REMARK    3  A    between atoms: C_3  and  C_4
REMARK    4  A    between atoms: C_3  and  C_16
REMARK    5  A    between atoms: C_4  and  O_5
REMARK    6  A    between atoms: O_5  and  C_6
REMARK    7  A    between atoms: CA_9  and  C_10
REMARK    8  A    between atoms: C_10  and  OXT_12
REMARK    9  A    between atoms: C_13  and  C_14
REMARK   10  A    between atoms: C_20  and  C_21
REMARK                            x       y       z     vdW  Elec       q    Type
REMARK                         _______ _______ _______ _____ _____    ______ ____
ROOT
ATOM      1  C   UNL     1      47.361   4.374  16.146  0.00  0.00    +0.000 C 
ENDROOT
BRANCH   1   2
ATOM      2  C   UNL     1      48.430   4.744  17.197  0.00  0.00    +0.000 C 
BRANCH   2   3
ATOM      3  C   UNL     1      49.571   3.734  17.260  0.00  0.00    +0.000 A 
ATOM      4  C   UNL     1      49.380   2.426  16.811  0.00  0.00    +0.000 A 
ATOM      5  N   UNL     1      50.314   1.446  16.881  0.00  0.00    +0.000 NA
ATOM      6  C   UNL     1      51.512   1.774  17.414  0.00  0.00    +0.000 A 
ATOM      7  C   UNL     1      51.824   3.047  17.856  0.00  0.00    +0.000 A 
ATOM      8  C   UNL     1      50.842   4.037  17.770  0.00  0.00    +0.000 A 
BRANCH   7   9
ATOM      9  C   UNL     1      53.112   3.331  18.399  0.00  0.00    +0.000 C 
ATOM     10  N   UNL     1      54.158   3.578  18.837  0.00  0.00    +0.000 NA
ENDBRANCH   7   9
ENDBRANCH   2   3
BRANCH   2  12
ATOM     11  C   UNL     1      47.749   6.488  18.993  0.00  0.00    +0.000 C 
ATOM     12  C   UNL     1      47.805   5.020  18.585  0.00  0.00    +0.000 C 
ENDBRANCH   2  12
ENDBRANCH   1   2
BRANCH   1  13
ATOM     13  O   UNL     1      47.695   4.927  14.862  0.00  0.00    +0.000 OA
BRANCH  13  14
ATOM     14  C   UNL     1      46.745   4.762  13.889  0.00  0.00    +0.000 A 
ATOM     15  C   UNL     1      46.427   3.468  13.496  0.00  0.00    +0.000 A 
ATOM     16  N   UNL     1      45.515   3.156  12.533  0.00  0.00    +0.000 NA
ATOM     17  CA  UNL     1      44.897   4.209  11.901  0.00  0.00    +0.000 A 
ATOM     18  C   UNL     1      45.153   5.543  12.216  0.00  0.00    +0.000 A 
ATOM     19  C   UNL     1      44.547   6.758  11.580  0.00  0.00    +0.000 C 
ATOM     20  C   UNL     1      46.106   5.794  13.219  0.00  0.00    +0.000 A 
BRANCH  17  21
ATOM     21  C   UNL     1      43.929   3.770  10.831  0.00  0.00    +0.000 C 
ATOM     22  O   UNL     1      44.057   3.935   9.629  0.00  0.00    +0.000 OA
BRANCH  21  23
ATOM     23  OXT UNL     1      42.852   3.146  11.372  0.00  0.00    +0.000 OA
ATOM     24  HXT UNL     1      42.487   2.508  10.717  0.00  0.00    +0.000 HD
ENDBRANCH  21  23
ENDBRANCH  17  21
ENDBRANCH  13  14
ENDBRANCH   1  13
TORSDOF 8
ENDMDL
