MODEL 1
REMARK VINA RESULT:    -7.479      0.000      0.000
REMARK INTER + INTRA:         -10.779
REMARK INTER:                  -9.447
REMARK INTRA:                  -1.332
REMARK UNBOUND:                -1.332
REMARK  Name = 
REMARK  5 active torsions:
REMARK  status: ('A' for Active; 'I' for Inactive)
REMARK    1  A    between atoms: C_2  and  C_13
REMARK    2  A    between atoms: N_3  and  C_4
REMARK    3  A    between atoms: C_4  and  C_5
REMARK    4  A    between atoms: C_5  and  C_6
REMARK    5  A    between atoms: C_6  and  O_7
REMARK                            x       y       z     vdW  Elec       q    Type
REMARK                         _______ _______ _______ _____ _____    ______ ____
ROOT
ATOM      1  O   UNL     1      49.215   6.538  13.901  0.00  0.00    +0.000 OA
ATOM      2  C   UNL     1      48.110   6.218  14.331  0.00  0.00    +0.000 C 
ATOM      3  N   UNL     1      47.914   5.776  15.613  0.00  0.00    +0.000 N 
ATOM      4  H   UNL     1      46.967   5.641  15.941  0.00  0.00    +0.000 HD
ENDROOT
BRANCH   2   5
ATOM      5  C   UNL     1      46.913   6.191  13.482  0.00  0.00    +0.000 A 
ATOM      6  C   UNL     1      46.339   7.370  13.026  0.00  0.00    +0.000 A 
ATOM      7  S   UNL     1      45.029   7.118  11.959  0.00  0.00    +0.000 S 
ATOM      8  C   UNL     1      45.150   5.427  12.118  0.00  0.00    +0.000 A 
ATOM      9  N   UNL     1      44.317   4.592  11.434  0.00  0.00    +0.000 NA
ATOM     10  C   UNL     1      44.503   3.337  11.672  0.00  0.00    +0.000 A 
ATOM     11  N   UNL     1      45.440   2.835  12.538  0.00  0.00    +0.000 N 
ATOM     12  C   UNL     1      46.324   3.634  13.215  0.00  0.00    +0.000 A 
ATOM     13  O   UNL     1      47.196   3.146  13.927  0.00  0.00    +0.000 OA
ATOM     14  C   UNL     1      46.166   5.060  12.975  0.00  0.00    +0.000 A 
ATOM     15  H   UNL     1      45.538   1.837  12.675  0.00  0.00    +0.000 HD
ENDBRANCH   2   5
BRANCH   3  16
ATOM     16  C   UNL     1      48.915   5.809  16.658  0.00  0.00    +0.000 C 
BRANCH  16  17
ATOM     17  C   UNL     1      48.602   4.821  17.812  0.00  0.00    +0.000 C 
ATOM     18  C   UNL     1      49.884   4.303  18.519  0.00  0.00    +0.000 C 
ATOM     19  C   UNL     1      50.709   3.351  17.652  0.00  0.00    +0.000 C 
ATOM     20  C   UNL     1      49.844   2.259  17.026  0.00  0.00    +0.000 C 
ATOM     21  N   UNL     1      48.703   2.826  16.309  0.00  0.00    +0.000 NA
ATOM     22  C   UNL     1      47.849   3.609  17.213  0.00  0.00    +0.000 C 
ATOM     23  H   UNL     1      48.153   2.073  15.898  0.00  0.00    +0.000 HD
BRANCH  17  24
ATOM     24  C   UNL     1      47.716   5.517  18.871  0.00  0.00    +0.000 C 
BRANCH  24  25
ATOM     25  O   UNL     1      46.330   5.391  18.583  0.00  0.00    +0.000 OA
ATOM     26  H   UNL     1      46.189   4.499  18.205  0.00  0.00    +0.000 HD
ENDBRANCH  24  25
ENDBRANCH  17  24
ENDBRANCH  16  17
ENDBRANCH   3  16
TORSDOF 5
ENDMDL
MODEL 2
REMARK VINA RESULT:    -6.932      1.972      2.906
REMARK INTER + INTRA:         -10.087
REMARK INTER:                  -9.095
REMARK INTRA:                  -0.993
REMARK UNBOUND:                -1.332
REMARK  Name = 
REMARK  5 active torsions:
REMARK  status: ('A' for Active; 'I' for Inactive)
REMARK    1  A    between atoms: C_2  and  C_13
REMARK    2  A    between atoms: N_3  and  C_4
REMARK    3  A    between atoms: C_4  and  C_5
REMARK    4  A    between atoms: C_5  and  C_6
REMARK    5  A    between atoms: C_6  and  O_7
REMARK                            x       y       z     vdW  Elec       q    Type
REMARK                         _______ _______ _______ _____ _____    ______ ____
ROOT
ATOM      1  O   UNL     1      47.293   3.097  14.071  0.00  0.00    +0.000 OA
ATOM      2  C   UNL     1      46.905   4.164  14.543  0.00  0.00    +0.000 C 
ATOM      3  N   UNL     1      46.770   4.371  15.889  0.00  0.00    +0.000 N 
ATOM      4  H   UNL     1      46.562   5.305  16.219  0.00  0.00    +0.000 HD
ENDROOT
BRANCH   2   5
ATOM      5  C   UNL     1      46.462   5.281  13.700  0.00  0.00    +0.000 A 
ATOM      6  C   UNL     1      47.286   6.378  13.484  0.00  0.00    +0.000 A 
ATOM      7  S   UNL     1      46.633   7.509  12.384  0.00  0.00    +0.000 S 
ATOM      8  C   UNL     1      45.205   6.600  12.207  0.00  0.00    +0.000 A 
ATOM      9  N   UNL     1      44.208   7.006  11.370  0.00  0.00    +0.000 NA
ATOM     10  C   UNL     1      43.172   6.235  11.356  0.00  0.00    +0.000 A 
ATOM     11  N   UNL     1      43.033   5.099  12.109  0.00  0.00    +0.000 N 
ATOM     12  C   UNL     1      44.024   4.632  12.934  0.00  0.00    +0.000 A 
ATOM     13  O   UNL     1      43.893   3.572  13.538  0.00  0.00    +0.000 OA
ATOM     14  C   UNL     1      45.221   5.458  12.978  0.00  0.00    +0.000 A 
ATOM     15  H   UNL     1      42.195   4.534  12.048  0.00  0.00    +0.000 HD
ENDBRANCH   2   5
BRANCH   3  16
ATOM     16  C   UNL     1      47.235   3.461  16.914  0.00  0.00    +0.000 C 
BRANCH  16  17
ATOM     17  C   UNL     1      48.646   3.831  17.442  0.00  0.00    +0.000 C 
ATOM     18  C   UNL     1      48.691   3.956  18.990  0.00  0.00    +0.000 C 
ATOM     19  C   UNL     1      47.945   5.182  19.518  0.00  0.00    +0.000 C 
ATOM     20  C   UNL     1      48.337   6.453  18.767  0.00  0.00    +0.000 C 
ATOM     21  N   UNL     1      48.191   6.286  17.322  0.00  0.00    +0.000 NA
ATOM     22  C   UNL     1      49.044   5.195  16.829  0.00  0.00    +0.000 C 
ATOM     23  H   UNL     1      48.453   7.153  16.853  0.00  0.00    +0.000 HD
BRANCH  17  24
ATOM     24  C   UNL     1      49.665   2.749  17.018  0.00  0.00    +0.000 C 
BRANCH  24  25
ATOM     25  O   UNL     1      49.173   1.926  15.969  0.00  0.00    +0.000 OA
ATOM     26  H   UNL     1      48.653   2.497  15.367  0.00  0.00    +0.000 HD
ENDBRANCH  24  25
ENDBRANCH  17  24
ENDBRANCH  16  17
ENDBRANCH   3  16
TORSDOF 5
ENDMDL
MODEL 3
REMARK VINA RESULT:    -6.837      2.380      6.488
REMARK INTER + INTRA:          -9.968
REMARK INTER:                  -8.943
REMARK INTRA:                  -1.024
REMARK UNBOUND:                -1.332
REMARK  Name = 
REMARK  5 active torsions:
REMARK  status: ('A' for Active; 'I' for Inactive)
REMARK    1  A    between atoms: C_2  and  C_13
REMARK    2  A    between atoms: N_3  and  C_4
REMARK    3  A    between atoms: C_4  and  C_5
REMARK    4  A    between atoms: C_5  and  C_6
REMARK    5  A    between atoms: C_6  and  O_7
REMARK                            x       y       z     vdW  Elec       q    Type
REMARK                         _______ _______ _______ _____ _____    ______ ____
ROOT
ATOM      1  O   UNL     1      47.142   3.126  13.747  0.00  0.00    +0.000 OA
ATOM      2  C   UNL     1      46.776   4.274  13.988  0.00  0.00    +0.000 C 
ATOM      3  N   UNL     1      45.676   4.840  13.399  0.00  0.00    +0.000 N 
ATOM      4  H   UNL     1      45.361   5.743  13.728  0.00  0.00    +0.000 HD
ENDROOT
BRANCH   2   5
ATOM      5  C   UNL     1      47.540   5.177  14.858  0.00  0.00    +0.000 A 
ATOM      6  C   UNL     1      48.217   6.268  14.330  0.00  0.00    +0.000 A 
ATOM      7  S   UNL     1      48.943   7.255  15.520  0.00  0.00    +0.000 S 
ATOM      8  C   UNL     1      48.427   6.225  16.773  0.00  0.00    +0.000 A 
ATOM      9  N   UNL     1      48.702   6.508  18.078  0.00  0.00    +0.000 NA
ATOM     10  C   UNL     1      48.274   5.625  18.919  0.00  0.00    +0.000 A 
ATOM     11  N   UNL     1      47.604   4.480  18.578  0.00  0.00    +0.000 N 
ATOM     12  C   UNL     1      47.271   4.176  17.283  0.00  0.00    +0.000 A 
ATOM     13  O   UNL     1      46.607   3.177  17.021  0.00  0.00    +0.000 OA
ATOM     14  C   UNL     1      47.719   5.143  16.294  0.00  0.00    +0.000 A 
ATOM     15  H   UNL     1      47.290   3.831  19.287  0.00  0.00    +0.000 HD
ENDBRANCH   2   5
BRANCH   3  16
ATOM     16  C   UNL     1      44.715   4.123  12.589  0.00  0.00    +0.000 C 
BRANCH  16  17
ATOM     17  C   UNL     1      43.979   5.047  11.584  0.00  0.00    +0.000 C 
ATOM     18  C   UNL     1      43.753   4.370  10.205  0.00  0.00    +0.000 C 
ATOM     19  C   UNL     1      45.043   4.183   9.405  0.00  0.00    +0.000 C 
ATOM     20  C   UNL     1      45.871   5.465   9.355  0.00  0.00    +0.000 C 
ATOM     21  N   UNL     1      46.111   5.999  10.694  0.00  0.00    +0.000 NA
ATOM     22  C   UNL     1      44.846   6.311  11.373  0.00  0.00    +0.000 C 
ATOM     23  H   UNL     1      46.671   6.848  10.624  0.00  0.00    +0.000 HD
BRANCH  17  24
ATOM     24  C   UNL     1      42.599   5.448  12.155  0.00  0.00    +0.000 C 
BRANCH  24  25
ATOM     25  O   UNL     1      42.569   5.405  13.575  0.00  0.00    +0.000 OA
ATOM     26  H   UNL     1      42.735   4.479  13.844  0.00  0.00    +0.000 HD
ENDBRANCH  24  25
ENDBRANCH  17  24
ENDBRANCH  16  17
ENDBRANCH   3  16
TORSDOF 5
ENDMDL
MODEL 4
REMARK VINA RESULT:    -6.807      1.213      2.201
REMARK INTER + INTRA:          -9.930
REMARK INTER:                  -8.752
REMARK INTRA:                  -1.178
REMARK UNBOUND:                -1.332
REMARK  Name = 
REMARK  5 active torsions:
REMARK  status: ('A' for Active; 'I' for Inactive)
REMARK    1  A    between atoms: C_2  and  C_13
REMARK    2  A    between atoms: N_3  and  C_4
REMARK    3  A    between atoms: C_4  and  C_5
REMARK    4  A    between atoms: C_5  and  C_6
REMARK    5  A    between atoms: C_6  and  O_7
REMARK                            x       y       z     vdW  Elec       q    Type
REMARK                         _______ _______ _______ _____ _____    ______ ____
ROOT
ATOM      1  O   UNL     1      49.209   6.554  13.947  0.00  0.00    +0.000 OA
ATOM      2  C   UNL     1      48.092   6.198  14.312  0.00  0.00    +0.000 C 
ATOM      3  N   UNL     1      47.838   5.734  15.576  0.00  0.00    +0.000 N 
ATOM      4  H   UNL     1      46.879   5.569  15.849  0.00  0.00    +0.000 HD
ENDROOT
BRANCH   2   5
ATOM      5  C   UNL     1      46.944   6.149  13.398  0.00  0.00    +0.000 A 
ATOM      6  C   UNL     1      46.420   7.313  12.853  0.00  0.00    +0.000 A 
ATOM      7  S   UNL     1      45.168   7.030  11.725  0.00  0.00    +0.000 S 
ATOM      8  C   UNL     1      45.247   5.347  11.973  0.00  0.00    +0.000 A 
ATOM      9  N   UNL     1      44.438   4.493  11.285  0.00  0.00    +0.000 NA
ATOM     10  C   UNL     1      44.586   3.248  11.594  0.00  0.00    +0.000 A 
ATOM     11  N   UNL     1      45.462   2.775  12.536  0.00  0.00    +0.000 N 
ATOM     12  C   UNL     1      46.321   3.592  13.223  0.00  0.00    +0.000 A 
ATOM     13  O   UNL     1      47.142   3.126  14.006  0.00  0.00    +0.000 OA
ATOM     14  C   UNL     1      46.205   5.007  12.904  0.00  0.00    +0.000 A 
ATOM     15  H   UNL     1      45.533   1.784  12.727  0.00  0.00    +0.000 HD
ENDBRANCH   2   5
BRANCH   3  16
ATOM     16  C   UNL     1      48.779   5.782  16.675  0.00  0.00    +0.000 C 
BRANCH  16  17
ATOM     17  C   UNL     1      48.363   4.863  17.853  0.00  0.00    +0.000 C 
ATOM     18  C   UNL     1      47.123   5.397  18.619  0.00  0.00    +0.000 C 
ATOM     19  C   UNL     1      47.415   6.657  19.436  0.00  0.00    +0.000 C 
ATOM     20  C   UNL     1      48.671   6.503  20.290  0.00  0.00    +0.000 C 
ATOM     21  N   UNL     1      49.815   6.076  19.486  0.00  0.00    +0.000 NA
ATOM     22  C   UNL     1      49.553   4.782  18.840  0.00  0.00    +0.000 C 
ATOM     23  H   UNL     1      50.637   5.990  20.084  0.00  0.00    +0.000 HD
BRANCH  17  24
ATOM     24  C   UNL     1      48.028   3.450  17.322  0.00  0.00    +0.000 C 
BRANCH  24  25
ATOM     25  O   UNL     1      46.636   3.275  17.095  0.00  0.00    +0.000 OA
ATOM     26  H   UNL     1      46.498   3.250  16.126  0.00  0.00    +0.000 HD
ENDBRANCH  24  25
ENDBRANCH  17  24
ENDBRANCH  16  17
ENDBRANCH   3  16
TORSDOF 5
ENDMDL
MODEL 5
REMARK VINA RESULT:    -6.378      4.269      6.807
REMARK INTER + INTRA:          -9.388
REMARK INTER:                  -8.119
REMARK INTRA:                  -1.269
REMARK UNBOUND:                -1.332
REMARK  Name = 
REMARK  5 active torsions:
REMARK  status: ('A' for Active; 'I' for Inactive)
REMARK    1  A    between atoms: C_2  and  C_13
REMARK    2  A    between atoms: N_3  and  C_4
REMARK    3  A    between atoms: C_4  and  C_5
REMARK    4  A    between atoms: C_5  and  C_6
REMARK    5  A    between atoms: C_6  and  O_7
REMARK                            x       y       z     vdW  Elec       q    Type
REMARK                         _______ _______ _______ _____ _____    ______ ____
ROOT
ATOM      1  O   UNL     1      46.090   5.044  13.734  0.00  0.00    +0.000 OA
ATOM      2  C   UNL     1      45.975   5.631  12.660  0.00  0.00    +0.000 C 
ATOM      3  N   UNL     1      45.851   4.972  11.466  0.00  0.00    +0.000 N 
ATOM      4  H   UNL     1      45.642   5.509  10.635  0.00  0.00    +0.000 HD
ENDROOT
BRANCH   2   5
ATOM      5  C   UNL     1      46.057   7.093  12.550  0.00  0.00    +0.000 A 
ATOM      6  C   UNL     1      47.162   7.780  13.035  0.00  0.00    +0.000 A 
ATOM      7  S   UNL     1      47.116   9.455  12.704  0.00  0.00    +0.000 S 
ATOM      8  C   UNL     1      45.593   9.325  11.955  0.00  0.00    +0.000 A 
ATOM      9  N   UNL     1      44.975  10.414  11.417  0.00  0.00    +0.000 NA
ATOM     10  C   UNL     1      43.813  10.173  10.907  0.00  0.00    +0.000 A 
ATOM     11  N   UNL     1      43.204   8.946  10.893  0.00  0.00    +0.000 N 
ATOM     12  C   UNL     1      43.804   7.817  11.387  0.00  0.00    +0.000 A 
ATOM     13  O   UNL     1      43.260   6.721  11.292  0.00  0.00    +0.000 OA
ATOM     14  C   UNL     1      45.123   8.029  11.963  0.00  0.00    +0.000 A 
ATOM     15  H   UNL     1      42.292   8.823  10.471  0.00  0.00    +0.000 HD
ENDBRANCH   2   5
BRANCH   3  16
ATOM     16  C   UNL     1      45.647   3.546  11.330  0.00  0.00    +0.000 C 
BRANCH  16  17
ATOM     17  C   UNL     1      44.447   3.203  10.409  0.00  0.00    +0.000 C 
ATOM     18  C   UNL     1      44.721   1.970   9.505  0.00  0.00    +0.000 C 
ATOM     19  C   UNL     1      45.750   2.242   8.408  0.00  0.00    +0.000 C 
ATOM     20  C   UNL     1      45.444   3.530   7.648  0.00  0.00    +0.000 C 
ATOM     21  N   UNL     1      45.280   4.662   8.558  0.00  0.00    +0.000 NA
ATOM     22  C   UNL     1      44.176   4.426   9.500  0.00  0.00    +0.000 C 
ATOM     23  H   UNL     1      45.084   5.505   8.019  0.00  0.00    +0.000 HD
BRANCH  17  24
ATOM     24  C   UNL     1      43.197   2.902  11.267  0.00  0.00    +0.000 C 
BRANCH  24  25
ATOM     25  O   UNL     1      42.612   4.082  11.800  0.00  0.00    +0.000 OA
ATOM     26  H   UNL     1      41.642   4.003  11.692  0.00  0.00    +0.000 HD
ENDBRANCH  24  25
ENDBRANCH  17  24
ENDBRANCH  16  17
ENDBRANCH   3  16
TORSDOF 5
ENDMDL
MODEL 6
REMARK VINA RESULT:    -6.221      2.805      6.471
REMARK INTER + INTRA:          -9.189
REMARK INTER:                  -7.739
REMARK INTRA:                  -1.450
REMARK UNBOUND:                -1.332
REMARK  Name = 
REMARK  5 active torsions:
REMARK  status: ('A' for Active; 'I' for Inactive)
REMARK    1  A    between atoms: C_2  and  C_13
REMARK    2  A    between atoms: N_3  and  C_4
REMARK    3  A    between atoms: C_4  and  C_5
REMARK    4  A    between atoms: C_5  and  C_6
REMARK    5  A    between atoms: C_6  and  O_7
REMARK                            x       y       z     vdW  Elec       q    Type
REMARK                         _______ _______ _______ _____ _____    ______ ____
ROOT
ATOM      1  O   UNL     1      47.336   2.903  14.019  0.00  0.00    +0.000 OA
ATOM      2  C   UNL     1      46.909   4.042  14.188  0.00  0.00    +0.000 C 
ATOM      3  N   UNL     1      45.872   4.560  13.460  0.00  0.00    +0.000 N 
ATOM      4  H   UNL     1      45.491   5.458  13.727  0.00  0.00    +0.000 HD
ENDROOT
BRANCH   2   5
ATOM      5  C   UNL     1      47.535   4.985  15.123  0.00  0.00    +0.000 A 
ATOM      6  C   UNL     1      47.498   4.758  16.492  0.00  0.00    +0.000 A 
ATOM      7  S   UNL     1      48.384   5.907  17.394  0.00  0.00    +0.000 S 
ATOM      8  C   UNL     1      48.794   6.778  15.991  0.00  0.00    +0.000 A 
ATOM      9  N   UNL     1      49.578   7.892  16.055  0.00  0.00    +0.000 NA
ATOM     10  C   UNL     1      49.785   8.467  14.917  0.00  0.00    +0.000 A 
ATOM     11  N   UNL     1      49.274   8.039  13.719  0.00  0.00    +0.000 N 
ATOM     12  C   UNL     1      48.516   6.904  13.603  0.00  0.00    +0.000 A 
ATOM     13  O   UNL     1      48.136   6.510  12.504  0.00  0.00    +0.000 OA
ATOM     14  C   UNL     1      48.261   6.208  14.855  0.00  0.00    +0.000 A 
ATOM     15  H   UNL     1      49.480   8.534  12.861  0.00  0.00    +0.000 HD
ENDBRANCH   2   5
BRANCH   3  16
ATOM     16  C   UNL     1      45.037   3.796  12.557  0.00  0.00    +0.000 C 
BRANCH  16  17
ATOM     17  C   UNL     1      44.143   4.699  11.667  0.00  0.00    +0.000 C 
ATOM     18  C   UNL     1      43.841   4.063  10.283  0.00  0.00    +0.000 C 
ATOM     19  C   UNL     1      45.061   4.012   9.363  0.00  0.00    +0.000 C 
ATOM     20  C   UNL     1      45.782   5.357   9.299  0.00  0.00    +0.000 C 
ATOM     21  N   UNL     1      46.105   5.853  10.636  0.00  0.00    +0.000 NA
ATOM     22  C   UNL     1      44.889   6.036  11.440  0.00  0.00    +0.000 C 
ATOM     23  H   UNL     1      46.591   6.746  10.557  0.00  0.00    +0.000 HD
BRANCH  17  24
ATOM     24  C   UNL     1      42.796   4.966  12.378  0.00  0.00    +0.000 C 
BRANCH  24  25
ATOM     25  O   UNL     1      42.961   5.681  13.595  0.00  0.00    +0.000 OA
ATOM     26  H   UNL     1      43.918   5.852  13.708  0.00  0.00    +0.000 HD
ENDBRANCH  24  25
ENDBRANCH  17  24
ENDBRANCH  16  17
ENDBRANCH   3  16
TORSDOF 5
ENDMDL
MODEL 7
REMARK VINA RESULT:    -6.139      1.674      2.185
REMARK INTER + INTRA:          -9.086
REMARK INTER:                  -8.406
REMARK INTRA:                  -0.680
REMARK UNBOUND:                -1.332
REMARK  Name = 
REMARK  5 active torsions:
REMARK  status: ('A' for Active; 'I' for Inactive)
REMARK    1  A    between atoms: C_2  and  C_13
REMARK    2  A    between atoms: N_3  and  C_4
REMARK    3  A    between atoms: C_4  and  C_5
REMARK    4  A    between atoms: C_5  and  C_6
REMARK    5  A    between atoms: C_6  and  O_7
REMARK                            x       y       z     vdW  Elec       q    Type
REMARK                         _______ _______ _______ _____ _____    ______ ____
ROOT
ATOM      1  O   UNL     1      47.236   3.300  13.997  0.00  0.00    +0.000 OA
ATOM      2  C   UNL     1      46.903   4.397  14.439  0.00  0.00    +0.000 C 
ATOM      3  N   UNL     1      46.919   4.692  15.777  0.00  0.00    +0.000 N 
ATOM      4  H   UNL     1      46.747   5.646  16.066  0.00  0.00    +0.000 HD
ENDROOT
BRANCH   2   5
ATOM      5  C   UNL     1      46.366   5.461  13.582  0.00  0.00    +0.000 A 
ATOM      6  C   UNL     1      47.115   6.597  13.306  0.00  0.00    +0.000 A 
ATOM      7  S   UNL     1      46.360   7.654  12.197  0.00  0.00    +0.000 S 
ATOM      8  C   UNL     1      44.984   6.658  12.095  0.00  0.00    +0.000 A 
ATOM      9  N   UNL     1      43.938   6.979  11.282  0.00  0.00    +0.000 NA
ATOM     10  C   UNL     1      42.950   6.148  11.326  0.00  0.00    +0.000 A 
ATOM     11  N   UNL     1      42.903   5.029  12.115  0.00  0.00    +0.000 N 
ATOM     12  C   UNL     1      43.947   4.646  12.918  0.00  0.00    +0.000 A 
ATOM     13  O   UNL     1      43.900   3.600  13.556  0.00  0.00    +0.000 OA
ATOM     14  C   UNL     1      45.093   5.542  12.898  0.00  0.00    +0.000 A 
ATOM     15  H   UNL     1      42.100   4.414  12.099  0.00  0.00    +0.000 HD
ENDBRANCH   2   5
BRANCH   3  16
ATOM     16  C   UNL     1      47.497   3.847  16.800  0.00  0.00    +0.000 C 
BRANCH  16  17
ATOM     17  C   UNL     1      48.084   4.662  17.981  0.00  0.00    +0.000 C 
ATOM     18  C   UNL     1      49.184   5.661  17.529  0.00  0.00    +0.000 C 
ATOM     19  C   UNL     1      50.478   4.976  17.089  0.00  0.00    +0.000 C 
ATOM     20  C   UNL     1      50.945   3.935  18.105  0.00  0.00    +0.000 C 
ATOM     21  N   UNL     1      49.882   2.982  18.419  0.00  0.00    +0.000 NA
ATOM     22  C   UNL     1      48.711   3.665  18.986  0.00  0.00    +0.000 C 
ATOM     23  H   UNL     1      50.228   2.299  19.093  0.00  0.00    +0.000 HD
BRANCH  17  24
ATOM     24  C   UNL     1      46.960   5.466  18.674  0.00  0.00    +0.000 C 
BRANCH  24  25
ATOM     25  O   UNL     1      47.056   6.860  18.417  0.00  0.00    +0.000 OA
ATOM     26  H   UNL     1      46.279   7.288  18.831  0.00  0.00    +0.000 HD
ENDBRANCH  24  25
ENDBRANCH  17  24
ENDBRANCH  16  17
ENDBRANCH   3  16
TORSDOF 5
ENDMDL
MODEL 8
REMARK VINA RESULT:    -6.125      2.627      6.606
REMARK INTER + INTRA:          -9.068
REMARK INTER:                  -7.859
REMARK INTRA:                  -1.208
REMARK UNBOUND:                -1.332
REMARK  Name = 
REMARK  5 active torsions:
REMARK  status: ('A' for Active; 'I' for Inactive)
REMARK    1  A    between atoms: C_2  and  C_13
REMARK    2  A    between atoms: N_3  and  C_4
REMARK    3  A    between atoms: C_4  and  C_5
REMARK    4  A    between atoms: C_5  and  C_6
REMARK    5  A    between atoms: C_6  and  O_7
REMARK                            x       y       z     vdW  Elec       q    Type
REMARK                         _______ _______ _______ _____ _____    ______ ____
ROOT
ATOM      1  O   UNL     1      47.729   2.898  15.058  0.00  0.00    +0.000 OA
ATOM      2  C   UNL     1      47.392   4.053  15.307  0.00  0.00    +0.000 C 
ATOM      3  N   UNL     1      46.674   4.821  14.429  0.00  0.00    +0.000 N 
ATOM      4  H   UNL     1      46.327   5.719  14.740  0.00  0.00    +0.000 HD
ENDROOT
BRANCH   2   5
ATOM      5  C   UNL     1      47.810   4.747  16.531  0.00  0.00    +0.000 A 
ATOM      6  C   UNL     1      47.387   4.305  17.778  0.00  0.00    +0.000 A 
ATOM      7  S   UNL     1      48.079   5.175  19.075  0.00  0.00    +0.000 S 
ATOM      8  C   UNL     1      48.917   6.207  18.013  0.00  0.00    +0.000 A 
ATOM      9  N   UNL     1      49.735   7.191  18.483  0.00  0.00    +0.000 NA
ATOM     10  C   UNL     1      50.284   7.915  17.565  0.00  0.00    +0.000 A 
ATOM     11  N   UNL     1      50.087   7.754  16.218  0.00  0.00    +0.000 N 
ATOM     12  C   UNL     1      49.305   6.754  15.700  0.00  0.00    +0.000 A 
ATOM     13  O   UNL     1      49.209   6.595  14.488  0.00  0.00    +0.000 OA
ATOM     14  C   UNL     1      48.670   5.900  16.692  0.00  0.00    +0.000 A 
ATOM     15  H   UNL     1      50.553   8.353  15.550  0.00  0.00    +0.000 HD
ENDBRANCH   2   5
BRANCH   3  16
ATOM     16  C   UNL     1      46.066   4.329  13.211  0.00  0.00    +0.000 C 
BRANCH  16  17
ATOM     17  C   UNL     1      45.494   5.470  12.330  0.00  0.00    +0.000 C 
ATOM     18  C   UNL     1      44.181   6.067  12.904  0.00  0.00    +0.000 C 
ATOM     19  C   UNL     1      42.990   5.114  12.803  0.00  0.00    +0.000 C 
ATOM     20  C   UNL     1      42.857   4.516  11.404  0.00  0.00    +0.000 C 
ATOM     21  N   UNL     1      44.108   3.901  10.965  0.00  0.00    +0.000 NA
ATOM     22  C   UNL     1      45.196   4.888  10.927  0.00  0.00    +0.000 C 
ATOM     23  H   UNL     1      43.983   3.506  10.033  0.00  0.00    +0.000 HD
BRANCH  17  24
ATOM     24  C   UNL     1      46.531   6.612  12.213  0.00  0.00    +0.000 C 
BRANCH  24  25
ATOM     25  O   UNL     1      46.538   7.453  13.358  0.00  0.00    +0.000 OA
ATOM     26  H   UNL     1      45.952   7.044  14.027  0.00  0.00    +0.000 HD
ENDBRANCH  24  25
ENDBRANCH  17  24
ENDBRANCH  16  17
ENDBRANCH   3  16
TORSDOF 5
ENDMDL
MODEL 9
REMARK VINA RESULT:    -6.004      1.936      3.145
REMARK INTER + INTRA:          -8.915
REMARK INTER:                  -8.288
REMARK INTRA:                  -0.627
REMARK UNBOUND:                -1.332
REMARK  Name = 
REMARK  5 active torsions:
REMARK  status: ('A' for Active; 'I' for Inactive)
REMARK    1  A    between atoms: C_2  and  C_13
REMARK    2  A    between atoms: N_3  and  C_4
REMARK    3  A    between atoms: C_4  and  C_5
REMARK    4  A    between atoms: C_5  and  C_6
REMARK    5  A    between atoms: C_6  and  O_7
REMARK                            x       y       z     vdW  Elec       q    Type
REMARK                         _______ _______ _______ _____ _____    ______ ____
ROOT
ATOM      1  O   UNL     1      48.337   5.976  13.455  0.00  0.00    +0.000 OA
ATOM      2  C   UNL     1      47.371   5.388  13.936  0.00  0.00    +0.000 C 
ATOM      3  N   UNL     1      47.292   5.056  15.263  0.00  0.00    +0.000 N 
ATOM      4  H   UNL     1      46.423   4.680  15.618  0.00  0.00    +0.000 HD
ENDROOT
BRANCH   2   5
ATOM      5  C   UNL     1      46.255   4.905  13.114  0.00  0.00    +0.000 A 
ATOM      6  C   UNL     1      46.058   3.545  12.914  0.00  0.00    +0.000 A 
ATOM      7  S   UNL     1      44.641   3.189  12.029  0.00  0.00    +0.000 S 
ATOM      8  C   UNL     1      44.279   4.840  11.833  0.00  0.00    +0.000 A 
ATOM      9  N   UNL     1      43.158   5.243  11.170  0.00  0.00    +0.000 NA
ATOM     10  C   UNL     1      43.024   6.525  11.073  0.00  0.00    +0.000 A 
ATOM     11  N   UNL     1      43.912   7.444  11.569  0.00  0.00    +0.000 N 
ATOM     12  C   UNL     1      45.030   7.084  12.276  0.00  0.00    +0.000 A 
ATOM     13  O   UNL     1      45.765   7.936  12.768  0.00  0.00    +0.000 OA
ATOM     14  C   UNL     1      45.224   5.650  12.426  0.00  0.00    +0.000 A 
ATOM     15  H   UNL     1      43.745   8.436  11.464  0.00  0.00    +0.000 HD
ENDBRANCH   2   5
BRANCH   3  16
ATOM     16  C   UNL     1      48.215   5.509  16.282  0.00  0.00    +0.000 C 
BRANCH  16  17
ATOM     17  C   UNL     1      48.103   4.686  17.592  0.00  0.00    +0.000 C 
ATOM     18  C   UNL     1      47.023   5.245  18.558  0.00  0.00    +0.000 C 
ATOM     19  C   UNL     1      47.411   6.583  19.188  0.00  0.00    +0.000 C 
ATOM     20  C   UNL     1      48.824   6.551  19.766  0.00  0.00    +0.000 C 
ATOM     21  N   UNL     1      49.796   6.093  18.776  0.00  0.00    +0.000 NA
ATOM     22  C   UNL     1      49.474   4.737  18.308  0.00  0.00    +0.000 C 
ATOM     23  H   UNL     1      50.727   6.090  19.191  0.00  0.00    +0.000 HD
BRANCH  17  24
ATOM     24  C   UNL     1      47.740   3.220  17.261  0.00  0.00    +0.000 C 
BRANCH  24  25
ATOM     25  O   UNL     1      46.439   2.871  17.713  0.00  0.00    +0.000 OA
ATOM     26  H   UNL     1      46.475   1.943  18.021  0.00  0.00    +0.000 HD
ENDBRANCH  24  25
ENDBRANCH  17  24
ENDBRANCH  16  17
ENDBRANCH   3  16
TORSDOF 5
ENDMDL
