MODEL 1
REMARK VINA RESULT:    -8.426      0.000      0.000
REMARK INTER + INTRA:         -13.138
REMARK INTER:                 -12.367
REMARK INTRA:                  -0.771
REMARK UNBOUND:                -0.771
REMARK  Name = 
REMARK  9 active torsions:
REMARK  status: ('A' for Active; 'I' for Inactive)
REMARK    1  A    between atoms: C_1  and  C_2
REMARK    2  A    between atoms: C_2  and  O_3
REMARK    3  A    between atoms: O_3  and  C_4
REMARK    4  A    between atoms: C_4  and  C_5
REMARK    5  A    between atoms: C_4  and  C_12
REMARK    6  A    between atoms: C_5  and  C_6
REMARK    7  A    between atoms: C_15  and  C_16
REMARK    8  A    between atoms: C_16  and  N_17
REMARK    9  A    between atoms: C_18  and  C_20
REMARK                            x       y       z     vdW  Elec       q    Type
REMARK                         _______ _______ _______ _____ _____    ______ ____
ROOT
ATOM      1  C   UNL     1      45.526   4.490  12.034  0.00  0.00    +0.000 A 
ATOM      2  C   UNL     1      45.849   5.745  11.498  0.00  0.00    +0.000 A 
ATOM      3  C   UNL     1      46.814   6.551  12.100  0.00  0.00    +0.000 A 
ATOM      4  C   UNL     1      47.494   6.071  13.212  0.00  0.00    +0.000 A 
ATOM      5  N   UNL     1      47.224   4.857  13.749  0.00  0.00    +0.000 NA
ATOM      6  C   UNL     1      46.257   4.106  13.155  0.00  0.00    +0.000 A 
ENDROOT
BRANCH   1   7
ATOM      7  C   UNL     1      44.450   3.583  11.434  0.00  0.00    +0.000 C 
BRANCH   7   8
ATOM      8  O   UNL     1      43.263   3.651  12.253  0.00  0.00    +0.000 OA
BRANCH   8  10
ATOM      9  C   UNL     1      42.131   5.713  11.842  0.00  0.00    +0.000 C 
ATOM     10  C   UNL     1      42.976   4.924  12.825  0.00  0.00    +0.000 C 
ENDBRANCH   8  10
ENDBRANCH   7   8
BRANCH   7  11
ATOM     11  C   UNL     1      44.161   3.877   9.931  0.00  0.00    +0.000 C 
BRANCH  11  12
ATOM     12  C   UNL     1      45.145   3.304   8.927  0.00  0.00    +0.000 A 
ATOM     13  C   UNL     1      45.366   1.919   8.903  0.00  0.00    +0.000 A 
ATOM     14  C   UNL     1      46.314   1.365   8.040  0.00  0.00    +0.000 A 
ATOM     15  C   UNL     1      47.041   2.185   7.180  0.00  0.00    +0.000 A 
ATOM     16  C   UNL     1      46.806   3.554   7.166  0.00  0.00    +0.000 A 
ATOM     17  C   UNL     1      45.857   4.107   8.023  0.00  0.00    +0.000 A 
ENDBRANCH  11  12
ENDBRANCH   7  11
ENDBRANCH   1   7
BRANCH   4  18
ATOM     18  C   UNL     1      48.548   6.928  13.878  0.00  0.00    +0.000 C 
BRANCH  18  19
ATOM     19  N   UNL     1      48.288   7.085  15.292  0.00  0.00    +0.000 N 
ATOM     20  C   UNL     1      49.202   6.712  16.247  0.00  0.00    +0.000 C 
ATOM     21  O   UNL     1      50.322   6.310  15.954  0.00  0.00    +0.000 OA
ATOM     22  H   UNL     1      47.309   7.187  15.543  0.00  0.00    +0.000 HD
BRANCH  20  23
ATOM     23  C   UNL     1      48.795   6.888  17.647  0.00  0.00    +0.000 A 
ATOM     24  C   UNL     1      48.353   8.128  18.084  0.00  0.00    +0.000 A 
ATOM     25  S   UNL     1      47.856   8.144  19.714  0.00  0.00    +0.000 S 
ATOM     26  C   UNL     1      48.263   6.504  19.912  0.00  0.00    +0.000 A 
ATOM     27  N   UNL     1      48.096   5.877  21.108  0.00  0.00    +0.000 NA
ATOM     28  C   UNL     1      48.484   4.645  21.124  0.00  0.00    +0.000 A 
ATOM     29  N   UNL     1      49.022   3.982  20.051  0.00  0.00    +0.000 N 
ATOM     30  C   UNL     1      49.186   4.566  18.818  0.00  0.00    +0.000 A 
ATOM     31  O   UNL     1      49.644   3.937  17.870  0.00  0.00    +0.000 OA
ATOM     32  C   UNL     1      48.767   5.952  18.746  0.00  0.00    +0.000 A 
ATOM     33  H   UNL     1      49.307   3.016  20.126  0.00  0.00    +0.000 HD
ENDBRANCH  20  23
ENDBRANCH  18  19
ENDBRANCH   4  18
TORSDOF 8
ENDMDL
MODEL 2
REMARK VINA RESULT:    -8.266      1.277      2.114
REMARK INTER + INTRA:         -12.903
REMARK INTER:                 -11.925
REMARK INTRA:                  -0.978
REMARK UNBOUND:                -0.771
REMARK  Name = 
REMARK  9 active torsions:
REMARK  status: ('A' for Active; 'I' for Inactive)
REMARK    1  A    between atoms: C_1  and  C_2
REMARK    2  A    between atoms: C_2  and  O_3
REMARK    3  A    between atoms: O_3  and  C_4
REMARK    4  A    between atoms: C_4  and  C_5
REMARK    5  A    between atoms: C_4  and  C_12
REMARK    6  A    between atoms: C_5  and  C_6
REMARK    7  A    between atoms: C_15  and  C_16
REMARK    8  A    between atoms: C_16  and  N_17
REMARK    9  A    between atoms: C_18  and  C_20
REMARK                            x       y       z     vdW  Elec       q    Type
REMARK                         _______ _______ _______ _____ _____    ______ ____
ROOT
ATOM      1  C   UNL     1      45.478   4.445  11.975  0.00  0.00    +0.000 A 
ATOM      2  C   UNL     1      45.898   5.689  11.485  0.00  0.00    +0.000 A 
ATOM      3  C   UNL     1      46.808   6.468  12.198  0.00  0.00    +0.000 A 
ATOM      4  C   UNL     1      47.338   5.970  13.382  0.00  0.00    +0.000 A 
ATOM      5  N   UNL     1      46.970   4.764  13.880  0.00  0.00    +0.000 NA
ATOM      6  C   UNL     1      46.059   4.042  13.174  0.00  0.00    +0.000 A 
ENDROOT
BRANCH   1   7
ATOM      7  C   UNL     1      44.454   3.569  11.250  0.00  0.00    +0.000 C 
BRANCH   7   8
ATOM      8  O   UNL     1      43.196   3.627  11.957  0.00  0.00    +0.000 OA
BRANCH   8  10
ATOM      9  C   UNL     1      42.174   5.776  11.764  0.00  0.00    +0.000 C 
ATOM     10  C   UNL     1      42.941   4.833  12.672  0.00  0.00    +0.000 C 
ENDBRANCH   8  10
ENDBRANCH   7   8
BRANCH   7  11
ATOM     11  C   UNL     1      44.310   3.911   9.737  0.00  0.00    +0.000 C 
BRANCH  11  12
ATOM     12  C   UNL     1      45.289   3.237   8.793  0.00  0.00    +0.000 A 
ATOM     13  C   UNL     1      45.953   4.013   7.832  0.00  0.00    +0.000 A 
ATOM     14  C   UNL     1      46.809   3.417   6.903  0.00  0.00    +0.000 A 
ATOM     15  C   UNL     1      47.023   2.041   6.933  0.00  0.00    +0.000 A 
ATOM     16  C   UNL     1      46.401   1.264   7.902  0.00  0.00    +0.000 A 
ATOM     17  C   UNL     1      45.551   1.860   8.833  0.00  0.00    +0.000 A 
ENDBRANCH  11  12
ENDBRANCH   7  11
ENDBRANCH   1   7
BRANCH   4  18
ATOM     18  C   UNL     1      48.330   6.796  14.170  0.00  0.00    +0.000 C 
BRANCH  18  19
ATOM     19  N   UNL     1      48.150   6.624  15.595  0.00  0.00    +0.000 N 
ATOM     20  C   UNL     1      49.181   6.251  16.421  0.00  0.00    +0.000 C 
ATOM     21  O   UNL     1      50.331   6.129  16.012  0.00  0.00    +0.000 OA
ATOM     22  H   UNL     1      47.188   6.492  15.896  0.00  0.00    +0.000 HD
BRANCH  20  23
ATOM     23  C   UNL     1      48.852   6.073  17.841  0.00  0.00    +0.000 A 
ATOM     24  C   UNL     1      49.064   4.844  18.448  0.00  0.00    +0.000 A 
ATOM     25  S   UNL     1      48.694   4.828  20.112  0.00  0.00    +0.000 S 
ATOM     26  C   UNL     1      48.184   6.451  20.070  0.00  0.00    +0.000 A 
ATOM     27  N   UNL     1      47.719   7.070  21.189  0.00  0.00    +0.000 NA
ATOM     28  C   UNL     1      47.330   8.288  21.003  0.00  0.00    +0.000 A 
ATOM     29  N   UNL     1      47.368   8.944  19.799  0.00  0.00    +0.000 N 
ATOM     30  C   UNL     1      47.853   8.367  18.649  0.00  0.00    +0.000 A 
ATOM     31  O   UNL     1      47.900   8.991  17.595  0.00  0.00    +0.000 OA
ATOM     32  C   UNL     1      48.301   6.998  18.804  0.00  0.00    +0.000 A 
ATOM     33  H   UNL     1      47.049   9.898  19.716  0.00  0.00    +0.000 HD
ENDBRANCH  20  23
ENDBRANCH  18  19
ENDBRANCH   4  18
TORSDOF 8
ENDMDL
MODEL 3
REMARK VINA RESULT:    -7.607      2.208      2.511
REMARK INTER + INTRA:         -11.936
REMARK INTER:                 -10.928
REMARK INTRA:                  -1.008
REMARK UNBOUND:                -0.771
REMARK  Name = 
REMARK  9 active torsions:
REMARK  status: ('A' for Active; 'I' for Inactive)
REMARK    1  A    between atoms: C_1  and  C_2
REMARK    2  A    between atoms: C_2  and  O_3
REMARK    3  A    between atoms: O_3  and  C_4
REMARK    4  A    between atoms: C_4  and  C_5
REMARK    5  A    between atoms: C_4  and  C_12
REMARK    6  A    between atoms: C_5  and  C_6
REMARK    7  A    between atoms: C_15  and  C_16
REMARK    8  A    between atoms: C_16  and  N_17
REMARK    9  A    between atoms: C_18  and  C_20
REMARK                            x       y       z     vdW  Elec       q    Type
REMARK                         _______ _______ _______ _____ _____    ______ ____
ROOT
ATOM      1  C   UNL     1      45.806   4.928  11.958  0.00  0.00    +0.000 A 
ATOM      2  C   UNL     1      46.141   6.137  11.333  0.00  0.00    +0.000 A 
ATOM      3  C   UNL     1      46.963   7.067  11.970  0.00  0.00    +0.000 A 
ATOM      4  C   UNL     1      47.493   6.754  13.215  0.00  0.00    +0.000 A 
ATOM      5  N   UNL     1      47.207   5.588  13.844  0.00  0.00    +0.000 NA
ATOM      6  C   UNL     1      46.380   4.716  13.208  0.00  0.00    +0.000 A 
ENDROOT
BRANCH   1   7
ATOM      7  C   UNL     1      44.879   3.892  11.318  0.00  0.00    +0.000 C 
BRANCH   7   8
ATOM      8  O   UNL     1      43.675   3.783  12.108  0.00  0.00    +0.000 OA
BRANCH   8  10
ATOM      9  C   UNL     1      42.170   5.609  11.791  0.00  0.00    +0.000 C 
ATOM     10  C   UNL     1      43.213   4.992  12.704  0.00  0.00    +0.000 C 
ENDBRANCH   8  10
ENDBRANCH   7   8
BRANCH   7  11
ATOM     11  C   UNL     1      44.588   4.169   9.813  0.00  0.00    +0.000 C 
BRANCH  11  12
ATOM     12  C   UNL     1      45.408   3.380   8.807  0.00  0.00    +0.000 A 
ATOM     13  C   UNL     1      45.462   1.983   8.918  0.00  0.00    +0.000 A 
ATOM     14  C   UNL     1      46.261   1.232   8.053  0.00  0.00    +0.000 A 
ATOM     15  C   UNL     1      47.002   1.864   7.058  0.00  0.00    +0.000 A 
ATOM     16  C   UNL     1      46.929   3.244   6.913  0.00  0.00    +0.000 A 
ATOM     17  C   UNL     1      46.129   3.994   7.772  0.00  0.00    +0.000 A 
ENDBRANCH  11  12
ENDBRANCH   7  11
ENDBRANCH   1   7
BRANCH   4  18
ATOM     18  C   UNL     1      48.390   7.746  13.922  0.00  0.00    +0.000 C 
BRANCH  18  19
ATOM     19  N   UNL     1      49.491   7.085  14.587  0.00  0.00    +0.000 N 
ATOM     20  C   UNL     1      50.040   7.570  15.749  0.00  0.00    +0.000 C 
ATOM     21  O   UNL     1      49.568   8.538  16.336  0.00  0.00    +0.000 OA
ATOM     22  H   UNL     1      50.025   6.445  14.006  0.00  0.00    +0.000 HD
BRANCH  20  23
ATOM     23  C   UNL     1      51.179   6.825  16.297  0.00  0.00    +0.000 A 
ATOM     24  C   UNL     1      52.449   7.383  16.261  0.00  0.00    +0.000 A 
ATOM     25  S   UNL     1      53.645   6.418  16.998  0.00  0.00    +0.000 S 
ATOM     26  C   UNL     1      52.518   5.191  17.346  0.00  0.00    +0.000 A 
ATOM     27  N   UNL     1      52.898   4.046  17.974  0.00  0.00    +0.000 NA
ATOM     28  C   UNL     1      51.948   3.186  18.138  0.00  0.00    +0.000 A 
ATOM     29  N   UNL     1      50.651   3.370  17.734  0.00  0.00    +0.000 N 
ATOM     30  C   UNL     1      50.216   4.520  17.120  0.00  0.00    +0.000 A 
ATOM     31  O   UNL     1      49.042   4.665  16.797  0.00  0.00    +0.000 OA
ATOM     32  C   UNL     1      51.246   5.519  16.910  0.00  0.00    +0.000 A 
ATOM     33  H   UNL     1      49.951   2.660  17.891  0.00  0.00    +0.000 HD
ENDBRANCH  20  23
ENDBRANCH  18  19
ENDBRANCH   4  18
TORSDOF 8
ENDMDL
MODEL 4
REMARK VINA RESULT:    -7.295      3.374      8.676
REMARK INTER + INTRA:         -11.477
REMARK INTER:                 -10.146
REMARK INTRA:                  -1.331
REMARK UNBOUND:                -0.771
REMARK  Name = 
REMARK  9 active torsions:
REMARK  status: ('A' for Active; 'I' for Inactive)
REMARK    1  A    between atoms: C_1  and  C_2
REMARK    2  A    between atoms: C_2  and  O_3
REMARK    3  A    between atoms: O_3  and  C_4
REMARK    4  A    between atoms: C_4  and  C_5
REMARK    5  A    between atoms: C_4  and  C_12
REMARK    6  A    between atoms: C_5  and  C_6
REMARK    7  A    between atoms: C_15  and  C_16
REMARK    8  A    between atoms: C_16  and  N_17
REMARK    9  A    between atoms: C_18  and  C_20
REMARK                            x       y       z     vdW  Elec       q    Type
REMARK                         _______ _______ _______ _____ _____    ______ ____
ROOT
ATOM      1  C   UNL     1      49.630   6.280  16.428  0.00  0.00    +0.000 A 
ATOM      2  C   UNL     1      50.414   7.226  15.753  0.00  0.00    +0.000 A 
ATOM      3  C   UNL     1      50.063   7.666  14.478  0.00  0.00    +0.000 A 
ATOM      4  C   UNL     1      48.890   7.194  13.902  0.00  0.00    +0.000 A 
ATOM      5  N   UNL     1      48.096   6.292  14.530  0.00  0.00    +0.000 NA
ATOM      6  C   UNL     1      48.482   5.861  15.761  0.00  0.00    +0.000 A 
ENDROOT
BRANCH   1   7
ATOM      7  C   UNL     1      49.992   5.736  17.812  0.00  0.00    +0.000 C 
BRANCH   7   8
ATOM      8  O   UNL     1      49.301   6.507  18.818  0.00  0.00    +0.000 OA
BRANCH   8  10
ATOM      9  C   UNL     1      46.991   6.126  19.290  0.00  0.00    +0.000 C 
ATOM     10  C   UNL     1      48.419   5.774  19.664  0.00  0.00    +0.000 C 
ENDBRANCH   8  10
ENDBRANCH   7   8
BRANCH   7  11
ATOM     11  C   UNL     1      49.750   4.203  17.956  0.00  0.00    +0.000 C 
BRANCH  11  12
ATOM     12  C   UNL     1      50.979   3.314  17.891  0.00  0.00    +0.000 A 
ATOM     13  C   UNL     1      50.846   2.003  17.412  0.00  0.00    +0.000 A 
ATOM     14  C   UNL     1      51.940   1.135  17.402  0.00  0.00    +0.000 A 
ATOM     15  C   UNL     1      53.183   1.570  17.856  0.00  0.00    +0.000 A 
ATOM     16  C   UNL     1      53.338   2.878  18.299  0.00  0.00    +0.000 A 
ATOM     17  C   UNL     1      52.248   3.746  18.304  0.00  0.00    +0.000 A 
ENDBRANCH  11  12
ENDBRANCH   7  11
ENDBRANCH   1   7
BRANCH   4  18
ATOM     18  C   UNL     1      48.487   7.661  12.521  0.00  0.00    +0.000 C 
BRANCH  18  19
ATOM     19  N   UNL     1      47.717   6.655  11.824  0.00  0.00    +0.000 N 
ATOM     20  C   UNL     1      46.386   6.827  11.533  0.00  0.00    +0.000 C 
ATOM     21  O   UNL     1      45.799   7.878  11.767  0.00  0.00    +0.000 OA
ATOM     22  H   UNL     1      48.113   5.720  11.839  0.00  0.00    +0.000 HD
BRANCH  20  23
ATOM     23  C   UNL     1      45.714   5.710  10.857  0.00  0.00    +0.000 A 
ATOM     24  C   UNL     1      45.824   5.572   9.481  0.00  0.00    +0.000 A 
ATOM     25  S   UNL     1      45.042   4.187   8.866  0.00  0.00    +0.000 S 
ATOM     26  C   UNL     1      44.481   3.750  10.412  0.00  0.00    +0.000 A 
ATOM     27  N   UNL     1      43.716   2.640  10.593  0.00  0.00    +0.000 NA
ATOM     28  C   UNL     1      43.328   2.452  11.810  0.00  0.00    +0.000 A 
ATOM     29  N   UNL     1      43.639   3.272  12.864  0.00  0.00    +0.000 N 
ATOM     30  C   UNL     1      44.430   4.389  12.733  0.00  0.00    +0.000 A 
ATOM     31  O   UNL     1      44.714   5.086  13.702  0.00  0.00    +0.000 OA
ATOM     32  C   UNL     1      44.891   4.647  11.384  0.00  0.00    +0.000 A 
ATOM     33  H   UNL     1      43.306   3.072  13.796  0.00  0.00    +0.000 HD
ENDBRANCH  20  23
ENDBRANCH  18  19
ENDBRANCH   4  18
TORSDOF 8
ENDMDL
MODEL 5
REMARK VINA RESULT:    -7.276      3.411      9.355
REMARK INTER + INTRA:         -11.450
REMARK INTER:                  -9.875
REMARK INTRA:                  -1.576
REMARK UNBOUND:                -0.771
REMARK  Name = 
REMARK  9 active torsions:
REMARK  status: ('A' for Active; 'I' for Inactive)
REMARK    1  A    between atoms: C_1  and  C_2
REMARK    2  A    between atoms: C_2  and  O_3
REMARK    3  A    between atoms: O_3  and  C_4
REMARK    4  A    between atoms: C_4  and  C_5
REMARK    5  A    between atoms: C_4  and  C_12
REMARK    6  A    between atoms: C_5  and  C_6
REMARK    7  A    between atoms: C_15  and  C_16
REMARK    8  A    between atoms: C_16  and  N_17
REMARK    9  A    between atoms: C_18  and  C_20
REMARK                            x       y       z     vdW  Elec       q    Type
REMARK                         _______ _______ _______ _____ _____    ______ ____
ROOT
ATOM      1  C   UNL     1      49.975   4.928  17.412  0.00  0.00    +0.000 A 
ATOM      2  C   UNL     1      50.708   6.016  16.918  0.00  0.00    +0.000 A 
ATOM      3  C   UNL     1      50.184   6.835  15.918  0.00  0.00    +0.000 A 
ATOM      4  C   UNL     1      48.898   6.591  15.453  0.00  0.00    +0.000 A 
ATOM      5  N   UNL     1      48.151   5.559  15.918  0.00  0.00    +0.000 NA
ATOM      6  C   UNL     1      48.702   4.762  16.873  0.00  0.00    +0.000 A 
ENDROOT
BRANCH   1   7
ATOM      7  C   UNL     1      50.519   3.977  18.481  0.00  0.00    +0.000 C 
BRANCH   7   8
ATOM      8  O   UNL     1      51.596   3.198  17.918  0.00  0.00    +0.000 OA
BRANCH   8  10
ATOM      9  C   UNL     1      52.339   0.939  17.696  0.00  0.00    +0.000 C 
ATOM     10  C   UNL     1      51.230   1.928  17.386  0.00  0.00    +0.000 C 
ENDBRANCH   8  10
ENDBRANCH   7   8
BRANCH   7  11
ATOM     11  C   UNL     1      50.925   4.699  19.801  0.00  0.00    +0.000 C 
BRANCH  11  12
ATOM     12  C   UNL     1      49.825   5.452  20.528  0.00  0.00    +0.000 A 
ATOM     13  C   UNL     1      48.800   4.726  21.151  0.00  0.00    +0.000 A 
ATOM     14  C   UNL     1      47.736   5.387  21.770  0.00  0.00    +0.000 A 
ATOM     15  C   UNL     1      47.692   6.779  21.788  0.00  0.00    +0.000 A 
ATOM     16  C   UNL     1      48.720   7.511  21.208  0.00  0.00    +0.000 A 
ATOM     17  C   UNL     1      49.785   6.852  20.594  0.00  0.00    +0.000 A 
ENDBRANCH  11  12
ENDBRANCH   7  11
ENDBRANCH   1   7
BRANCH   4  18
ATOM     18  C   UNL     1      48.308   7.469  14.372  0.00  0.00    +0.000 C 
BRANCH  18  19
ATOM     19  N   UNL     1      47.084   6.909  13.843  0.00  0.00    +0.000 N 
ATOM     20  C   UNL     1      46.812   6.891  12.496  0.00  0.00    +0.000 C 
ATOM     21  O   UNL     1      47.630   7.266  11.663  0.00  0.00    +0.000 OA
ATOM     22  H   UNL     1      46.325   6.819  14.512  0.00  0.00    +0.000 HD
BRANCH  20  23
ATOM     23  C   UNL     1      45.516   6.330  12.097  0.00  0.00    +0.000 A 
ATOM     24  C   UNL     1      44.540   7.162  11.566  0.00  0.00    +0.000 A 
ATOM     25  S   UNL     1      43.123   6.342  11.093  0.00  0.00    +0.000 S 
ATOM     26  C   UNL     1      43.741   4.850  11.631  0.00  0.00    +0.000 A 
ATOM     27  N   UNL     1      43.007   3.709  11.531  0.00  0.00    +0.000 NA
ATOM     28  C   UNL     1      43.584   2.659  12.015  0.00  0.00    +0.000 A 
ATOM     29  N   UNL     1      44.829   2.647  12.587  0.00  0.00    +0.000 N 
ATOM     30  C   UNL     1      45.616   3.770  12.687  0.00  0.00    +0.000 A 
ATOM     31  O   UNL     1      46.739   3.720  13.179  0.00  0.00    +0.000 OA
ATOM     32  C   UNL     1      45.014   4.978  12.160  0.00  0.00    +0.000 A 
ATOM     33  H   UNL     1      45.228   1.793  12.949  0.00  0.00    +0.000 HD
ENDBRANCH  20  23
ENDBRANCH  18  19
ENDBRANCH   4  18
TORSDOF 8
ENDMDL
MODEL 6
REMARK VINA RESULT:    -7.090      3.242      8.855
REMARK INTER + INTRA:         -11.177
REMARK INTER:                  -9.770
REMARK INTRA:                  -1.407
REMARK UNBOUND:                -0.771
REMARK  Name = 
REMARK  9 active torsions:
REMARK  status: ('A' for Active; 'I' for Inactive)
REMARK    1  A    between atoms: C_1  and  C_2
REMARK    2  A    between atoms: C_2  and  O_3
REMARK    3  A    between atoms: O_3  and  C_4
REMARK    4  A    between atoms: C_4  and  C_5
REMARK    5  A    between atoms: C_4  and  C_12
REMARK    6  A    between atoms: C_5  and  C_6
REMARK    7  A    between atoms: C_15  and  C_16
REMARK    8  A    between atoms: C_16  and  N_17
REMARK    9  A    between atoms: C_18  and  C_20
REMARK                            x       y       z     vdW  Elec       q    Type
REMARK                         _______ _______ _______ _____ _____    ______ ____
ROOT
ATOM      1  C   UNL     1      49.075   7.734  16.219  0.00  0.00    +0.000 A 
ATOM      2  C   UNL     1      48.227   8.749  15.756  0.00  0.00    +0.000 A 
ATOM      3  C   UNL     1      47.786   8.763  14.433  0.00  0.00    +0.000 A 
ATOM      4  C   UNL     1      48.156   7.723  13.589  0.00  0.00    +0.000 A 
ATOM      5  N   UNL     1      48.961   6.715  14.005  0.00  0.00    +0.000 NA
ATOM      6  C   UNL     1      49.396   6.746  15.293  0.00  0.00    +0.000 A 
ENDROOT
BRANCH   1   7
ATOM      7  C   UNL     1      49.617   7.693  17.650  0.00  0.00    +0.000 C 
BRANCH   7   8
ATOM      8  O   UNL     1      49.640   9.033  18.186  0.00  0.00    +0.000 OA
BRANCH   8  10
ATOM      9  C   UNL     1      47.728  10.026  19.215  0.00  0.00    +0.000 C 
ATOM     10  C   UNL     1      48.988   9.211  19.441  0.00  0.00    +0.000 C 
ENDBRANCH   8  10
ENDBRANCH   7   8
BRANCH   7  11
ATOM     11  C   UNL     1      48.857   6.690  18.570  0.00  0.00    +0.000 C 
BRANCH  11  12
ATOM     12  C   UNL     1      48.720   5.268  18.056  0.00  0.00    +0.000 A 
ATOM     13  C   UNL     1      47.445   4.776  17.745  0.00  0.00    +0.000 A 
ATOM     14  C   UNL     1      47.274   3.452  17.335  0.00  0.00    +0.000 A 
ATOM     15  C   UNL     1      48.376   2.609  17.216  0.00  0.00    +0.000 A 
ATOM     16  C   UNL     1      49.650   3.093  17.484  0.00  0.00    +0.000 A 
ATOM     17  C   UNL     1      49.822   4.416  17.888  0.00  0.00    +0.000 A 
ENDBRANCH  11  12
ENDBRANCH   7  11
ENDBRANCH   1   7
BRANCH   4  18
ATOM     18  C   UNL     1      47.686   7.716  12.152  0.00  0.00    +0.000 C 
BRANCH  18  19
ATOM     19  N   UNL     1      46.961   6.505  11.836  0.00  0.00    +0.000 N 
ATOM     20  C   UNL     1      45.601   6.405  11.998  0.00  0.00    +0.000 C 
ATOM     21  O   UNL     1      44.914   7.364  12.332  0.00  0.00    +0.000 OA
ATOM     22  H   UNL     1      47.527   5.663  11.791  0.00  0.00    +0.000 HD
BRANCH  20  23
ATOM     23  C   UNL     1      44.997   5.106  11.678  0.00  0.00    +0.000 A 
ATOM     24  C   UNL     1      44.320   4.401  12.662  0.00  0.00    +0.000 A 
ATOM     25  S   UNL     1      43.622   2.948  12.108  0.00  0.00    +0.000 S 
ATOM     26  C   UNL     1      44.247   3.180  10.543  0.00  0.00    +0.000 A 
ATOM     27  N   UNL     1      44.026   2.270   9.556  0.00  0.00    +0.000 NA
ATOM     28  C   UNL     1      44.592   2.555   8.430  0.00  0.00    +0.000 A 
ATOM     29  N   UNL     1      45.356   3.670   8.201  0.00  0.00    +0.000 N 
ATOM     30  C   UNL     1      45.586   4.628   9.160  0.00  0.00    +0.000 A 
ATOM     31  O   UNL     1      46.250   5.629   8.914  0.00  0.00    +0.000 OA
ATOM     32  C   UNL     1      44.973   4.355  10.445  0.00  0.00    +0.000 A 
ATOM     33  H   UNL     1      45.773   3.839   7.298  0.00  0.00    +0.000 HD
ENDBRANCH  20  23
ENDBRANCH  18  19
ENDBRANCH   4  18
TORSDOF 8
ENDMDL
MODEL 7
REMARK VINA RESULT:    -7.055      3.766      5.629
REMARK INTER + INTRA:         -11.126
REMARK INTER:                  -9.619
REMARK INTRA:                  -1.506
REMARK UNBOUND:                -0.771
REMARK  Name = 
REMARK  9 active torsions:
REMARK  status: ('A' for Active; 'I' for Inactive)
REMARK    1  A    between atoms: C_1  and  C_2
REMARK    2  A    between atoms: C_2  and  O_3
REMARK    3  A    between atoms: O_3  and  C_4
REMARK    4  A    between atoms: C_4  and  C_5
REMARK    5  A    between atoms: C_4  and  C_12
REMARK    6  A    between atoms: C_5  and  C_6
REMARK    7  A    between atoms: C_15  and  C_16
REMARK    8  A    between atoms: C_16  and  N_17
REMARK    9  A    between atoms: C_18  and  C_20
REMARK                            x       y       z     vdW  Elec       q    Type
REMARK                         _______ _______ _______ _____ _____    ______ ____
ROOT
ATOM      1  C   UNL     1      47.223   5.420  13.530  0.00  0.00    +0.000 A 
ATOM      2  C   UNL     1      47.779   6.042  14.656  0.00  0.00    +0.000 A 
ATOM      3  C   UNL     1      47.937   5.344  15.852  0.00  0.00    +0.000 A 
ATOM      4  C   UNL     1      47.584   4.001  15.900  0.00  0.00    +0.000 A 
ATOM      5  N   UNL     1      47.059   3.360  14.828  0.00  0.00    +0.000 NA
ATOM      6  C   UNL     1      46.892   4.077  13.684  0.00  0.00    +0.000 A 
ENDROOT
BRANCH   1   7
ATOM      7  C   UNL     1      46.994   6.151  12.205  0.00  0.00    +0.000 C 
BRANCH   7   8
ATOM      8  O   UNL     1      45.775   5.666  11.601  0.00  0.00    +0.000 OA
BRANCH   8  10
ATOM      9  C   UNL     1      43.630   5.529  12.641  0.00  0.00    +0.000 C 
ATOM     10  C   UNL     1      44.600   6.419  11.885  0.00  0.00    +0.000 C 
ENDBRANCH   8  10
ENDBRANCH   7   8
BRANCH   7  11
ATOM     11  C   UNL     1      47.021   7.703  12.343  0.00  0.00    +0.000 C 
BRANCH  11  12
ATOM     12  C   UNL     1      48.310   8.397  11.942  0.00  0.00    +0.000 A 
ATOM     13  C   UNL     1      49.391   7.623  11.496  0.00  0.00    +0.000 A 
ATOM     14  C   UNL     1      50.613   8.222  11.184  0.00  0.00    +0.000 A 
ATOM     15  C   UNL     1      50.766   9.601  11.298  0.00  0.00    +0.000 A 
ATOM     16  C   UNL     1      49.693  10.385  11.703  0.00  0.00    +0.000 A 
ATOM     17  C   UNL     1      48.471   9.789  12.009  0.00  0.00    +0.000 A 
ENDBRANCH  11  12
ENDBRANCH   7  11
ENDBRANCH   1   7
BRANCH   4  18
ATOM     18  C   UNL     1      47.750   3.224  17.187  0.00  0.00    +0.000 C 
BRANCH  18  19
ATOM     19  N   UNL     1      49.143   3.093  17.552  0.00  0.00    +0.000 N 
ATOM     20  C   UNL     1      49.987   2.219  16.911  0.00  0.00    +0.000 C 
ATOM     21  O   UNL     1      49.630   1.567  15.936  0.00  0.00    +0.000 OA
ATOM     22  H   UNL     1      49.381   3.437  18.478  0.00  0.00    +0.000 HD
BRANCH  20  23
ATOM     23  C   UNL     1      51.367   2.157  17.409  0.00  0.00    +0.000 A 
ATOM     24  C   UNL     1      51.944   0.926  17.687  0.00  0.00    +0.000 A 
ATOM     25  S   UNL     1      53.569   1.029  18.189  0.00  0.00    +0.000 S 
ATOM     26  C   UNL     1      53.546   2.728  18.105  0.00  0.00    +0.000 A 
ATOM     27  N   UNL     1      54.645   3.463  18.429  0.00  0.00    +0.000 NA
ATOM     28  C   UNL     1      54.472   4.741  18.358  0.00  0.00    +0.000 A 
ATOM     29  N   UNL     1      53.301   5.351  17.989  0.00  0.00    +0.000 N 
ATOM     30  C   UNL     1      52.175   4.650  17.629  0.00  0.00    +0.000 A 
ATOM     31  O   UNL     1      51.152   5.226  17.276  0.00  0.00    +0.000 OA
ATOM     32  C   UNL     1      52.315   3.209  17.693  0.00  0.00    +0.000 A 
ATOM     33  H   UNL     1      53.228   6.357  17.952  0.00  0.00    +0.000 HD
ENDBRANCH  20  23
ENDBRANCH  18  19
ENDBRANCH   4  18
TORSDOF 8
ENDMDL
MODEL 8
REMARK VINA RESULT:    -6.966      3.574      8.757
REMARK INTER + INTRA:         -10.995
REMARK INTER:                  -9.645
REMARK INTRA:                  -1.350
REMARK UNBOUND:                -0.771
REMARK  Name = 
REMARK  9 active torsions:
REMARK  status: ('A' for Active; 'I' for Inactive)
REMARK    1  A    between atoms: C_1  and  C_2
REMARK    2  A    between atoms: C_2  and  O_3
REMARK    3  A    between atoms: O_3  and  C_4
REMARK    4  A    between atoms: C_4  and  C_5
REMARK    5  A    between atoms: C_4  and  C_12
REMARK    6  A    between atoms: C_5  and  C_6
REMARK    7  A    between atoms: C_15  and  C_16
REMARK    8  A    between atoms: C_16  and  N_17
REMARK    9  A    between atoms: C_18  and  C_20
REMARK                            x       y       z     vdW  Elec       q    Type
REMARK                         _______ _______ _______ _____ _____    ______ ____
ROOT
ATOM      1  C   UNL     1      49.869   4.996  17.340  0.00  0.00    +0.000 A 
ATOM      2  C   UNL     1      50.554   6.159  16.963  0.00  0.00    +0.000 A 
ATOM      3  C   UNL     1      50.047   6.997  15.971  0.00  0.00    +0.000 A 
ATOM      4  C   UNL     1      48.820   6.692  15.395  0.00  0.00    +0.000 A 
ATOM      5  N   UNL     1      48.119   5.586  15.745  0.00  0.00    +0.000 NA
ATOM      6  C   UNL     1      48.655   4.775  16.696  0.00  0.00    +0.000 A 
ENDROOT
BRANCH   1   7
ATOM      7  C   UNL     1      50.401   4.025  18.397  0.00  0.00    +0.000 C 
BRANCH   7   8
ATOM      8  O   UNL     1      49.485   3.990  19.512  0.00  0.00    +0.000 OA
BRANCH   8  10
ATOM      9  C   UNL     1      48.196   5.685  20.591  0.00  0.00    +0.000 C 
ATOM     10  C   UNL     1      49.577   5.080  20.425  0.00  0.00    +0.000 C 
ENDBRANCH   8  10
ENDBRANCH   7   8
BRANCH   7  11
ATOM     11  C   UNL     1      50.715   2.607  17.830  0.00  0.00    +0.000 C 
BRANCH  11  12
ATOM     12  C   UNL     1      52.179   2.214  17.758  0.00  0.00    +0.000 A 
ATOM     13  C   UNL     1      53.159   3.200  17.942  0.00  0.00    +0.000 A 
ATOM     14  C   UNL     1      54.515   2.888  17.815  0.00  0.00    +0.000 A 
ATOM     15  C   UNL     1      54.908   1.585  17.518  0.00  0.00    +0.000 A 
ATOM     16  C   UNL     1      53.949   0.590  17.371  0.00  0.00    +0.000 A 
ATOM     17  C   UNL     1      52.597   0.900  17.502  0.00  0.00    +0.000 A 
ENDBRANCH  11  12
ENDBRANCH   7  11
ENDBRANCH   1   7
BRANCH   4  18
ATOM     18  C   UNL     1      48.248   7.588  14.319  0.00  0.00    +0.000 C 
BRANCH  18  19
ATOM     19  N   UNL     1      47.012   7.059  13.788  0.00  0.00    +0.000 N 
ATOM     20  C   UNL     1      46.872   6.722  12.464  0.00  0.00    +0.000 C 
ATOM     21  O   UNL     1      47.812   6.766  11.678  0.00  0.00    +0.000 OA
ATOM     22  H   UNL     1      46.187   7.238  14.353  0.00  0.00    +0.000 HD
BRANCH  20  23
ATOM     23  C   UNL     1      45.551   6.234  12.049  0.00  0.00    +0.000 A 
ATOM     24  C   UNL     1      44.618   7.124  11.536  0.00  0.00    +0.000 A 
ATOM     25  S   UNL     1      43.165   6.384  11.040  0.00  0.00    +0.000 S 
ATOM     26  C   UNL     1      43.708   4.852  11.543  0.00  0.00    +0.000 A 
ATOM     27  N   UNL     1      42.921   3.750  11.414  0.00  0.00    +0.000 NA
ATOM     28  C   UNL     1      43.445   2.662  11.873  0.00  0.00    +0.000 A 
ATOM     29  N   UNL     1      44.687   2.577  12.448  0.00  0.00    +0.000 N 
ATOM     30  C   UNL     1      45.527   3.658  12.576  0.00  0.00    +0.000 A 
ATOM     31  O   UNL     1      46.644   3.542  13.069  0.00  0.00    +0.000 OA
ATOM     32  C   UNL     1      44.985   4.906  12.077  0.00  0.00    +0.000 A 
ATOM     33  H   UNL     1      45.044   1.696  12.789  0.00  0.00    +0.000 HD
ENDBRANCH  20  23
ENDBRANCH  18  19
ENDBRANCH   4  18
TORSDOF 8
ENDMDL
MODEL 9
REMARK VINA RESULT:    -6.867      4.146      5.943
REMARK INTER + INTRA:         -10.851
REMARK INTER:                  -9.385
REMARK INTRA:                  -1.466
REMARK UNBOUND:                -0.771
REMARK  Name = 
REMARK  9 active torsions:
REMARK  status: ('A' for Active; 'I' for Inactive)
REMARK    1  A    between atoms: C_1  and  C_2
REMARK    2  A    between atoms: C_2  and  O_3
REMARK    3  A    between atoms: O_3  and  C_4
REMARK    4  A    between atoms: C_4  and  C_5
REMARK    5  A    between atoms: C_4  and  C_12
REMARK    6  A    between atoms: C_5  and  C_6
REMARK    7  A    between atoms: C_15  and  C_16
REMARK    8  A    between atoms: C_16  and  N_17
REMARK    9  A    between atoms: C_18  and  C_20
REMARK                            x       y       z     vdW  Elec       q    Type
REMARK                         _______ _______ _______ _____ _____    ______ ____
ROOT
ATOM      1  C   UNL     1      44.949   9.258  11.819  0.00  0.00    +0.000 A 
ATOM      2  C   UNL     1      44.318   8.160  11.217  0.00  0.00    +0.000 A 
ATOM      3  C   UNL     1      44.627   6.857  11.605  0.00  0.00    +0.000 A 
ATOM      4  C   UNL     1      45.534   6.660  12.639  0.00  0.00    +0.000 A 
ATOM      5  N   UNL     1      46.152   7.696  13.258  0.00  0.00    +0.000 NA
ATOM      6  C   UNL     1      45.850   8.953  12.836  0.00  0.00    +0.000 A 
ENDROOT
BRANCH   1   7
ATOM      7  C   UNL     1      44.673  10.705  11.404  0.00  0.00    +0.000 C 
BRANCH   7   8
ATOM      8  O   UNL     1      43.402  11.119  11.948  0.00  0.00    +0.000 OA
BRANCH   8  10
ATOM      9  C   UNL     1      41.721  10.677  10.312  0.00  0.00    +0.000 C 
ATOM     10  C   UNL     1      42.512  11.752  11.034  0.00  0.00    +0.000 C 
ENDBRANCH   8  10
ENDBRANCH   7   8
BRANCH   7  11
ATOM     11  C   UNL     1      45.831  11.683  11.766  0.00  0.00    +0.000 C 
BRANCH  11  12
ATOM     12  C   UNL     1      46.882  11.917  10.696  0.00  0.00    +0.000 A 
ATOM     13  C   UNL     1      46.487  12.442   9.457  0.00  0.00    +0.000 A 
ATOM     14  C   UNL     1      47.415  12.606   8.426  0.00  0.00    +0.000 A 
ATOM     15  C   UNL     1      48.750  12.262   8.625  0.00  0.00    +0.000 A 
ATOM     16  C   UNL     1      49.163  11.775   9.859  0.00  0.00    +0.000 A 
ATOM     17  C   UNL     1      48.238  11.616  10.890  0.00  0.00    +0.000 A 
ENDBRANCH  11  12
ENDBRANCH   7  11
ENDBRANCH   1   7
BRANCH   4  18
ATOM     18  C   UNL     1      45.881   5.255  13.079  0.00  0.00    +0.000 C 
BRANCH  18  19
ATOM     19  N   UNL     1      46.529   5.249  14.372  0.00  0.00    +0.000 N 
ATOM     20  C   UNL     1      47.173   4.138  14.860  0.00  0.00    +0.000 C 
ATOM     21  O   UNL     1      47.313   3.121  14.190  0.00  0.00    +0.000 OA
ATOM     22  H   UNL     1      46.225   5.978  15.011  0.00  0.00    +0.000 HD
BRANCH  20  23
ATOM     23  C   UNL     1      47.754   4.255  16.203  0.00  0.00    +0.000 A 
ATOM     24  C   UNL     1      47.360   3.377  17.203  0.00  0.00    +0.000 A 
ATOM     25  S   UNL     1      48.179   3.607  18.679  0.00  0.00    +0.000 S 
ATOM     26  C   UNL     1      49.053   4.925  18.053  0.00  0.00    +0.000 A 
ATOM     27  N   UNL     1      49.945   5.606  18.823  0.00  0.00    +0.000 NA
ATOM     28  C   UNL     1      50.507   6.607  18.231  0.00  0.00    +0.000 A 
ATOM     29  N   UNL     1      50.259   6.987  16.937  0.00  0.00    +0.000 N 
ATOM     30  C   UNL     1      49.387   6.315  16.115  0.00  0.00    +0.000 A 
ATOM     31  O   UNL     1      49.210   6.663  14.952  0.00  0.00    +0.000 OA
ATOM     32  C   UNL     1      48.727   5.182  16.732  0.00  0.00    +0.000 A 
ATOM     33  H   UNL     1      50.731   7.781  16.529  0.00  0.00    +0.000 HD
ENDBRANCH  20  23
ENDBRANCH  18  19
ENDBRANCH   4  18
TORSDOF 8
ENDMDL
