MODEL 1
REMARK VINA RESULT:    -8.402      0.000      0.000
REMARK INTER + INTRA:         -11.555
REMARK INTER:                 -10.858
REMARK INTRA:                  -0.697
REMARK UNBOUND:                -0.697
REMARK  Name = 
REMARK  5 active torsions:
REMARK  status: ('A' for Active; 'I' for Inactive)
REMARK    1  A    between atoms: C_5  and  O_6
REMARK    2  A    between atoms: O_6  and  C_7
REMARK    3  A    between atoms: C_7  and  C_8
REMARK    4  A    between atoms: C_13  and  C_14
REMARK    5  A    between atoms: C_18  and  C_19
REMARK                            x       y       z     vdW  Elec       q    Type
REMARK                         _______ _______ _______ _____ _____    ______ ____
ROOT
ATOM      1  C   UNL     1      44.664   4.089  11.382  0.00  0.00    +0.000 A 
ATOM      2  C   UNL     1      43.998   5.262  11.018  0.00  0.00    +0.000 A 
ATOM      3  C   UNL     1      44.283   6.454  11.680  0.00  0.00    +0.000 A 
ATOM      4  C   UNL     1      45.229   6.477  12.706  0.00  0.00    +0.000 A 
ATOM      5  F   UNL     1      45.491   7.664  13.275  0.00  0.00    +0.000 F 
ATOM      6  C   UNL     1      45.904   5.318  13.126  0.00  0.00    +0.000 A 
ATOM      7  C   UNL     1      45.583   4.123  12.447  0.00  0.00    +0.000 A 
ENDROOT
BRANCH   6   8
ATOM      8  C   UNL     1      46.914   5.328  14.213  0.00  0.00    +0.000 A 
ATOM      9  C   UNL     1      47.854   6.361  14.328  0.00  0.00    +0.000 A 
ATOM     10  C   UNL     1      48.807   6.318  15.333  0.00  0.00    +0.000 A 
ATOM     11  N   UNL     1      48.892   5.328  16.241  0.00  0.00    +0.000 NA
ATOM     12  C   UNL     1      47.982   4.319  16.156  0.00  0.00    +0.000 A 
ATOM     13  C   UNL     1      46.993   4.299  15.166  0.00  0.00    +0.000 A 
BRANCH  12  14
ATOM     14  C   UNL     1      48.046   3.164  17.146  0.00  0.00    +0.000 C 
ATOM     15  F   UNL     1      46.831   2.730  17.588  0.00  0.00    +0.000 F 
ATOM     16  F   UNL     1      48.667   2.063  16.629  0.00  0.00    +0.000 F 
ATOM     17  F   UNL     1      48.753   3.485  18.270  0.00  0.00    +0.000 F 
ENDBRANCH  12  14
ENDBRANCH   6   8
BRANCH   1  18
ATOM     18  C   UNL     1      44.435   2.803  10.619  0.00  0.00    +0.000 C 
BRANCH  18  19
ATOM     19  O   UNL     1      44.129   3.090   9.254  0.00  0.00    +0.000 OA
BRANCH  19  24
ATOM     20  F   UNL     1      48.437   2.130   6.134  0.00  0.00    +0.000 F 
ATOM     21  C   UNL     1      47.369   2.351   6.911  0.00  0.00    +0.000 A 
ATOM     22  C   UNL     1      46.772   3.601   6.907  0.00  0.00    +0.000 A 
ATOM     23  N   UNL     1      45.688   3.902   7.667  0.00  0.00    +0.000 NA
ATOM     24  C   UNL     1      45.224   2.889   8.436  0.00  0.00    +0.000 A 
ATOM     25  C   UNL     1      45.824   1.635   8.438  0.00  0.00    +0.000 A 
ATOM     26  N   UNL     1      46.911   1.334   7.676  0.00  0.00    +0.000 NA
ENDBRANCH  19  24
ENDBRANCH  18  19
ENDBRANCH   1  18
TORSDOF 5
ENDMDL
MODEL 2
REMARK VINA RESULT:    -8.013      3.093      4.604
REMARK INTER + INTRA:         -11.053
REMARK INTER:                 -10.144
REMARK INTRA:                  -0.909
REMARK UNBOUND:                -0.697
REMARK  Name = 
REMARK  5 active torsions:
REMARK  status: ('A' for Active; 'I' for Inactive)
REMARK    1  A    between atoms: C_5  and  O_6
REMARK    2  A    between atoms: O_6  and  C_7
REMARK    3  A    between atoms: C_7  and  C_8
REMARK    4  A    between atoms: C_13  and  C_14
REMARK    5  A    between atoms: C_18  and  C_19
REMARK                            x       y       z     vdW  Elec       q    Type
REMARK                         _______ _______ _______ _____ _____    ______ ____
ROOT
ATOM      1  C   UNL     1      45.013   4.354  11.025  0.00  0.00    +0.000 A 
ATOM      2  C   UNL     1      45.137   3.544  12.157  0.00  0.00    +0.000 A 
ATOM      3  C   UNL     1      45.879   3.989  13.248  0.00  0.00    +0.000 A 
ATOM      4  C   UNL     1      46.499   5.239  13.211  0.00  0.00    +0.000 A 
ATOM      5  F   UNL     1      47.163   5.629  14.311  0.00  0.00    +0.000 F 
ATOM      6  C   UNL     1      46.426   6.076  12.085  0.00  0.00    +0.000 A 
ATOM      7  C   UNL     1      45.681   5.591  10.989  0.00  0.00    +0.000 A 
ENDROOT
BRANCH   6   8
ATOM      8  C   UNL     1      47.078   7.408  12.031  0.00  0.00    +0.000 A 
ATOM      9  C   UNL     1      46.342   8.590  12.199  0.00  0.00    +0.000 A 
ATOM     10  C   UNL     1      46.977   9.817  12.105  0.00  0.00    +0.000 A 
ATOM     11  N   UNL     1      48.294   9.962  11.864  0.00  0.00    +0.000 NA
ATOM     12  C   UNL     1      49.031   8.827  11.709  0.00  0.00    +0.000 A 
ATOM     13  C   UNL     1      48.454   7.555  11.792  0.00  0.00    +0.000 A 
BRANCH  12  14
ATOM     14  C   UNL     1      50.522   8.934  11.414  0.00  0.00    +0.000 C 
ATOM     15  F   UNL     1      51.312   9.006  12.523  0.00  0.00    +0.000 F 
ATOM     16  F   UNL     1      50.991   7.877  10.691  0.00  0.00    +0.000 F 
ATOM     17  F   UNL     1      50.824  10.042  10.675  0.00  0.00    +0.000 F 
ENDBRANCH  12  14
ENDBRANCH   6   8
BRANCH   1  18
ATOM     18  C   UNL     1      44.141   3.928   9.864  0.00  0.00    +0.000 C 
BRANCH  18  19
ATOM     19  O   UNL     1      44.405   2.566   9.525  0.00  0.00    +0.000 OA
BRANCH  19  24
ATOM     20  F   UNL     1      48.047   2.345   5.538  0.00  0.00    +0.000 F 
ATOM     21  C   UNL     1      47.141   2.417   6.522  0.00  0.00    +0.000 A 
ATOM     22  C   UNL     1      47.000   1.350   7.395  0.00  0.00    +0.000 A 
ATOM     23  N   UNL     1      46.105   1.348   8.415  0.00  0.00    +0.000 NA
ATOM     24  C   UNL     1      45.352   2.467   8.525  0.00  0.00    +0.000 A 
ATOM     25  C   UNL     1      45.496   3.536   7.649  0.00  0.00    +0.000 A 
ATOM     26  N   UNL     1      46.394   3.539   6.626  0.00  0.00    +0.000 NA
ENDBRANCH  19  24
ENDBRANCH  18  19
ENDBRANCH   1  18
TORSDOF 5
ENDMDL
MODEL 3
REMARK VINA RESULT:    -7.946      2.714      5.188
REMARK INTER + INTRA:         -10.965
REMARK INTER:                 -10.254
REMARK INTRA:                  -0.711
REMARK UNBOUND:                -0.697
REMARK  Name = 
REMARK  5 active torsions:
REMARK  status: ('A' for Active; 'I' for Inactive)
REMARK    1  A    between atoms: C_5  and  O_6
REMARK    2  A    between atoms: O_6  and  C_7
REMARK    3  A    between atoms: C_7  and  C_8
REMARK    4  A    between atoms: C_13  and  C_14
REMARK    5  A    between atoms: C_18  and  C_19
REMARK                            x       y       z     vdW  Elec       q    Type
REMARK                         _______ _______ _______ _____ _____    ______ ____
ROOT
ATOM      1  C   UNL     1      44.963   4.220  11.525  0.00  0.00    +0.000 A 
ATOM      2  C   UNL     1      45.499   3.475  12.580  0.00  0.00    +0.000 A 
ATOM      3  C   UNL     1      46.360   4.084  13.489  0.00  0.00    +0.000 A 
ATOM      4  C   UNL     1      46.691   5.433  13.347  0.00  0.00    +0.000 A 
ATOM      5  F   UNL     1      47.490   5.972  14.281  0.00  0.00    +0.000 F 
ATOM      6  C   UNL     1      46.199   6.215  12.287  0.00  0.00    +0.000 A 
ATOM      7  C   UNL     1      45.342   5.566  11.373  0.00  0.00    +0.000 A 
ENDROOT
BRANCH   6   8
ATOM      8  C   UNL     1      46.540   7.650  12.125  0.00  0.00    +0.000 A 
ATOM      9  C   UNL     1      47.864   8.102  12.225  0.00  0.00    +0.000 A 
ATOM     10  C   UNL     1      48.142   9.454  12.105  0.00  0.00    +0.000 A 
ATOM     11  N   UNL     1      47.203  10.394  11.887  0.00  0.00    +0.000 NA
ATOM     12  C   UNL     1      45.912   9.976  11.775  0.00  0.00    +0.000 A 
ATOM     13  C   UNL     1      45.560   8.626  11.884  0.00  0.00    +0.000 A 
BRANCH  12  14
ATOM     14  C   UNL     1      44.808  11.001  11.547  0.00  0.00    +0.000 C 
ATOM     15  F   UNL     1      45.084  12.245  12.032  0.00  0.00    +0.000 F 
ATOM     16  F   UNL     1      44.517  11.174  10.225  0.00  0.00    +0.000 F 
ATOM     17  F   UNL     1      43.631  10.631  12.133  0.00  0.00    +0.000 F 
ENDBRANCH  12  14
ENDBRANCH   6   8
BRANCH   1  18
ATOM     18  C   UNL     1      43.958   3.603  10.578  0.00  0.00    +0.000 C 
BRANCH  18  19
ATOM     19  O   UNL     1      44.151   4.108   9.257  0.00  0.00    +0.000 OA
BRANCH  19  24
ATOM     20  F   UNL     1      47.969   1.225   6.742  0.00  0.00    +0.000 F 
ATOM     21  C   UNL     1      47.016   1.925   7.373  0.00  0.00    +0.000 A 
ATOM     22  C   UNL     1      46.875   3.276   7.103  0.00  0.00    +0.000 A 
ATOM     23  N   UNL     1      45.936   4.052   7.701  0.00  0.00    +0.000 NA
ATOM     24  C   UNL     1      45.137   3.411   8.586  0.00  0.00    +0.000 A 
ATOM     25  C   UNL     1      45.280   2.055   8.854  0.00  0.00    +0.000 A 
ATOM     26  N   UNL     1      46.222   1.278   8.254  0.00  0.00    +0.000 NA
ENDBRANCH  19  24
ENDBRANCH  18  19
ENDBRANCH   1  18
TORSDOF 5
ENDMDL
MODEL 4
REMARK VINA RESULT:    -7.698      1.880      2.444
REMARK INTER + INTRA:         -10.645
REMARK INTER:                  -9.650
REMARK INTRA:                  -0.995
REMARK UNBOUND:                -0.697
REMARK  Name = 
REMARK  5 active torsions:
REMARK  status: ('A' for Active; 'I' for Inactive)
REMARK    1  A    between atoms: C_5  and  O_6
REMARK    2  A    between atoms: O_6  and  C_7
REMARK    3  A    between atoms: C_7  and  C_8
REMARK    4  A    between atoms: C_13  and  C_14
REMARK    5  A    between atoms: C_18  and  C_19
REMARK                            x       y       z     vdW  Elec       q    Type
REMARK                         _______ _______ _______ _____ _____    ______ ____
ROOT
ATOM      1  C   UNL     1      44.564   4.397  11.128  0.00  0.00    +0.000 A 
ATOM      2  C   UNL     1      43.469   5.260  11.023  0.00  0.00    +0.000 A 
ATOM      3  C   UNL     1      43.605   6.597  11.390  0.00  0.00    +0.000 A 
ATOM      4  C   UNL     1      44.829   7.073  11.863  0.00  0.00    +0.000 A 
ATOM      5  F   UNL     1      44.908   8.380  12.158  0.00  0.00    +0.000 F 
ATOM      6  C   UNL     1      45.949   6.237  12.011  0.00  0.00    +0.000 A 
ATOM      7  C   UNL     1      45.776   4.885  11.647  0.00  0.00    +0.000 A 
ENDROOT
BRANCH   6   8
ATOM      8  C   UNL     1      47.257   6.730  12.511  0.00  0.00    +0.000 A 
ATOM      9  C   UNL     1      48.152   7.405  11.670  0.00  0.00    +0.000 A 
ATOM     10  C   UNL     1      49.381   7.818  12.161  0.00  0.00    +0.000 A 
ATOM     11  N   UNL     1      49.786   7.616  13.429  0.00  0.00    +0.000 NA
ATOM     12  C   UNL     1      48.928   6.971  14.266  0.00  0.00    +0.000 A 
ATOM     13  C   UNL     1      47.671   6.528  13.837  0.00  0.00    +0.000 A 
BRANCH  12  14
ATOM     14  C   UNL     1      49.345   6.699  15.705  0.00  0.00    +0.000 C 
ATOM     15  F   UNL     1      50.687   6.539  15.883  0.00  0.00    +0.000 F 
ATOM     16  F   UNL     1      48.975   7.699  16.557  0.00  0.00    +0.000 F 
ATOM     17  F   UNL     1      48.769   5.566  16.205  0.00  0.00    +0.000 F 
ENDBRANCH  12  14
ENDBRANCH   6   8
BRANCH   1  18
ATOM     18  C   UNL     1      44.463   2.964  10.653  0.00  0.00    +0.000 C 
BRANCH  18  19
ATOM     19  O   UNL     1      44.072   2.927   9.280  0.00  0.00    +0.000 OA
BRANCH  19  24
ATOM     20  F   UNL     1      48.377   2.217   6.091  0.00  0.00    +0.000 F 
ATOM     21  C   UNL     1      47.310   2.376   6.885  0.00  0.00    +0.000 A 
ATOM     22  C   UNL     1      46.651   3.594   6.902  0.00  0.00    +0.000 A 
ATOM     23  N   UNL     1      45.565   3.832   7.680  0.00  0.00    +0.000 NA
ATOM     24  C   UNL     1      45.164   2.790   8.445  0.00  0.00    +0.000 A 
ATOM     25  C   UNL     1      45.826   1.569   8.426  0.00  0.00    +0.000 A 
ATOM     26  N   UNL     1      46.916   1.331   7.646  0.00  0.00    +0.000 NA
ENDBRANCH  19  24
ENDBRANCH  18  19
ENDBRANCH   1  18
TORSDOF 5
ENDMDL
MODEL 5
REMARK VINA RESULT:    -7.626      2.153      2.773
REMARK INTER + INTRA:         -10.552
REMARK INTER:                  -9.736
REMARK INTRA:                  -0.816
REMARK UNBOUND:                -0.697
REMARK  Name = 
REMARK  5 active torsions:
REMARK  status: ('A' for Active; 'I' for Inactive)
REMARK    1  A    between atoms: C_5  and  O_6
REMARK    2  A    between atoms: O_6  and  C_7
REMARK    3  A    between atoms: C_7  and  C_8
REMARK    4  A    between atoms: C_13  and  C_14
REMARK    5  A    between atoms: C_18  and  C_19
REMARK                            x       y       z     vdW  Elec       q    Type
REMARK                         _______ _______ _______ _____ _____    ______ ____
ROOT
ATOM      1  C   UNL     1      44.321   3.712  10.491  0.00  0.00    +0.000 A 
ATOM      2  C   UNL     1      43.373   4.726  10.328  0.00  0.00    +0.000 A 
ATOM      3  C   UNL     1      43.411   5.848  11.154  0.00  0.00    +0.000 A 
ATOM      4  C   UNL     1      44.390   5.958  12.141  0.00  0.00    +0.000 A 
ATOM      5  F   UNL     1      44.401   7.083  12.875  0.00  0.00    +0.000 F 
ATOM      6  C   UNL     1      45.348   4.952  12.360  0.00  0.00    +0.000 A 
ATOM      7  C   UNL     1      45.274   3.821  11.520  0.00  0.00    +0.000 A 
ENDROOT
BRANCH   6   8
ATOM      8  C   UNL     1      46.396   5.057  13.406  0.00  0.00    +0.000 A 
ATOM      9  C   UNL     1      46.429   4.179  14.498  0.00  0.00    +0.000 A 
ATOM     10  C   UNL     1      47.399   4.330  15.475  0.00  0.00    +0.000 A 
ATOM     11  N   UNL     1      48.347   5.286  15.447  0.00  0.00    +0.000 NA
ATOM     12  C   UNL     1      48.341   6.143  14.389  0.00  0.00    +0.000 A 
ATOM     13  C   UNL     1      47.391   6.047  13.367  0.00  0.00    +0.000 A 
BRANCH  12  14
ATOM     14  C   UNL     1      49.380   7.255  14.318  0.00  0.00    +0.000 C 
ATOM     15  F   UNL     1      49.883   7.478  13.071  0.00  0.00    +0.000 F 
ATOM     16  F   UNL     1      48.892   8.457  14.742  0.00  0.00    +0.000 F 
ATOM     17  F   UNL     1      50.462   7.003  15.112  0.00  0.00    +0.000 F 
ENDBRANCH  12  14
ENDBRANCH   6   8
BRANCH   1  18
ATOM     18  C   UNL     1      44.353   2.528   9.550  0.00  0.00    +0.000 C 
BRANCH  18  19
ATOM     19  O   UNL     1      45.670   1.982   9.490  0.00  0.00    +0.000 OA
BRANCH  19  24
ATOM     20  F   UNL     1      47.995   2.541   4.643  0.00  0.00    +0.000 F 
ATOM     21  C   UNL     1      47.423   2.386   5.844  0.00  0.00    +0.000 A 
ATOM     22  C   UNL     1      46.677   3.422   6.382  0.00  0.00    +0.000 A 
ATOM     23  N   UNL     1      46.069   3.341   7.592  0.00  0.00    +0.000 NA
ATOM     24  C   UNL     1      46.241   2.168   8.246  0.00  0.00    +0.000 A 
ATOM     25  C   UNL     1      46.989   1.130   7.705  0.00  0.00    +0.000 A 
ATOM     26  N   UNL     1      47.599   1.212   6.491  0.00  0.00    +0.000 NA
ENDBRANCH  19  24
ENDBRANCH  18  19
ENDBRANCH   1  18
TORSDOF 5
ENDMDL
MODEL 6
REMARK VINA RESULT:    -7.539      2.740      7.893
REMARK INTER + INTRA:         -10.439
REMARK INTER:                  -9.498
REMARK INTRA:                  -0.941
REMARK UNBOUND:                -0.697
REMARK  Name = 
REMARK  5 active torsions:
REMARK  status: ('A' for Active; 'I' for Inactive)
REMARK    1  A    between atoms: C_5  and  O_6
REMARK    2  A    between atoms: O_6  and  C_7
REMARK    3  A    between atoms: C_7  and  C_8
REMARK    4  A    between atoms: C_13  and  C_14
REMARK    5  A    between atoms: C_18  and  C_19
REMARK                            x       y       z     vdW  Elec       q    Type
REMARK                         _______ _______ _______ _____ _____    ______ ____
ROOT
ATOM      1  C   UNL     1      47.254   7.613  13.305  0.00  0.00    +0.000 A 
ATOM      2  C   UNL     1      46.706   8.855  12.971  0.00  0.00    +0.000 A 
ATOM      3  C   UNL     1      45.536   8.915  12.217  0.00  0.00    +0.000 A 
ATOM      4  C   UNL     1      44.914   7.740  11.793  0.00  0.00    +0.000 A 
ATOM      5  F   UNL     1      43.767   7.863  11.107  0.00  0.00    +0.000 F 
ATOM      6  C   UNL     1      45.443   6.469  12.081  0.00  0.00    +0.000 A 
ATOM      7  C   UNL     1      46.637   6.441  12.832  0.00  0.00    +0.000 A 
ENDROOT
BRANCH   6   8
ATOM      8  C   UNL     1      44.792   5.211  11.638  0.00  0.00    +0.000 A 
ATOM      9  C   UNL     1      43.819   4.576  12.424  0.00  0.00    +0.000 A 
ATOM     10  C   UNL     1      43.260   3.383  11.998  0.00  0.00    +0.000 A 
ATOM     11  N   UNL     1      43.588   2.772  10.844  0.00  0.00    +0.000 NA
ATOM     12  C   UNL     1      44.522   3.377  10.059  0.00  0.00    +0.000 A 
ATOM     13  C   UNL     1      45.127   4.584  10.428  0.00  0.00    +0.000 A 
BRANCH  12  14
ATOM     14  C   UNL     1      44.944   2.719   8.752  0.00  0.00    +0.000 C 
ATOM     15  F   UNL     1      44.317   3.209   7.645  0.00  0.00    +0.000 F 
ATOM     16  F   UNL     1      46.281   2.846   8.508  0.00  0.00    +0.000 F 
ATOM     17  F   UNL     1      44.701   1.375   8.748  0.00  0.00    +0.000 F 
ENDBRANCH  12  14
ENDBRANCH   6   8
BRANCH   1  18
ATOM     18  C   UNL     1      48.473   7.523  14.196  0.00  0.00    +0.000 C 
BRANCH  18  19
ATOM     19  O   UNL     1      48.776   6.157  14.479  0.00  0.00    +0.000 OA
BRANCH  19  24
ATOM     20  F   UNL     1      47.838   5.087  19.693  0.00  0.00    +0.000 F 
ATOM     21  C   UNL     1      48.074   5.369  18.405  0.00  0.00    +0.000 A 
ATOM     22  C   UNL     1      47.765   4.429  17.436  0.00  0.00    +0.000 A 
ATOM     23  N   UNL     1      47.976   4.640  16.112  0.00  0.00    +0.000 NA
ATOM     24  C   UNL     1      48.513   5.842  15.798  0.00  0.00    +0.000 A 
ATOM     25  C   UNL     1      48.822   6.784  16.771  0.00  0.00    +0.000 A 
ATOM     26  N   UNL     1      48.611   6.572  18.099  0.00  0.00    +0.000 NA
ENDBRANCH  19  24
ENDBRANCH  18  19
ENDBRANCH   1  18
TORSDOF 5
ENDMDL
MODEL 7
REMARK VINA RESULT:    -7.480      3.077      4.379
REMARK INTER + INTRA:         -10.363
REMARK INTER:                  -9.430
REMARK INTRA:                  -0.933
REMARK UNBOUND:                -0.697
REMARK  Name = 
REMARK  5 active torsions:
REMARK  status: ('A' for Active; 'I' for Inactive)
REMARK    1  A    between atoms: C_5  and  O_6
REMARK    2  A    between atoms: O_6  and  C_7
REMARK    3  A    between atoms: C_7  and  C_8
REMARK    4  A    between atoms: C_13  and  C_14
REMARK    5  A    between atoms: C_18  and  C_19
REMARK                            x       y       z     vdW  Elec       q    Type
REMARK                         _______ _______ _______ _____ _____    ______ ____
ROOT
ATOM      1  C   UNL     1      44.316   3.914  10.417  0.00  0.00    +0.000 A 
ATOM      2  C   UNL     1      43.177   3.966  11.226  0.00  0.00    +0.000 A 
ATOM      3  C   UNL     1      43.145   4.827  12.321  0.00  0.00    +0.000 A 
ATOM      4  C   UNL     1      44.246   5.635  12.610  0.00  0.00    +0.000 A 
ATOM      5  F   UNL     1      44.136   6.475  13.651  0.00  0.00    +0.000 F 
ATOM      6  C   UNL     1      45.423   5.597  11.841  0.00  0.00    +0.000 A 
ATOM      7  C   UNL     1      45.432   4.703  10.750  0.00  0.00    +0.000 A 
ENDROOT
BRANCH   6   8
ATOM      8  C   UNL     1      46.600   6.450  12.136  0.00  0.00    +0.000 A 
ATOM      9  C   UNL     1      47.740   5.931  12.766  0.00  0.00    +0.000 A 
ATOM     10  C   UNL     1      48.806   6.765  13.061  0.00  0.00    +0.000 A 
ATOM     11  N   UNL     1      48.830   8.079  12.770  0.00  0.00    +0.000 NA
ATOM     12  C   UNL     1      47.738   8.603  12.148  0.00  0.00    +0.000 A 
ATOM     13  C   UNL     1      46.627   7.818  11.821  0.00  0.00    +0.000 A 
BRANCH  12  14
ATOM     14  C   UNL     1      47.706  10.089  11.814  0.00  0.00    +0.000 C 
ATOM     15  F   UNL     1      47.976  10.910  12.869  0.00  0.00    +0.000 F 
ATOM     16  F   UNL     1      48.600  10.429  10.841  0.00  0.00    +0.000 F 
ATOM     17  F   UNL     1      46.487  10.486  11.342  0.00  0.00    +0.000 F 
ENDBRANCH  12  14
ENDBRANCH   6   8
BRANCH   1  18
ATOM     18  C   UNL     1      44.339   3.051   9.174  0.00  0.00    +0.000 C 
BRANCH  18  19
ATOM     19  O   UNL     1      45.499   2.219   9.175  0.00  0.00    +0.000 OA
BRANCH  19  24
ATOM     20  F   UNL     1      48.272   2.374   4.538  0.00  0.00    +0.000 F 
ATOM     21  C   UNL     1      47.590   2.319   5.690  0.00  0.00    +0.000 A 
ATOM     22  C   UNL     1      46.745   3.363   6.031  0.00  0.00    +0.000 A 
ATOM     23  N   UNL     1      46.023   3.381   7.179  0.00  0.00    +0.000 NA
ATOM     24  C   UNL     1      46.183   2.300   7.978  0.00  0.00    +0.000 A 
ATOM     25  C   UNL     1      47.030   1.253   7.634  0.00  0.00    +0.000 A 
ATOM     26  N   UNL     1      47.754   1.236   6.482  0.00  0.00    +0.000 NA
ENDBRANCH  19  24
ENDBRANCH  18  19
ENDBRANCH   1  18
TORSDOF 5
ENDMDL
MODEL 8
REMARK VINA RESULT:    -7.398      3.535      4.201
REMARK INTER + INTRA:         -10.257
REMARK INTER:                  -9.268
REMARK INTRA:                  -0.990
REMARK UNBOUND:                -0.697
REMARK  Name = 
REMARK  5 active torsions:
REMARK  status: ('A' for Active; 'I' for Inactive)
REMARK    1  A    between atoms: C_5  and  O_6
REMARK    2  A    between atoms: O_6  and  C_7
REMARK    3  A    between atoms: C_7  and  C_8
REMARK    4  A    between atoms: C_13  and  C_14
REMARK    5  A    between atoms: C_18  and  C_19
REMARK                            x       y       z     vdW  Elec       q    Type
REMARK                         _______ _______ _______ _____ _____    ______ ____
ROOT
ATOM      1  C   UNL     1      44.768   5.488  11.456  0.00  0.00    +0.000 A 
ATOM      2  C   UNL     1      43.892   6.557  11.247  0.00  0.00    +0.000 A 
ATOM      3  C   UNL     1      44.319   7.860  11.497  0.00  0.00    +0.000 A 
ATOM      4  C   UNL     1      45.615   8.097  11.955  0.00  0.00    +0.000 A 
ATOM      5  F   UNL     1      45.980   9.376  12.135  0.00  0.00    +0.000 F 
ATOM      6  C   UNL     1      46.522   7.052  12.206  0.00  0.00    +0.000 A 
ATOM      7  C   UNL     1      46.056   5.743  11.960  0.00  0.00    +0.000 A 
ENDROOT
BRANCH   6   8
ATOM      8  C   UNL     1      47.904   7.290  12.693  0.00  0.00    +0.000 A 
ATOM      9  C   UNL     1      48.231   7.170  14.051  0.00  0.00    +0.000 A 
ATOM     10  C   UNL     1      49.522   7.436  14.475  0.00  0.00    +0.000 A 
ATOM     11  N   UNL     1      50.520   7.807  13.650  0.00  0.00    +0.000 NA
ATOM     12  C   UNL     1      50.227   7.918  12.325  0.00  0.00    +0.000 A 
ATOM     13  C   UNL     1      48.944   7.664  11.828  0.00  0.00    +0.000 A 
BRANCH  12  14
ATOM     14  C   UNL     1      51.314   8.353  11.350  0.00  0.00    +0.000 C 
ATOM     15  F   UNL     1      52.532   8.571  11.924  0.00  0.00    +0.000 F 
ATOM     16  F   UNL     1      51.529   7.439  10.360  0.00  0.00    +0.000 F 
ATOM     17  F   UNL     1      50.997   9.516  10.708  0.00  0.00    +0.000 F 
ENDBRANCH  12  14
ENDBRANCH   6   8
BRANCH   1  18
ATOM     18  C   UNL     1      44.355   4.074  11.109  0.00  0.00    +0.000 C 
BRANCH  18  19
ATOM     19  O   UNL     1      43.928   4.007   9.748  0.00  0.00    +0.000 OA
BRANCH  19  24
ATOM     20  F   UNL     1      47.690   1.609   6.697  0.00  0.00    +0.000 F 
ATOM     21  C   UNL     1      46.753   2.188   7.460  0.00  0.00    +0.000 A 
ATOM     22  C   UNL     1      46.479   3.535   7.294  0.00  0.00    +0.000 A 
ATOM     23  N   UNL     1      45.546   4.192   8.028  0.00  0.00    +0.000 NA
ATOM     24  C   UNL     1      44.894   3.436   8.942  0.00  0.00    +0.000 A 
ATOM     25  C   UNL     1      45.170   2.084   9.106  0.00  0.00    +0.000 A 
ATOM     26  N   UNL     1      46.106   1.425   8.369  0.00  0.00    +0.000 NA
ENDBRANCH  19  24
ENDBRANCH  18  19
ENDBRANCH   1  18
TORSDOF 5
ENDMDL
MODEL 9
REMARK VINA RESULT:    -7.332      3.297      7.963
REMARK INTER + INTRA:         -10.173
REMARK INTER:                  -9.353
REMARK INTRA:                  -0.819
REMARK UNBOUND:                -0.697
REMARK  Name = 
REMARK  5 active torsions:
REMARK  status: ('A' for Active; 'I' for Inactive)
REMARK    1  A    between atoms: C_5  and  O_6
REMARK    2  A    between atoms: O_6  and  C_7
REMARK    3  A    between atoms: C_7  and  C_8
REMARK    4  A    between atoms: C_13  and  C_14
REMARK    5  A    between atoms: C_18  and  C_19
REMARK                            x       y       z     vdW  Elec       q    Type
REMARK                         _______ _______ _______ _____ _____    ______ ____
ROOT
ATOM      1  C   UNL     1      47.572   4.813  15.414  0.00  0.00    +0.000 A 
ATOM      2  C   UNL     1      48.319   5.952  15.099  0.00  0.00    +0.000 A 
ATOM      3  C   UNL     1      48.067   6.639  13.914  0.00  0.00    +0.000 A 
ATOM      4  C   UNL     1      47.073   6.191  13.042  0.00  0.00    +0.000 A 
ATOM      5  F   UNL     1      46.849   6.921  11.938  0.00  0.00    +0.000 F 
ATOM      6  C   UNL     1      46.315   5.036  13.303  0.00  0.00    +0.000 A 
ATOM      7  C   UNL     1      46.605   4.352  14.503  0.00  0.00    +0.000 A 
ENDROOT
BRANCH   6   8
ATOM      8  C   UNL     1      45.255   4.549  12.386  0.00  0.00    +0.000 A 
ATOM      9  C   UNL     1      43.897   4.775  12.655  0.00  0.00    +0.000 A 
ATOM     10  C   UNL     1      42.932   4.273  11.797  0.00  0.00    +0.000 A 
ATOM     11  N   UNL     1      43.213   3.567  10.685  0.00  0.00    +0.000 NA
ATOM     12  C   UNL     1      44.526   3.346  10.399  0.00  0.00    +0.000 A 
ATOM     13  C   UNL     1      45.552   3.825  11.221  0.00  0.00    +0.000 A 
BRANCH  12  14
ATOM     14  C   UNL     1      44.899   2.536   9.163  0.00  0.00    +0.000 C 
ATOM     15  F   UNL     1      46.239   2.359   8.989  0.00  0.00    +0.000 F 
ATOM     16  F   UNL     1      44.357   1.284   9.173  0.00  0.00    +0.000 F 
ATOM     17  F   UNL     1      44.451   3.117   8.011  0.00  0.00    +0.000 F 
ENDBRANCH  12  14
ENDBRANCH   6   8
BRANCH   1  18
ATOM     18  C   UNL     1      47.769   4.104  16.736  0.00  0.00    +0.000 C 
BRANCH  18  19
ATOM     19  O   UNL     1      48.941   4.593  17.387  0.00  0.00    +0.000 OA
BRANCH  19  24
ATOM     20  F   UNL     1      52.697   0.709  17.514  0.00  0.00    +0.000 F 
ATOM     21  C   UNL     1      51.755   1.661  17.474  0.00  0.00    +0.000 A 
ATOM     22  C   UNL     1      52.074   2.949  17.871  0.00  0.00    +0.000 A 
ATOM     23  N   UNL     1      51.175   3.966  17.861  0.00  0.00    +0.000 NA
ATOM     24  C   UNL     1      49.935   3.635  17.431  0.00  0.00    +0.000 A 
ATOM     25  C   UNL     1      49.618   2.342  17.032  0.00  0.00    +0.000 A 
ATOM     26  N   UNL     1      50.520   1.322  17.044  0.00  0.00    +0.000 NA
ENDBRANCH  19  24
ENDBRANCH  18  19
ENDBRANCH   1  18
TORSDOF 5
ENDMDL
