MODEL 1
REMARK VINA RESULT:    -8.207      0.000      0.000
REMARK INTER + INTRA:         -13.090
REMARK INTER:                 -12.525
REMARK INTRA:                  -0.565
REMARK UNBOUND:                -0.565
REMARK  Name = 
REMARK  11 active torsions:
REMARK  status: ('A' for Active; 'I' for Inactive)
REMARK    1  A    between atoms: C_1  and  C_2
REMARK    2  A    between atoms: C_2  and  C_3
REMARK    3  A    between atoms: C_2  and  C_14
REMARK    4  A    between atoms: C_3  and  N_4
REMARK    5  A    between atoms: C_7  and  C_8
REMARK    6  A    between atoms: C_8  and  O_9
REMARK    7  A    between atoms: C_10  and  C_11
REMARK    8  A    between atoms: C_11  and  O_12
REMARK    9  A    between atoms: C_17  and  C_18
REMARK   10  A    between atoms: C_18  and  N_19
REMARK   11  A    between atoms: C_20  and  C_22
REMARK                            x       y       z     vdW  Elec       q    Type
REMARK                         _______ _______ _______ _____ _____    ______ ____
ROOT
ATOM      1  C   UNL     1      45.172   5.475  11.753  0.00  0.00    +0.000 A 
ATOM      2  C   UNL     1      45.562   4.627  12.791  0.00  0.00    +0.000 A 
ATOM      3  C   UNL     1      46.655   4.974  13.581  0.00  0.00    +0.000 A 
ATOM      4  C   UNL     1      47.349   6.154  13.314  0.00  0.00    +0.000 A 
ATOM      5  C   UNL     1      46.911   6.923  12.245  0.00  0.00    +0.000 A 
ATOM      6  N   UNL     1      45.841   6.619  11.479  0.00  0.00    +0.000 NA
ENDROOT
BRANCH   1   8
ATOM      7  C   UNL     1      42.635   5.437  11.532  0.00  0.00    +0.000 C 
ATOM      8  C   UNL     1      43.986   5.113  10.873  0.00  0.00    +0.000 C 
BRANCH   8   9
ATOM      9  C   UNL     1      44.058   3.621  10.459  0.00  0.00    +0.000 C 
BRANCH   9  10
ATOM     10  N   UNL     1      44.705   3.358   9.157  0.00  0.00    +0.000 NA
ATOM     11  C   UNL     1      45.647   4.415   8.780  0.00  0.00    +0.000 C 
ATOM     12  C   UNL     1      46.165   4.170   7.371  0.00  0.00    +0.000 C 
ATOM     13  C   UNL     1      46.864   2.808   7.248  0.00  0.00    +0.000 C 
ATOM     14  C   UNL     1      45.965   1.677   7.811  0.00  0.00    +0.000 C 
ATOM     15  C   UNL     1      45.386   2.054   9.190  0.00  0.00    +0.000 C 
BRANCH  13  16
ATOM     16  C   UNL     1      47.253   2.569   5.783  0.00  0.00    +0.000 C 
BRANCH  16  17
ATOM     17  O   UNL     1      48.517   1.919   5.701  0.00  0.00    +0.000 OA
ATOM     18  H   UNL     1      48.578   1.291   6.440  0.00  0.00    +0.000 HD
ENDBRANCH  16  17
ENDBRANCH  13  16
BRANCH  14  19
ATOM     19  C   UNL     1      46.684   0.322   7.922  0.00  0.00    +0.000 C 
BRANCH  19  20
ATOM     20  O   UNL     1      46.685  -0.399   6.696  0.00  0.00    +0.000 OA
ATOM     21  H   UNL     1      47.600  -0.588   6.436  0.00  0.00    +0.000 HD
ENDBRANCH  19  20
ENDBRANCH  14  19
ENDBRANCH   9  10
ENDBRANCH   8   9
ENDBRANCH   1   8
BRANCH   4  22
ATOM     22  C   UNL     1      48.574   6.546  14.079  0.00  0.00    +0.000 C 
BRANCH  22  23
ATOM     23  N   UNL     1      48.240   6.832  15.450  0.00  0.00    +0.000 N 
ATOM     24  C   UNL     1      49.022   6.394  16.483  0.00  0.00    +0.000 C 
ATOM     25  O   UNL     1      50.073   5.787  16.292  0.00  0.00    +0.000 OA
ATOM     26  H   UNL     1      47.287   7.128  15.640  0.00  0.00    +0.000 HD
BRANCH  24  27
ATOM     27  C   UNL     1      48.568   6.743  17.833  0.00  0.00    +0.000 A 
ATOM     28  C   UNL     1      48.187   8.049  18.112  0.00  0.00    +0.000 A 
ATOM     29  S   UNL     1      47.647   8.277  19.713  0.00  0.00    +0.000 S 
ATOM     30  C   UNL     1      47.946   6.648  20.104  0.00  0.00    +0.000 A 
ATOM     31  N   UNL     1      47.711   6.179  21.358  0.00  0.00    +0.000 NA
ATOM     32  C   UNL     1      48.009   4.933  21.526  0.00  0.00    +0.000 A 
ATOM     33  N   UNL     1      48.512   4.112  20.550  0.00  0.00    +0.000 N 
ATOM     34  C   UNL     1      48.735   4.530  19.261  0.00  0.00    +0.000 A 
ATOM     35  O   UNL     1      49.142   3.764  18.393  0.00  0.00    +0.000 OA
ATOM     36  C   UNL     1      48.434   5.934  19.024  0.00  0.00    +0.000 A 
ATOM     37  H   UNL     1      48.711   3.141  20.744  0.00  0.00    +0.000 HD
ENDBRANCH  24  27
ENDBRANCH  22  23
ENDBRANCH   4  22
TORSDOF 10
ENDMDL
MODEL 2
REMARK VINA RESULT:    -7.747      3.178      9.286
REMARK INTER + INTRA:         -12.388
REMARK INTER:                 -11.192
REMARK INTRA:                  -1.196
REMARK UNBOUND:                -0.565
REMARK  Name = 
REMARK  11 active torsions:
REMARK  status: ('A' for Active; 'I' for Inactive)
REMARK    1  A    between atoms: C_1  and  C_2
REMARK    2  A    between atoms: C_2  and  C_3
REMARK    3  A    between atoms: C_2  and  C_14
REMARK    4  A    between atoms: C_3  and  N_4
REMARK    5  A    between atoms: C_7  and  C_8
REMARK    6  A    between atoms: C_8  and  O_9
REMARK    7  A    between atoms: C_10  and  C_11
REMARK    8  A    between atoms: C_11  and  O_12
REMARK    9  A    between atoms: C_17  and  C_18
REMARK   10  A    between atoms: C_18  and  N_19
REMARK   11  A    between atoms: C_20  and  C_22
REMARK                            x       y       z     vdW  Elec       q    Type
REMARK                         _______ _______ _______ _____ _____    ______ ____
ROOT
ATOM      1  C   UNL     1      49.763   8.379  15.530  0.00  0.00    +0.000 A 
ATOM      2  C   UNL     1      48.446   8.825  15.408  0.00  0.00    +0.000 A 
ATOM      3  C   UNL     1      47.788   8.682  14.190  0.00  0.00    +0.000 A 
ATOM      4  C   UNL     1      48.459   8.108  13.110  0.00  0.00    +0.000 A 
ATOM      5  C   UNL     1      49.776   7.718  13.311  0.00  0.00    +0.000 A 
ATOM      6  N   UNL     1      50.427   7.828  14.489  0.00  0.00    +0.000 NA
ENDROOT
BRANCH   1   8
ATOM      7  C   UNL     1      52.030   8.439  16.690  0.00  0.00    +0.000 C 
ATOM      8  C   UNL     1      50.504   8.531  16.850  0.00  0.00    +0.000 C 
BRANCH   8   9
ATOM      9  C   UNL     1      49.989   7.493  17.880  0.00  0.00    +0.000 C 
BRANCH   9  10
ATOM     10  N   UNL     1      50.137   6.079  17.476  0.00  0.00    +0.000 NA
ATOM     11  C   UNL     1      51.270   5.426  18.137  0.00  0.00    +0.000 C 
ATOM     12  C   UNL     1      51.464   4.028  17.572  0.00  0.00    +0.000 C 
ATOM     13  C   UNL     1      50.210   3.159  17.754  0.00  0.00    +0.000 C 
ATOM     14  C   UNL     1      48.952   3.897  17.230  0.00  0.00    +0.000 C 
ATOM     15  C   UNL     1      48.892   5.346  17.755  0.00  0.00    +0.000 C 
BRANCH  13  16
ATOM     16  C   UNL     1      50.425   1.808  17.059  0.00  0.00    +0.000 C 
BRANCH  16  17
ATOM     17  O   UNL     1      49.688   1.750  15.842  0.00  0.00    +0.000 OA
ATOM     18  H   UNL     1      48.937   2.361  15.919  0.00  0.00    +0.000 HD
ENDBRANCH  16  17
ENDBRANCH  13  16
BRANCH  14  19
ATOM     19  C   UNL     1      47.634   3.183  17.578  0.00  0.00    +0.000 C 
BRANCH  19  20
ATOM     20  O   UNL     1      46.614   4.087  17.989  0.00  0.00    +0.000 OA
ATOM     21  H   UNL     1      46.772   4.349  18.910  0.00  0.00    +0.000 HD
ENDBRANCH  19  20
ENDBRANCH  14  19
ENDBRANCH   9  10
ENDBRANCH   8   9
ENDBRANCH   1   8
BRANCH   4  22
ATOM     22  C   UNL     1      47.832   7.993  11.755  0.00  0.00    +0.000 C 
BRANCH  22  23
ATOM     23  N   UNL     1      47.072   6.774  11.656  0.00  0.00    +0.000 N 
ATOM     24  C   UNL     1      45.704   6.779  11.694  0.00  0.00    +0.000 C 
ATOM     25  O   UNL     1      45.058   7.822  11.757  0.00  0.00    +0.000 OA
ATOM     26  H   UNL     1      47.569   5.905  11.827  0.00  0.00    +0.000 HD
BRANCH  24  27
ATOM     27  C   UNL     1      45.048   5.471  11.594  0.00  0.00    +0.000 A 
ATOM     28  C   UNL     1      44.353   4.968  12.686  0.00  0.00    +0.000 A 
ATOM     29  S   UNL     1      43.615   3.459  12.391  0.00  0.00    +0.000 S 
ATOM     30  C   UNL     1      44.236   3.403  10.807  0.00  0.00    +0.000 A 
ATOM     31  N   UNL     1      43.988   2.338   9.999  0.00  0.00    +0.000 NA
ATOM     32  C   UNL     1      44.544   2.411   8.836  0.00  0.00    +0.000 A 
ATOM     33  N   UNL     1      45.318   3.458   8.403  0.00  0.00    +0.000 N 
ATOM     34  C   UNL     1      45.569   4.570   9.169  0.00  0.00    +0.000 A 
ATOM     35  O   UNL     1      46.226   5.514   8.743  0.00  0.00    +0.000 OA
ATOM     36  C   UNL     1      44.981   4.529  10.500  0.00  0.00    +0.000 A 
ATOM     37  H   UNL     1      45.712   3.459   7.473  0.00  0.00    +0.000 HD
ENDBRANCH  24  27
ENDBRANCH  22  23
ENDBRANCH   4  22
TORSDOF 10
ENDMDL
MODEL 3
REMARK VINA RESULT:    -7.437      3.420      5.300
REMARK INTER + INTRA:         -11.914
REMARK INTER:                 -10.783
REMARK INTRA:                  -1.130
REMARK UNBOUND:                -0.565
REMARK  Name = 
REMARK  11 active torsions:
REMARK  status: ('A' for Active; 'I' for Inactive)
REMARK    1  A    between atoms: C_1  and  C_2
REMARK    2  A    between atoms: C_2  and  C_3
REMARK    3  A    between atoms: C_2  and  C_14
REMARK    4  A    between atoms: C_3  and  N_4
REMARK    5  A    between atoms: C_7  and  C_8
REMARK    6  A    between atoms: C_8  and  O_9
REMARK    7  A    between atoms: C_10  and  C_11
REMARK    8  A    between atoms: C_11  and  O_12
REMARK    9  A    between atoms: C_17  and  C_18
REMARK   10  A    between atoms: C_18  and  N_19
REMARK   11  A    between atoms: C_20  and  C_22
REMARK                            x       y       z     vdW  Elec       q    Type
REMARK                         _______ _______ _______ _____ _____    ______ ____
ROOT
ATOM      1  C   UNL     1      48.363   7.181  14.071  0.00  0.00    +0.000 A 
ATOM      2  C   UNL     1      48.862   8.295  14.750  0.00  0.00    +0.000 A 
ATOM      3  C   UNL     1      49.179   8.184  16.101  0.00  0.00    +0.000 A 
ATOM      4  C   UNL     1      48.980   6.969  16.756  0.00  0.00    +0.000 A 
ATOM      5  C   UNL     1      48.453   5.922  16.012  0.00  0.00    +0.000 A 
ATOM      6  N   UNL     1      48.158   5.999  14.697  0.00  0.00    +0.000 NA
ENDROOT
BRANCH   1   8
ATOM      7  C   UNL     1      48.709   8.450  11.890  0.00  0.00    +0.000 C 
ATOM      8  C   UNL     1      48.004   7.281  12.596  0.00  0.00    +0.000 C 
BRANCH   8   9
ATOM      9  C   UNL     1      46.466   7.372  12.421  0.00  0.00    +0.000 C 
BRANCH   9  10
ATOM     10  N   UNL     1      45.771   6.077  12.273  0.00  0.00    +0.000 NA
ATOM     11  C   UNL     1      44.480   6.054  12.966  0.00  0.00    +0.000 C 
ATOM     12  C   UNL     1      43.885   4.656  12.906  0.00  0.00    +0.000 C 
ATOM     13  C   UNL     1      43.684   4.182  11.459  0.00  0.00    +0.000 C 
ATOM     14  C   UNL     1      44.987   4.363  10.638  0.00  0.00    +0.000 C 
ATOM     15  C   UNL     1      45.590   5.767  10.846  0.00  0.00    +0.000 C 
BRANCH  13  16
ATOM     16  C   UNL     1      43.198   2.726  11.467  0.00  0.00    +0.000 C 
BRANCH  16  17
ATOM     17  O   UNL     1      43.635   2.060  12.647  0.00  0.00    +0.000 OA
ATOM     18  H   UNL     1      42.846   1.766  13.133  0.00  0.00    +0.000 HD
ENDBRANCH  16  17
ENDBRANCH  13  16
BRANCH  14  19
ATOM     19  C   UNL     1      44.800   4.115   9.131  0.00  0.00    +0.000 C 
BRANCH  19  20
ATOM     20  O   UNL     1      45.568   5.006   8.331  0.00  0.00    +0.000 OA
ATOM     21  H   UNL     1      45.302   4.913   7.403  0.00  0.00    +0.000 HD
ENDBRANCH  19  20
ENDBRANCH  14  19
ENDBRANCH   9  10
ENDBRANCH   8   9
ENDBRANCH   1   8
BRANCH   4  22
ATOM     22  C   UNL     1      49.231   6.806  18.223  0.00  0.00    +0.000 C 
BRANCH  22  23
ATOM     23  N   UNL     1      50.143   5.716  18.458  0.00  0.00    +0.000 N 
ATOM     24  C   UNL     1      51.488   5.853  18.253  0.00  0.00    +0.000 C 
ATOM     25  O   UNL     1      51.990   6.922  17.915  0.00  0.00    +0.000 OA
ATOM     26  H   UNL     1      49.742   4.785  18.517  0.00  0.00    +0.000 HD
BRANCH  24  27
ATOM     27  C   UNL     1      52.309   4.667  18.519  0.00  0.00    +0.000 A 
ATOM     28  C   UNL     1      53.491   4.798  19.234  0.00  0.00    +0.000 A 
ATOM     29  S   UNL     1      54.302   3.320  19.491  0.00  0.00    +0.000 S 
ATOM     30  C   UNL     1      53.124   2.458  18.616  0.00  0.00    +0.000 A 
ATOM     31  N   UNL     1      53.234   1.115  18.436  0.00  0.00    +0.000 NA
ATOM     32  C   UNL     1      52.289   0.592  17.729  0.00  0.00    +0.000 A 
ATOM     33  N   UNL     1      51.237   1.290  17.193  0.00  0.00    +0.000 N 
ATOM     34  C   UNL     1      51.064   2.641  17.375  0.00  0.00    +0.000 A 
ATOM     35  O   UNL     1      50.090   3.235  16.924  0.00  0.00    +0.000 OA
ATOM     36  C   UNL     1      52.115   3.282  18.149  0.00  0.00    +0.000 A 
ATOM     37  H   UNL     1      50.521   0.817  16.660  0.00  0.00    +0.000 HD
ENDBRANCH  24  27
ENDBRANCH  22  23
ENDBRANCH   4  22
TORSDOF 10
ENDMDL
MODEL 4
REMARK VINA RESULT:    -7.183      3.076     10.014
REMARK INTER + INTRA:         -11.526
REMARK INTER:                 -10.094
REMARK INTRA:                  -1.433
REMARK UNBOUND:                -0.565
REMARK  Name = 
REMARK  11 active torsions:
REMARK  status: ('A' for Active; 'I' for Inactive)
REMARK    1  A    between atoms: C_1  and  C_2
REMARK    2  A    between atoms: C_2  and  C_3
REMARK    3  A    between atoms: C_2  and  C_14
REMARK    4  A    between atoms: C_3  and  N_4
REMARK    5  A    between atoms: C_7  and  C_8
REMARK    6  A    between atoms: C_8  and  O_9
REMARK    7  A    between atoms: C_10  and  C_11
REMARK    8  A    between atoms: C_11  and  O_12
REMARK    9  A    between atoms: C_17  and  C_18
REMARK   10  A    between atoms: C_18  and  N_19
REMARK   11  A    between atoms: C_20  and  C_22
REMARK                            x       y       z     vdW  Elec       q    Type
REMARK                         _______ _______ _______ _____ _____    ______ ____
ROOT
ATOM      1  C   UNL     1      50.391   7.850  15.094  0.00  0.00    +0.000 A 
ATOM      2  C   UNL     1      50.377   9.027  14.343  0.00  0.00    +0.000 A 
ATOM      3  C   UNL     1      49.512   9.132  13.257  0.00  0.00    +0.000 A 
ATOM      4  C   UNL     1      48.686   8.057  12.930  0.00  0.00    +0.000 A 
ATOM      5  C   UNL     1      48.785   6.915  13.713  0.00  0.00    +0.000 A 
ATOM      6  N   UNL     1      49.600   6.798  14.783  0.00  0.00    +0.000 NA
ENDROOT
BRANCH   1   8
ATOM      7  C   UNL     1      52.652   8.477  16.088  0.00  0.00    +0.000 C 
ATOM      8  C   UNL     1      51.333   7.710  16.281  0.00  0.00    +0.000 C 
BRANCH   8   9
ATOM      9  C   UNL     1      51.599   6.213  16.583  0.00  0.00    +0.000 C 
BRANCH   9  10
ATOM     10  N   UNL     1      51.030   5.716  17.852  0.00  0.00    +0.000 NA
ATOM     11  C   UNL     1      50.623   6.804  18.746  0.00  0.00    +0.000 C 
ATOM     12  C   UNL     1      50.190   6.238  20.088  0.00  0.00    +0.000 C 
ATOM     13  C   UNL     1      49.023   5.249  19.942  0.00  0.00    +0.000 C 
ATOM     14  C   UNL     1      49.343   4.181  18.864  0.00  0.00    +0.000 C 
ATOM     15  C   UNL     1      49.889   4.829  17.576  0.00  0.00    +0.000 C 
BRANCH  13  16
ATOM     16  C   UNL     1      48.715   4.623  21.309  0.00  0.00    +0.000 C 
BRANCH  16  17
ATOM     17  O   UNL     1      47.338   4.784  21.632  0.00  0.00    +0.000 OA
ATOM     18  H   UNL     1      46.821   4.245  21.011  0.00  0.00    +0.000 HD
ENDBRANCH  16  17
ENDBRANCH  13  16
BRANCH  14  19
ATOM     19  C   UNL     1      48.140   3.292  18.508  0.00  0.00    +0.000 C 
BRANCH  19  20
ATOM     20  O   UNL     1      46.990   4.047  18.146  0.00  0.00    +0.000 OA
ATOM     21  H   UNL     1      46.578   3.649  17.363  0.00  0.00    +0.000 HD
ENDBRANCH  19  20
ENDBRANCH  14  19
ENDBRANCH   9  10
ENDBRANCH   8   9
ENDBRANCH   1   8
BRANCH   4  22
ATOM     22  C   UNL     1      47.788   8.081  11.733  0.00  0.00    +0.000 C 
BRANCH  22  23
ATOM     23  N   UNL     1      47.032   6.859  11.648  0.00  0.00    +0.000 N 
ATOM     24  C   UNL     1      45.665   6.858  11.707  0.00  0.00    +0.000 C 
ATOM     25  O   UNL     1      45.016   7.899  11.779  0.00  0.00    +0.000 OA
ATOM     26  H   UNL     1      47.536   5.992  11.812  0.00  0.00    +0.000 HD
BRANCH  24  27
ATOM     27  C   UNL     1      45.013   5.547  11.620  0.00  0.00    +0.000 A 
ATOM     28  C   UNL     1      44.320   5.053  12.717  0.00  0.00    +0.000 A 
ATOM     29  S   UNL     1      43.587   3.539  12.437  0.00  0.00    +0.000 S 
ATOM     30  C   UNL     1      44.208   3.470  10.854  0.00  0.00    +0.000 A 
ATOM     31  N   UNL     1      43.964   2.396  10.056  0.00  0.00    +0.000 NA
ATOM     32  C   UNL     1      44.519   2.459   8.892  0.00  0.00    +0.000 A 
ATOM     33  N   UNL     1      45.290   3.504   8.450  0.00  0.00    +0.000 N 
ATOM     34  C   UNL     1      45.538   4.624   9.205  0.00  0.00    +0.000 A 
ATOM     35  O   UNL     1      46.192   5.566   8.769  0.00  0.00    +0.000 OA
ATOM     36  C   UNL     1      44.950   4.594  10.535  0.00  0.00    +0.000 A 
ATOM     37  H   UNL     1      45.684   3.497   7.520  0.00  0.00    +0.000 HD
ENDBRANCH  24  27
ENDBRANCH  22  23
ENDBRANCH   4  22
TORSDOF 10
ENDMDL
MODEL 5
REMARK VINA RESULT:    -7.105      2.160      2.656
REMARK INTER + INTRA:         -11.408
REMARK INTER:                 -10.623
REMARK INTRA:                  -0.786
REMARK UNBOUND:                -0.565
REMARK  Name = 
REMARK  11 active torsions:
REMARK  status: ('A' for Active; 'I' for Inactive)
REMARK    1  A    between atoms: C_1  and  C_2
REMARK    2  A    between atoms: C_2  and  C_3
REMARK    3  A    between atoms: C_2  and  C_14
REMARK    4  A    between atoms: C_3  and  N_4
REMARK    5  A    between atoms: C_7  and  C_8
REMARK    6  A    between atoms: C_8  and  O_9
REMARK    7  A    between atoms: C_10  and  C_11
REMARK    8  A    between atoms: C_11  and  O_12
REMARK    9  A    between atoms: C_17  and  C_18
REMARK   10  A    between atoms: C_18  and  N_19
REMARK   11  A    between atoms: C_20  and  C_22
REMARK                            x       y       z     vdW  Elec       q    Type
REMARK                         _______ _______ _______ _____ _____    ______ ____
ROOT
ATOM      1  C   UNL     1      45.271   5.424  11.917  0.00  0.00    +0.000 A 
ATOM      2  C   UNL     1      45.472   4.641  13.056  0.00  0.00    +0.000 A 
ATOM      3  C   UNL     1      46.520   4.951  13.918  0.00  0.00    +0.000 A 
ATOM      4  C   UNL     1      47.358   6.027  13.624  0.00  0.00    +0.000 A 
ATOM      5  C   UNL     1      47.103   6.732  12.456  0.00  0.00    +0.000 A 
ATOM      6  N   UNL     1      46.081   6.465  11.616  0.00  0.00    +0.000 NA
ENDROOT
BRANCH   1   8
ATOM      7  C   UNL     1      42.750   5.400  11.550  0.00  0.00    +0.000 C 
ATOM      8  C   UNL     1      44.136   5.100  10.956  0.00  0.00    +0.000 C 
BRANCH   8   9
ATOM      9  C   UNL     1      44.232   3.625  10.487  0.00  0.00    +0.000 C 
BRANCH   9  10
ATOM     10  N   UNL     1      44.796   3.430   9.135  0.00  0.00    +0.000 NA
ATOM     11  C   UNL     1      45.737   4.490   8.764  0.00  0.00    +0.000 C 
ATOM     12  C   UNL     1      46.165   4.320   7.316  0.00  0.00    +0.000 C 
ATOM     13  C   UNL     1      46.828   2.956   7.072  0.00  0.00    +0.000 C 
ATOM     14  C   UNL     1      45.940   1.810   7.621  0.00  0.00    +0.000 C 
ATOM     15  C   UNL     1      45.450   2.115   9.051  0.00  0.00    +0.000 C 
BRANCH  13  16
ATOM     16  C   UNL     1      47.125   2.798   5.575  0.00  0.00    +0.000 C 
BRANCH  16  17
ATOM     17  O   UNL     1      48.461   2.348   5.375  0.00  0.00    +0.000 OA
ATOM     18  H   UNL     1      49.051   2.940   5.869  0.00  0.00    +0.000 HD
ENDBRANCH  16  17
ENDBRANCH  13  16
BRANCH  14  19
ATOM     19  C   UNL     1      46.636   0.438   7.610  0.00  0.00    +0.000 C 
BRANCH  19  20
ATOM     20  O   UNL     1      48.054   0.545   7.562  0.00  0.00    +0.000 OA
ATOM     21  H   UNL     1      48.443  -0.342   7.622  0.00  0.00    +0.000 HD
ENDBRANCH  19  20
ENDBRANCH  14  19
ENDBRANCH   9  10
ENDBRANCH   8   9
ENDBRANCH   1   8
BRANCH   4  22
ATOM     22  C   UNL     1      48.544   6.365  14.472  0.00  0.00    +0.000 C 
BRANCH  22  23
ATOM     23  N   UNL     1      48.356   7.641  15.112  0.00  0.00    +0.000 N 
ATOM     24  C   UNL     1      48.791   7.871  16.388  0.00  0.00    +0.000 C 
ATOM     25  O   UNL     1      49.410   7.025  17.028  0.00  0.00    +0.000 OA
ATOM     26  H   UNL     1      47.668   8.266  14.702  0.00  0.00    +0.000 HD
BRANCH  24  27
ATOM     27  C   UNL     1      48.530   9.209  16.931  0.00  0.00    +0.000 A 
ATOM     28  C   UNL     1      48.979  10.327  16.241  0.00  0.00    +0.000 A 
ATOM     29  S   UNL     1      48.559  11.803  16.984  0.00  0.00    +0.000 S 
ATOM     30  C   UNL     1      47.800  10.999  18.278  0.00  0.00    +0.000 A 
ATOM     31  N   UNL     1      47.236  11.699  19.298  0.00  0.00    +0.000 NA
ATOM     32  C   UNL     1      46.722  10.965  20.228  0.00  0.00    +0.000 A 
ATOM     33  N   UNL     1      46.712   9.593  20.225  0.00  0.00    +0.000 N 
ATOM     34  C   UNL     1      47.239   8.843  19.203  0.00  0.00    +0.000 A 
ATOM     35  O   UNL     1      47.177   7.617  19.201  0.00  0.00    +0.000 OA
ATOM     36  C   UNL     1      47.850   9.623  18.137  0.00  0.00    +0.000 A 
ATOM     37  H   UNL     1      46.280   9.078  20.979  0.00  0.00    +0.000 HD
ENDBRANCH  24  27
ENDBRANCH  22  23
ENDBRANCH   4  22
TORSDOF 10
ENDMDL
MODEL 6
REMARK VINA RESULT:    -6.878      4.203      9.369
REMARK INTER + INTRA:         -11.061
REMARK INTER:                  -9.601
REMARK INTRA:                  -1.459
REMARK UNBOUND:                -0.565
REMARK  Name = 
REMARK  11 active torsions:
REMARK  status: ('A' for Active; 'I' for Inactive)
REMARK    1  A    between atoms: C_1  and  C_2
REMARK    2  A    between atoms: C_2  and  C_3
REMARK    3  A    between atoms: C_2  and  C_14
REMARK    4  A    between atoms: C_3  and  N_4
REMARK    5  A    between atoms: C_7  and  C_8
REMARK    6  A    between atoms: C_8  and  O_9
REMARK    7  A    between atoms: C_10  and  C_11
REMARK    8  A    between atoms: C_11  and  O_12
REMARK    9  A    between atoms: C_17  and  C_18
REMARK   10  A    between atoms: C_18  and  N_19
REMARK   11  A    between atoms: C_20  and  C_22
REMARK                            x       y       z     vdW  Elec       q    Type
REMARK                         _______ _______ _______ _____ _____    ______ ____
ROOT
ATOM      1  C   UNL     1      50.214   5.253  19.194  0.00  0.00    +0.000 A 
ATOM      2  C   UNL     1      48.875   5.516  19.489  0.00  0.00    +0.000 A 
ATOM      3  C   UNL     1      47.878   4.909  18.729  0.00  0.00    +0.000 A 
ATOM      4  C   UNL     1      48.234   4.061  17.681  0.00  0.00    +0.000 A 
ATOM      5  C   UNL     1      49.589   3.878  17.439  0.00  0.00    +0.000 A 
ATOM      6  N   UNL     1      50.572   4.438  18.175  0.00  0.00    +0.000 NA
ENDROOT
BRANCH   1   8
ATOM      7  C   UNL     1      51.016   5.937  21.513  0.00  0.00    +0.000 C 
ATOM      8  C   UNL     1      51.320   5.910  20.006  0.00  0.00    +0.000 C 
BRANCH   8   9
ATOM      9  C   UNL     1      51.605   7.337  19.471  0.00  0.00    +0.000 C 
BRANCH   9  10
ATOM     10  N   UNL     1      50.731   7.782  18.367  0.00  0.00    +0.000 NA
ATOM     11  C   UNL     1      50.039   9.037  18.675  0.00  0.00    +0.000 C 
ATOM     12  C   UNL     1      49.044   9.365  17.574  0.00  0.00    +0.000 C 
ATOM     13  C   UNL     1      49.729   9.494  16.205  0.00  0.00    +0.000 C 
ATOM     14  C   UNL     1      50.623   8.260  15.921  0.00  0.00    +0.000 C 
ATOM     15  C   UNL     1      51.517   7.923  17.132  0.00  0.00    +0.000 C 
BRANCH  13  16
ATOM     16  C   UNL     1      48.662   9.703  15.122  0.00  0.00    +0.000 C 
BRANCH  16  17
ATOM     17  O   UNL     1      47.415   9.157  15.539  0.00  0.00    +0.000 OA
ATOM     18  H   UNL     1      47.036   8.671  14.788  0.00  0.00    +0.000 HD
ENDBRANCH  16  17
ENDBRANCH  13  16
BRANCH  14  19
ATOM     19  C   UNL     1      51.508   8.419  14.673  0.00  0.00    +0.000 C 
BRANCH  19  20
ATOM     20  O   UNL     1      51.066   7.618  13.583  0.00  0.00    +0.000 OA
ATOM     21  H   UNL     1      50.112   7.461  13.668  0.00  0.00    +0.000 HD
ENDBRANCH  19  20
ENDBRANCH  14  19
ENDBRANCH   9  10
ENDBRANCH   8   9
ENDBRANCH   1   8
BRANCH   4  22
ATOM     22  C   UNL     1      47.212   3.437  16.782  0.00  0.00    +0.000 C 
BRANCH  22  23
ATOM     23  N   UNL     1      46.738   4.396  15.819  0.00  0.00    +0.000 N 
ATOM     24  C   UNL     1      46.831   4.163  14.474  0.00  0.00    +0.000 C 
ATOM     25  O   UNL     1      47.269   3.108  14.024  0.00  0.00    +0.000 OA
ATOM     26  H   UNL     1      46.585   5.344  16.149  0.00  0.00    +0.000 HD
BRANCH  24  27
ATOM     27  C   UNL     1      46.322   5.223  13.596  0.00  0.00    +0.000 A 
ATOM     28  C   UNL     1      47.106   6.341  13.347  0.00  0.00    +0.000 A 
ATOM     29  S   UNL     1      46.386   7.456  12.275  0.00  0.00    +0.000 S 
ATOM     30  C   UNL     1      44.982   6.504  12.142  0.00  0.00    +0.000 A 
ATOM     31  N   UNL     1      43.936   6.909  11.372  0.00  0.00    +0.000 NA
ATOM     32  C   UNL     1      42.924   6.107  11.384  0.00  0.00    +0.000 A 
ATOM     33  N   UNL     1      42.865   4.932  12.089  0.00  0.00    +0.000 N 
ATOM     34  C   UNL     1      43.906   4.465  12.853  0.00  0.00    +0.000 A 
ATOM     35  O   UNL     1      43.847   3.387  13.437  0.00  0.00    +0.000 OA
ATOM     36  C   UNL     1      45.067   5.342  12.889  0.00  0.00    +0.000 A 
ATOM     37  H   UNL     1      42.046   4.343  12.044  0.00  0.00    +0.000 HD
ENDBRANCH  24  27
ENDBRANCH  22  23
ENDBRANCH   4  22
TORSDOF 10
ENDMDL
MODEL 7
REMARK VINA RESULT:    -6.868      4.251      8.616
REMARK INTER + INTRA:         -11.047
REMARK INTER:                  -8.940
REMARK INTRA:                  -2.107
REMARK UNBOUND:                -0.565
REMARK  Name = 
REMARK  11 active torsions:
REMARK  status: ('A' for Active; 'I' for Inactive)
REMARK    1  A    between atoms: C_1  and  C_2
REMARK    2  A    between atoms: C_2  and  C_3
REMARK    3  A    between atoms: C_2  and  C_14
REMARK    4  A    between atoms: C_3  and  N_4
REMARK    5  A    between atoms: C_7  and  C_8
REMARK    6  A    between atoms: C_8  and  O_9
REMARK    7  A    between atoms: C_10  and  C_11
REMARK    8  A    between atoms: C_11  and  O_12
REMARK    9  A    between atoms: C_17  and  C_18
REMARK   10  A    between atoms: C_18  and  N_19
REMARK   11  A    between atoms: C_20  and  C_22
REMARK                            x       y       z     vdW  Elec       q    Type
REMARK                         _______ _______ _______ _____ _____    ______ ____
ROOT
ATOM      1  C   UNL     1      50.792   8.626  15.841  0.00  0.00    +0.000 A 
ATOM      2  C   UNL     1      51.184   7.953  14.682  0.00  0.00    +0.000 A 
ATOM      3  C   UNL     1      50.493   8.184  13.495  0.00  0.00    +0.000 A 
ATOM      4  C   UNL     1      49.416   9.070  13.487  0.00  0.00    +0.000 A 
ATOM      5  C   UNL     1      49.078   9.673  14.690  0.00  0.00    +0.000 A 
ATOM      6  N   UNL     1      49.745   9.482  15.849  0.00  0.00    +0.000 NA
ENDROOT
BRANCH   1   8
ATOM      7  C   UNL     1      52.932   7.795  16.945  0.00  0.00    +0.000 C 
ATOM      8  C   UNL     1      51.527   8.385  17.151  0.00  0.00    +0.000 C 
BRANCH   8   9
ATOM      9  C   UNL     1      50.679   7.486  18.087  0.00  0.00    +0.000 C 
BRANCH   9  10
ATOM     10  N   UNL     1      50.406   6.126  17.577  0.00  0.00    +0.000 NA
ATOM     11  C   UNL     1      51.053   5.088  18.383  0.00  0.00    +0.000 C 
ATOM     12  C   UNL     1      50.864   3.729  17.728  0.00  0.00    +0.000 C 
ATOM     13  C   UNL     1      49.378   3.378  17.560  0.00  0.00    +0.000 C 
ATOM     14  C   UNL     1      48.616   4.539  16.870  0.00  0.00    +0.000 C 
ATOM     15  C   UNL     1      48.954   5.896  17.519  0.00  0.00    +0.000 C 
BRANCH  13  16
ATOM     16  C   UNL     1      49.254   2.059  16.786  0.00  0.00    +0.000 C 
BRANCH  16  17
ATOM     17  O   UNL     1      50.522   1.656  16.279  0.00  0.00    +0.000 OA
ATOM     18  H   UNL     1      50.541   0.685  16.261  0.00  0.00    +0.000 HD
ENDBRANCH  16  17
ENDBRANCH  13  16
BRANCH  14  19
ATOM     19  C   UNL     1      47.089   4.351  16.866  0.00  0.00    +0.000 C 
BRANCH  19  20
ATOM     20  O   UNL     1      46.577   4.005  18.148  0.00  0.00    +0.000 OA
ATOM     21  H   UNL     1      46.488   3.041  18.208  0.00  0.00    +0.000 HD
ENDBRANCH  19  20
ENDBRANCH  14  19
ENDBRANCH   9  10
ENDBRANCH   8   9
ENDBRANCH   1   8
BRANCH   4  22
ATOM     22  C   UNL     1      48.589   9.304  12.261  0.00  0.00    +0.000 C 
BRANCH  22  23
ATOM     23  N   UNL     1      47.694   8.198  12.041  0.00  0.00    +0.000 N 
ATOM     24  C   UNL     1      46.382   8.253  12.427  0.00  0.00    +0.000 C 
ATOM     25  O   UNL     1      45.892   9.263  12.926  0.00  0.00    +0.000 OA
ATOM     26  H   UNL     1      48.115   7.296  11.844  0.00  0.00    +0.000 HD
BRANCH  24  27
ATOM     27  C   UNL     1      45.576   7.058  12.156  0.00  0.00    +0.000 A 
ATOM     28  C   UNL     1      44.374   7.183  11.473  0.00  0.00    +0.000 A 
ATOM     29  S   UNL     1      43.582   5.697  11.204  0.00  0.00    +0.000 S 
ATOM     30  C   UNL     1      44.796   4.838  12.032  0.00  0.00    +0.000 A 
ATOM     31  N   UNL     1      44.713   3.490  12.187  0.00  0.00    +0.000 NA
ATOM     32  C   UNL     1      45.684   2.970  12.860  0.00  0.00    +0.000 A 
ATOM     33  N   UNL     1      46.736   3.675  13.386  0.00  0.00    +0.000 N 
ATOM     34  C   UNL     1      46.882   5.031  13.228  0.00  0.00    +0.000 A 
ATOM     35  O   UNL     1      47.857   5.633  13.668  0.00  0.00    +0.000 OA
ATOM     36  C   UNL     1      45.802   5.670  12.492  0.00  0.00    +0.000 A 
ATOM     37  H   UNL     1      47.473   3.203  13.891  0.00  0.00    +0.000 HD
ENDBRANCH  24  27
ENDBRANCH  22  23
ENDBRANCH   4  22
TORSDOF 10
ENDMDL
MODEL 8
REMARK VINA RESULT:    -6.837      3.005      5.219
REMARK INTER + INTRA:         -10.999
REMARK INTER:                  -9.656
REMARK INTRA:                  -1.343
REMARK UNBOUND:                -0.565
REMARK  Name = 
REMARK  11 active torsions:
REMARK  status: ('A' for Active; 'I' for Inactive)
REMARK    1  A    between atoms: C_1  and  C_2
REMARK    2  A    between atoms: C_2  and  C_3
REMARK    3  A    between atoms: C_2  and  C_14
REMARK    4  A    between atoms: C_3  and  N_4
REMARK    5  A    between atoms: C_7  and  C_8
REMARK    6  A    between atoms: C_8  and  O_9
REMARK    7  A    between atoms: C_10  and  C_11
REMARK    8  A    between atoms: C_11  and  O_12
REMARK    9  A    between atoms: C_17  and  C_18
REMARK   10  A    between atoms: C_18  and  N_19
REMARK   11  A    between atoms: C_20  and  C_22
REMARK                            x       y       z     vdW  Elec       q    Type
REMARK                         _______ _______ _______ _____ _____    ______ ____
ROOT
ATOM      1  C   UNL     1      48.790   7.197  13.662  0.00  0.00    +0.000 A 
ATOM      2  C   UNL     1      49.618   8.094  14.339  0.00  0.00    +0.000 A 
ATOM      3  C   UNL     1      49.953   7.842  15.667  0.00  0.00    +0.000 A 
ATOM      4  C   UNL     1      49.447   6.707  16.300  0.00  0.00    +0.000 A 
ATOM      5  C   UNL     1      48.608   5.885  15.561  0.00  0.00    +0.000 A 
ATOM      6  N   UNL     1      48.285   6.097  14.267  0.00  0.00    +0.000 NA
ENDROOT
BRANCH   1   8
ATOM      7  C   UNL     1      49.156   8.649  11.601  0.00  0.00    +0.000 C 
ATOM      8  C   UNL     1      48.404   7.456  12.213  0.00  0.00    +0.000 C 
BRANCH   8   9
ATOM      9  C   UNL     1      46.870   7.644  12.090  0.00  0.00    +0.000 C 
BRANCH   9  10
ATOM     10  N   UNL     1      46.081   6.394  12.072  0.00  0.00    +0.000 NA
ATOM     11  C   UNL     1      44.821   6.519  12.809  0.00  0.00    +0.000 C 
ATOM     12  C   UNL     1      44.129   5.168  12.885  0.00  0.00    +0.000 C 
ATOM     13  C   UNL     1      43.837   4.596  11.490  0.00  0.00    +0.000 C 
ATOM     14  C   UNL     1      45.115   4.618  10.611  0.00  0.00    +0.000 C 
ATOM     15  C   UNL     1      45.822   5.986  10.682  0.00  0.00    +0.000 C 
BRANCH  13  16
ATOM     16  C   UNL     1      43.253   3.184  11.633  0.00  0.00    +0.000 C 
BRANCH  16  17
ATOM     17  O   UNL     1      44.107   2.369  12.428  0.00  0.00    +0.000 OA
ATOM     18  H   UNL     1      43.560   1.932  13.102  0.00  0.00    +0.000 HD
ENDBRANCH  16  17
ENDBRANCH  13  16
BRANCH  14  19
ATOM     19  C   UNL     1      44.850   4.266   9.137  0.00  0.00    +0.000 C 
BRANCH  19  20
ATOM     20  O   UNL     1      45.670   5.007   8.242  0.00  0.00    +0.000 OA
ATOM     21  H   UNL     1      46.603   4.813   8.428  0.00  0.00    +0.000 HD
ENDBRANCH  19  20
ENDBRANCH  14  19
ENDBRANCH   9  10
ENDBRANCH   8   9
ENDBRANCH   1   8
BRANCH   4  22
ATOM     22  C   UNL     1      49.711   6.419  17.745  0.00  0.00    +0.000 C 
BRANCH  22  23
ATOM     23  N   UNL     1      49.193   7.479  18.571  0.00  0.00    +0.000 N 
ATOM     24  C   UNL     1      47.957   7.394  19.152  0.00  0.00    +0.000 C 
ATOM     25  O   UNL     1      47.256   6.391  19.045  0.00  0.00    +0.000 OA
ATOM     26  H   UNL     1      49.643   8.387  18.493  0.00  0.00    +0.000 HD
BRANCH  24  27
ATOM     27  C   UNL     1      47.540   8.543  19.961  0.00  0.00    +0.000 A 
ATOM     28  C   UNL     1      47.259   8.366  21.309  0.00  0.00    +0.000 A 
ATOM     29  S   UNL     1      46.830   9.807  22.114  0.00  0.00    +0.000 S 
ATOM     30  C   UNL     1      46.961  10.712  20.678  0.00  0.00    +0.000 A 
ATOM     31  N   UNL     1      46.698  12.046  20.670  0.00  0.00    +0.000 NA
ATOM     32  C   UNL     1      46.806  12.603  19.510  0.00  0.00    +0.000 A 
ATOM     33  N   UNL     1      47.163  11.948  18.359  0.00  0.00    +0.000 N 
ATOM     34  C   UNL     1      47.471  10.610  18.323  0.00  0.00    +0.000 A 
ATOM     35  O   UNL     1      47.833  10.057  17.289  0.00  0.00    +0.000 OA
ATOM     36  C   UNL     1      47.345   9.930  19.603  0.00  0.00    +0.000 A 
ATOM     37  H   UNL     1      47.244  12.448  17.484  0.00  0.00    +0.000 HD
ENDBRANCH  24  27
ENDBRANCH  22  23
ENDBRANCH   4  22
TORSDOF 10
ENDMDL
MODEL 9
REMARK VINA RESULT:    -6.749      4.045      5.579
REMARK INTER + INTRA:         -10.864
REMARK INTER:                  -9.687
REMARK INTRA:                  -1.177
REMARK UNBOUND:                -0.565
REMARK  Name = 
REMARK  11 active torsions:
REMARK  status: ('A' for Active; 'I' for Inactive)
REMARK    1  A    between atoms: C_1  and  C_2
REMARK    2  A    between atoms: C_2  and  C_3
REMARK    3  A    between atoms: C_2  and  C_14
REMARK    4  A    between atoms: C_3  and  N_4
REMARK    5  A    between atoms: C_7  and  C_8
REMARK    6  A    between atoms: C_8  and  O_9
REMARK    7  A    between atoms: C_10  and  C_11
REMARK    8  A    between atoms: C_11  and  O_12
REMARK    9  A    between atoms: C_17  and  C_18
REMARK   10  A    between atoms: C_18  and  N_19
REMARK   11  A    between atoms: C_20  and  C_22
REMARK                            x       y       z     vdW  Elec       q    Type
REMARK                         _______ _______ _______ _____ _____    ______ ____
ROOT
ATOM      1  C   UNL     1      48.494   8.218  13.928  0.00  0.00    +0.000 A 
ATOM      2  C   UNL     1      49.563   7.334  14.086  0.00  0.00    +0.000 A 
ATOM      3  C   UNL     1      50.246   7.302  15.299  0.00  0.00    +0.000 A 
ATOM      4  C   UNL     1      49.861   8.160  16.328  0.00  0.00    +0.000 A 
ATOM      5  C   UNL     1      48.806   9.026  16.075  0.00  0.00    +0.000 A 
ATOM      6  N   UNL     1      48.115   9.061  14.916  0.00  0.00    +0.000 NA
ENDROOT
BRANCH   1   8
ATOM      7  C   UNL     1      48.230   9.406  11.690  0.00  0.00    +0.000 C 
ATOM      8  C   UNL     1      47.737   8.276  12.610  0.00  0.00    +0.000 C 
BRANCH   8   9
ATOM      9  C   UNL     1      46.213   8.395  12.868  0.00  0.00    +0.000 C 
BRANCH   9  10
ATOM     10  N   UNL     1      45.478   7.113  12.900  0.00  0.00    +0.000 NA
ATOM     11  C   UNL     1      44.734   6.866  11.663  0.00  0.00    +0.000 C 
ATOM     12  C   UNL     1      43.881   5.616  11.812  0.00  0.00    +0.000 C 
ATOM     13  C   UNL     1      44.732   4.380  12.139  0.00  0.00    +0.000 C 
ATOM     14  C   UNL     1      45.673   4.665  13.338  0.00  0.00    +0.000 C 
ATOM     15  C   UNL     1      46.412   6.007  13.164  0.00  0.00    +0.000 C 
BRANCH  13  16
ATOM     16  C   UNL     1      43.807   3.182  12.397  0.00  0.00    +0.000 C 
BRANCH  16  17
ATOM     17  O   UNL     1      42.830   3.076  11.367  0.00  0.00    +0.000 OA
ATOM     18  H   UNL     1      43.277   3.212  10.516  0.00  0.00    +0.000 HD
ENDBRANCH  16  17
ENDBRANCH  13  16
BRANCH  14  19
ATOM     19  C   UNL     1      46.707   3.552  13.583  0.00  0.00    +0.000 C 
BRANCH  19  20
ATOM     20  O   UNL     1      47.682   3.914  14.554  0.00  0.00    +0.000 OA
ATOM     21  H   UNL     1      47.767   4.881  14.575  0.00  0.00    +0.000 HD
ENDBRANCH  19  20
ENDBRANCH  14  19
ENDBRANCH   9  10
ENDBRANCH   8   9
ENDBRANCH   1   8
BRANCH   4  22
ATOM     22  C   UNL     1      50.600   8.224  17.628  0.00  0.00    +0.000 C 
BRANCH  22  23
ATOM     23  N   UNL     1      51.373   7.025  17.825  0.00  0.00    +0.000 N 
ATOM     24  C   UNL     1      50.925   6.009  18.624  0.00  0.00    +0.000 C 
ATOM     25  O   UNL     1      49.822   6.043  19.164  0.00  0.00    +0.000 OA
ATOM     26  H   UNL     1      52.358   7.066  17.581  0.00  0.00    +0.000 HD
BRANCH  24  27
ATOM     27  C   UNL     1      51.809   4.845  18.751  0.00  0.00    +0.000 A 
ATOM     28  C   UNL     1      52.989   4.958  19.475  0.00  0.00    +0.000 A 
ATOM     29  S   UNL     1      53.880   3.507  19.561  0.00  0.00    +0.000 S 
ATOM     30  C   UNL     1      52.742   2.688  18.596  0.00  0.00    +0.000 A 
ATOM     31  N   UNL     1      52.923   1.381  18.264  0.00  0.00    +0.000 NA
ATOM     32  C   UNL     1      52.001   0.892  17.504  0.00  0.00    +0.000 A 
ATOM     33  N   UNL     1      50.909   1.588  17.052  0.00  0.00    +0.000 N 
ATOM     34  C   UNL     1      50.665   2.898  17.387  0.00  0.00    +0.000 A 
ATOM     35  O   UNL     1      49.657   3.486  17.008  0.00  0.00    +0.000 OA
ATOM     36  C   UNL     1      51.687   3.504  18.227  0.00  0.00    +0.000 A 
ATOM     37  H   UNL     1      50.215   1.141  16.470  0.00  0.00    +0.000 HD
ENDBRANCH  24  27
ENDBRANCH  22  23
ENDBRANCH   4  22
TORSDOF 10
ENDMDL
