MODEL 1
REMARK VINA RESULT:    -8.525      0.000      0.000
REMARK INTER + INTRA:         -11.806
REMARK INTER:                 -11.017
REMARK INTRA:                  -0.789
REMARK UNBOUND:                -0.789
REMARK  Name = 
REMARK  5 active torsions:
REMARK  status: ('A' for Active; 'I' for Inactive)
REMARK    1  A    between atoms: C_2  and  C_4
REMARK    2  A    between atoms: C_7  and  N_8
REMARK    3  A    between atoms: N_8  and  C_9
REMARK    4  A    between atoms: C_9  and  C_10
REMARK    5  A    between atoms: C_14  and  C_15
REMARK                            x       y       z     vdW  Elec       q    Type
REMARK                         _______ _______ _______ _____ _____    ______ ____
ROOT
ATOM      1  C   UNL     1      43.746   4.563  11.469  0.00  0.00    +0.000 C 
ENDROOT
BRANCH   1   2
ATOM      2  C   UNL     1      44.874   5.460  11.932  0.00  0.00    +0.000 A 
ATOM      3  C   UNL     1      45.127   6.686  11.310  0.00  0.00    +0.000 A 
ATOM      4  C   UNL     1      46.162   7.499  11.767  0.00  0.00    +0.000 A 
ATOM      5  C   UNL     1      46.945   7.100  12.856  0.00  0.00    +0.000 A 
ATOM      6  C   UNL     1      46.710   5.883  13.519  0.00  0.00    +0.000 A 
ATOM      7  C   UNL     1      45.679   5.069  13.019  0.00  0.00    +0.000 A 
BRANCH   6   8
ATOM      8  C   UNL     1      47.478   5.487  14.715  0.00  0.00    +0.000 A 
ATOM      9  C   UNL     1      48.576   6.232  15.167  0.00  0.00    +0.000 A 
ATOM     10  N   UNL     1      49.307   5.957  16.274  0.00  0.00    +0.000 NA
ATOM     11  C   UNL     1      48.925   4.877  16.994  0.00  0.00    +0.000 A 
ATOM     12  C   UNL     1      47.856   4.068  16.649  0.00  0.00    +0.000 A 
ATOM     13 CL   UNL     1      47.418   2.725  17.623  0.00  0.00    +0.000 Cl
ATOM     14  C   UNL     1      47.133   4.374  15.497  0.00  0.00    +0.000 A 
ENDBRANCH   6   8
ENDBRANCH   1   2
BRANCH   1  15
ATOM     15  N   UNL     1      43.664   4.626  10.013  0.00  0.00    +0.000 N 
ATOM     16  H   UNL     1      43.553   5.583   9.687  0.00  0.00    +0.000 HD
BRANCH  15  20
ATOM     17  C   UNL     1      46.340   2.280   7.863  0.00  0.00    +0.000 A 
ATOM     18  C   UNL     1      46.355   3.647   7.629  0.00  0.00    +0.000 A 
ATOM     19  C   UNL     1      45.449   4.451   8.324  0.00  0.00    +0.000 A 
ATOM     20  C   UNL     1      44.542   3.885   9.222  0.00  0.00    +0.000 A 
ATOM     21  C   UNL     1      44.657   2.501   9.413  0.00  0.00    +0.000 A 
ATOM     22  N   UNL     1      45.506   1.677   8.750  0.00  0.00    +0.000 NA
BRANCH  17  24
ATOM     23  N   UNL     1      48.399   1.999   6.615  0.00  0.00    +0.000 N 
ATOM     24  C   UNL     1      47.280   1.386   7.114  0.00  0.00    +0.000 C 
ATOM     25  O   UNL     1      47.076   0.189   6.961  0.00  0.00    +0.000 OA
ATOM     26  H   UNL     1      49.082   1.457   6.108  0.00  0.00    +0.000 HD
ATOM     27  H   UNL     1      48.536   2.991   6.771  0.00  0.00    +0.000 HD
ENDBRANCH  17  24
ENDBRANCH  15  20
ENDBRANCH   1  15
TORSDOF 5
ENDMDL
MODEL 2
REMARK VINA RESULT:    -8.438      2.803      3.847
REMARK INTER + INTRA:         -11.693
REMARK INTER:                 -10.831
REMARK INTRA:                  -0.862
REMARK UNBOUND:                -0.789
REMARK  Name = 
REMARK  5 active torsions:
REMARK  status: ('A' for Active; 'I' for Inactive)
REMARK    1  A    between atoms: C_2  and  C_4
REMARK    2  A    between atoms: C_7  and  N_8
REMARK    3  A    between atoms: N_8  and  C_9
REMARK    4  A    between atoms: C_9  and  C_10
REMARK    5  A    between atoms: C_14  and  C_15
REMARK                            x       y       z     vdW  Elec       q    Type
REMARK                         _______ _______ _______ _____ _____    ______ ____
ROOT
ATOM      1  C   UNL     1      43.543   4.717  11.300  0.00  0.00    +0.000 C 
ENDROOT
BRANCH   1   2
ATOM      2  C   UNL     1      44.843   4.983  12.028  0.00  0.00    +0.000 A 
ATOM      3  C   UNL     1      45.407   4.028  12.877  0.00  0.00    +0.000 A 
ATOM      4  C   UNL     1      46.613   4.293  13.523  0.00  0.00    +0.000 A 
ATOM      5  C   UNL     1      47.272   5.510  13.316  0.00  0.00    +0.000 A 
ATOM      6  C   UNL     1      46.745   6.489  12.455  0.00  0.00    +0.000 A 
ATOM      7  C   UNL     1      45.514   6.207  11.839  0.00  0.00    +0.000 A 
BRANCH   6   8
ATOM      8  C   UNL     1      47.469   7.743  12.168  0.00  0.00    +0.000 A 
ATOM      9  C   UNL     1      46.863   8.996  12.325  0.00  0.00    +0.000 A 
ATOM     10  N   UNL     1      47.469  10.191  12.118  0.00  0.00    +0.000 NA
ATOM     11  C   UNL     1      48.767  10.149  11.741  0.00  0.00    +0.000 A 
ATOM     12  C   UNL     1      49.472   8.972  11.557  0.00  0.00    +0.000 A 
ATOM     13 CL   UNL     1      51.125   8.998  11.096  0.00  0.00    +0.000 Cl
ATOM     14  C   UNL     1      48.813   7.761  11.767  0.00  0.00    +0.000 A 
ENDBRANCH   6   8
ENDBRANCH   1   2
BRANCH   1  15
ATOM     15  N   UNL     1      43.774   4.850   9.864  0.00  0.00    +0.000 N 
ATOM     16  H   UNL     1      43.865   5.826   9.590  0.00  0.00    +0.000 HD
BRANCH  15  20
ATOM     17  C   UNL     1      46.453   2.510   7.712  0.00  0.00    +0.000 A 
ATOM     18  C   UNL     1      45.582   1.859   8.574  0.00  0.00    +0.000 A 
ATOM     19  C   UNL     1      44.689   2.629   9.323  0.00  0.00    +0.000 A 
ATOM     20  C   UNL     1      44.686   4.020   9.214  0.00  0.00    +0.000 A 
ATOM     21  C   UNL     1      45.576   4.559   8.274  0.00  0.00    +0.000 A 
ATOM     22  N   UNL     1      46.473   3.857   7.537  0.00  0.00    +0.000 NA
BRANCH  17  24
ATOM     23  N   UNL     1      48.519   2.422   6.449  0.00  0.00    +0.000 N 
ATOM     24  C   UNL     1      47.442   1.717   6.914  0.00  0.00    +0.000 C 
ATOM     25  O   UNL     1      47.310   0.520   6.696  0.00  0.00    +0.000 OA
ATOM     26  H   UNL     1      49.232   1.951   5.912  0.00  0.00    +0.000 HD
ATOM     27  H   UNL     1      48.597   3.411   6.659  0.00  0.00    +0.000 HD
ENDBRANCH  17  24
ENDBRANCH  15  20
ENDBRANCH   1  15
TORSDOF 5
ENDMDL
MODEL 3
REMARK VINA RESULT:    -8.144      3.302      4.534
REMARK INTER + INTRA:         -11.313
REMARK INTER:                 -10.478
REMARK INTRA:                  -0.835
REMARK UNBOUND:                -0.789
REMARK  Name = 
REMARK  5 active torsions:
REMARK  status: ('A' for Active; 'I' for Inactive)
REMARK    1  A    between atoms: C_2  and  C_4
REMARK    2  A    between atoms: C_7  and  N_8
REMARK    3  A    between atoms: N_8  and  C_9
REMARK    4  A    between atoms: C_9  and  C_10
REMARK    5  A    between atoms: C_14  and  C_15
REMARK                            x       y       z     vdW  Elec       q    Type
REMARK                         _______ _______ _______ _____ _____    ______ ____
ROOT
ATOM      1  C   UNL     1      43.552   4.741  11.308  0.00  0.00    +0.000 C 
ENDROOT
BRANCH   1   2
ATOM      2  C   UNL     1      44.704   5.521  11.905  0.00  0.00    +0.000 A 
ATOM      3  C   UNL     1      45.761   4.874  12.549  0.00  0.00    +0.000 A 
ATOM      4  C   UNL     1      46.817   5.616  13.076  0.00  0.00    +0.000 A 
ATOM      5  C   UNL     1      46.830   7.011  12.951  0.00  0.00    +0.000 A 
ATOM      6  C   UNL     1      45.793   7.696  12.294  0.00  0.00    +0.000 A 
ATOM      7  C   UNL     1      44.728   6.925  11.798  0.00  0.00    +0.000 A 
BRANCH   6   8
ATOM      8  C   UNL     1      45.834   9.157  12.089  0.00  0.00    +0.000 A 
ATOM      9  C   UNL     1      44.665   9.925  12.015  0.00  0.00    +0.000 A 
ATOM     10  N   UNL     1      44.620  11.271  11.865  0.00  0.00    +0.000 NA
ATOM     11  C   UNL     1      45.811  11.908  11.794  0.00  0.00    +0.000 A 
ATOM     12  C   UNL     1      47.031  11.257  11.859  0.00  0.00    +0.000 A 
ATOM     13 CL   UNL     1      48.503  12.136  11.781  0.00  0.00    +0.000 Cl
ATOM     14  C   UNL     1      47.040   9.870  12.000  0.00  0.00    +0.000 A 
ENDBRANCH   6   8
ENDBRANCH   1   2
BRANCH   1  15
ATOM     15  N   UNL     1      43.647   4.803   9.853  0.00  0.00    +0.000 N 
ATOM     16  H   UNL     1      43.707   5.764   9.524  0.00  0.00    +0.000 HD
BRANCH  15  20
ATOM     17  C   UNL     1      46.228   2.113   8.013  0.00  0.00    +0.000 A 
ATOM     18  C   UNL     1      46.357   3.453   7.682  0.00  0.00    +0.000 A 
ATOM     19  C   UNL     1      45.485   4.372   8.272  0.00  0.00    +0.000 A 
ATOM     20  C   UNL     1      44.499   3.943   9.162  0.00  0.00    +0.000 A 
ATOM     21  C   UNL     1      44.500   2.572   9.458  0.00  0.00    +0.000 A 
ATOM     22  N   UNL     1      45.312   1.640   8.899  0.00  0.00    +0.000 NA
BRANCH  17  24
ATOM     23  N   UNL     1      46.818  -0.209   7.642  0.00  0.00    +0.000 N 
ATOM     24  C   UNL     1      47.129   1.099   7.379  0.00  0.00    +0.000 C 
ATOM     25  O   UNL     1      48.075   1.406   6.665  0.00  0.00    +0.000 OA
ATOM     26  H   UNL     1      47.375  -0.947   7.239  0.00  0.00    +0.000 HD
ATOM     27  H   UNL     1      46.021  -0.423   8.231  0.00  0.00    +0.000 HD
ENDBRANCH  17  24
ENDBRANCH  15  20
ENDBRANCH   1  15
TORSDOF 5
ENDMDL
MODEL 4
REMARK VINA RESULT:    -8.087      3.045      4.211
REMARK INTER + INTRA:         -11.240
REMARK INTER:                 -10.358
REMARK INTRA:                  -0.882
REMARK UNBOUND:                -0.789
REMARK  Name = 
REMARK  5 active torsions:
REMARK  status: ('A' for Active; 'I' for Inactive)
REMARK    1  A    between atoms: C_2  and  C_4
REMARK    2  A    between atoms: C_7  and  N_8
REMARK    3  A    between atoms: N_8  and  C_9
REMARK    4  A    between atoms: C_9  and  C_10
REMARK    5  A    between atoms: C_14  and  C_15
REMARK                            x       y       z     vdW  Elec       q    Type
REMARK                         _______ _______ _______ _____ _____    ______ ____
ROOT
ATOM      1  C   UNL     1      43.944   3.171  11.953  0.00  0.00    +0.000 C 
ENDROOT
BRANCH   1   2
ATOM      2  C   UNL     1      44.997   4.123  12.479  0.00  0.00    +0.000 A 
ATOM      3  C   UNL     1      46.099   3.657  13.201  0.00  0.00    +0.000 A 
ATOM      4  C   UNL     1      47.062   4.554  13.661  0.00  0.00    +0.000 A 
ATOM      5  C   UNL     1      46.937   5.922  13.392  0.00  0.00    +0.000 A 
ATOM      6  C   UNL     1      45.852   6.426  12.654  0.00  0.00    +0.000 A 
ATOM      7  C   UNL     1      44.882   5.503  12.227  0.00  0.00    +0.000 A 
BRANCH   6   8
ATOM      8  C   UNL     1      45.751   7.855  12.298  0.00  0.00    +0.000 A 
ATOM      9  C   UNL     1      46.764   8.768  12.617  0.00  0.00    +0.000 A 
ATOM     10  N   UNL     1      46.762  10.085  12.293  0.00  0.00    +0.000 NA
ATOM     11  C   UNL     1      45.691  10.531  11.598  0.00  0.00    +0.000 A 
ATOM     12  C   UNL     1      44.631   9.723  11.224  0.00  0.00    +0.000 A 
ATOM     13 CL   UNL     1      43.315  10.357  10.324  0.00  0.00    +0.000 Cl
ATOM     14  C   UNL     1      44.661   8.376  11.584  0.00  0.00    +0.000 A 
ENDBRANCH   6   8
ENDBRANCH   1   2
BRANCH   1  15
ATOM     15  N   UNL     1      43.604   3.556  10.587  0.00  0.00    +0.000 N 
ATOM     16  H   UNL     1      43.208   4.493  10.552  0.00  0.00    +0.000 HD
BRANCH  15  20
ATOM     17  C   UNL     1      46.374   2.652   7.621  0.00  0.00    +0.000 A 
ATOM     18  C   UNL     1      45.998   3.979   7.764  0.00  0.00    +0.000 A 
ATOM     19  C   UNL     1      45.052   4.302   8.740  0.00  0.00    +0.000 A 
ATOM     20  C   UNL     1      44.490   3.306   9.540  0.00  0.00    +0.000 A 
ATOM     21  C   UNL     1      44.986   2.010   9.338  0.00  0.00    +0.000 A 
ATOM     22  N   UNL     1      45.889   1.645   8.393  0.00  0.00    +0.000 NA
BRANCH  17  24
ATOM     23  N   UNL     1      47.356   3.048   5.441  0.00  0.00    +0.000 N 
ATOM     24  C   UNL     1      47.365   2.268   6.566  0.00  0.00    +0.000 C 
ATOM     25  O   UNL     1      48.141   1.330   6.696  0.00  0.00    +0.000 OA
ATOM     26  H   UNL     1      48.005   2.856   4.693  0.00  0.00    +0.000 HD
ATOM     27  H   UNL     1      46.705   3.823   5.376  0.00  0.00    +0.000 HD
ENDBRANCH  17  24
ENDBRANCH  15  20
ENDBRANCH   1  15
TORSDOF 5
ENDMDL
MODEL 5
REMARK VINA RESULT:    -7.752      2.681      3.091
REMARK INTER + INTRA:         -10.806
REMARK INTER:                 -10.019
REMARK INTRA:                  -0.787
REMARK UNBOUND:                -0.789
REMARK  Name = 
REMARK  5 active torsions:
REMARK  status: ('A' for Active; 'I' for Inactive)
REMARK    1  A    between atoms: C_2  and  C_4
REMARK    2  A    between atoms: C_7  and  N_8
REMARK    3  A    between atoms: N_8  and  C_9
REMARK    4  A    between atoms: C_9  and  C_10
REMARK    5  A    between atoms: C_14  and  C_15
REMARK                            x       y       z     vdW  Elec       q    Type
REMARK                         _______ _______ _______ _____ _____    ______ ____
ROOT
ATOM      1  C   UNL     1      44.266   3.810  11.841  0.00  0.00    +0.000 C 
ENDROOT
BRANCH   1   2
ATOM      2  C   UNL     1      44.685   5.264  11.794  0.00  0.00    +0.000 A 
ATOM      3  C   UNL     1      43.772   6.271  11.467  0.00  0.00    +0.000 A 
ATOM      4  C   UNL     1      44.181   7.603  11.447  0.00  0.00    +0.000 A 
ATOM      5  C   UNL     1      45.501   7.941  11.766  0.00  0.00    +0.000 A 
ATOM      6  C   UNL     1      46.443   6.959  12.119  0.00  0.00    +0.000 A 
ATOM      7  C   UNL     1      46.011   5.621  12.103  0.00  0.00    +0.000 A 
BRANCH   6   8
ATOM      8  C   UNL     1      47.815   7.310  12.532  0.00  0.00    +0.000 A 
ATOM      9  C   UNL     1      48.192   7.350  13.881  0.00  0.00    +0.000 A 
ATOM     10  N   UNL     1      49.437   7.627  14.339  0.00  0.00    +0.000 NA
ATOM     11  C   UNL     1      50.381   7.871  13.402  0.00  0.00    +0.000 A 
ATOM     12  C   UNL     1      50.129   7.857  12.041  0.00  0.00    +0.000 A 
ATOM     13 CL   UNL     1      51.384   8.158  10.910  0.00  0.00    +0.000 Cl
ATOM     14  C   UNL     1      48.834   7.581  11.606  0.00  0.00    +0.000 A 
ENDBRANCH   6   8
ENDBRANCH   1   2
BRANCH   1  15
ATOM     15  N   UNL     1      43.752   3.428  10.529  0.00  0.00    +0.000 N 
ATOM     16  H   UNL     1      42.938   3.981  10.272  0.00  0.00    +0.000 HD
BRANCH  15  20
ATOM     17  C   UNL     1      46.491   2.667   7.495  0.00  0.00    +0.000 A 
ATOM     18  C   UNL     1      46.041   3.970   7.640  0.00  0.00    +0.000 A 
ATOM     19  C   UNL     1      45.104   4.244   8.639  0.00  0.00    +0.000 A 
ATOM     20  C   UNL     1      44.623   3.223   9.460  0.00  0.00    +0.000 A 
ATOM     21  C   UNL     1      45.190   1.957   9.253  0.00  0.00    +0.000 A 
ATOM     22  N   UNL     1      46.088   1.638   8.287  0.00  0.00    +0.000 NA
BRANCH  17  24
ATOM     23  N   UNL     1      47.443   3.153   5.320  0.00  0.00    +0.000 N 
ATOM     24  C   UNL     1      47.476   2.334   6.417  0.00  0.00    +0.000 C 
ATOM     25  O   UNL     1      48.266   1.403   6.505  0.00  0.00    +0.000 OA
ATOM     26  H   UNL     1      48.085   2.996   4.558  0.00  0.00    +0.000 HD
ATOM     27  H   UNL     1      46.780   3.919   5.289  0.00  0.00    +0.000 HD
ENDBRANCH  17  24
ENDBRANCH  15  20
ENDBRANCH   1  15
TORSDOF 5
ENDMDL
MODEL 6
REMARK VINA RESULT:    -7.700      3.695      5.312
REMARK INTER + INTRA:         -10.740
REMARK INTER:                 -10.027
REMARK INTRA:                  -0.713
REMARK UNBOUND:                -0.789
REMARK  Name = 
REMARK  5 active torsions:
REMARK  status: ('A' for Active; 'I' for Inactive)
REMARK    1  A    between atoms: C_2  and  C_4
REMARK    2  A    between atoms: C_7  and  N_8
REMARK    3  A    between atoms: N_8  and  C_9
REMARK    4  A    between atoms: C_9  and  C_10
REMARK    5  A    between atoms: C_14  and  C_15
REMARK                            x       y       z     vdW  Elec       q    Type
REMARK                         _______ _______ _______ _____ _____    ______ ____
ROOT
ATOM      1  C   UNL     1      44.250   4.722  11.515  0.00  0.00    +0.000 C 
ENDROOT
BRANCH   1   2
ATOM      2  C   UNL     1      44.956   5.987  11.954  0.00  0.00    +0.000 A 
ATOM      3  C   UNL     1      46.100   5.937  12.756  0.00  0.00    +0.000 A 
ATOM      4  C   UNL     1      46.739   7.116  13.133  0.00  0.00    +0.000 A 
ATOM      5  C   UNL     1      46.248   8.354  12.701  0.00  0.00    +0.000 A 
ATOM      6  C   UNL     1      45.112   8.444  11.880  0.00  0.00    +0.000 A 
ATOM      7  C   UNL     1      44.470   7.241  11.538  0.00  0.00    +0.000 A 
BRANCH   6   8
ATOM      8  C   UNL     1      44.631   9.737  11.356  0.00  0.00    +0.000 A 
ATOM      9  C   UNL     1      45.456  10.868  11.311  0.00  0.00    +0.000 A 
ATOM     10  N   UNL     1      45.102  12.078  10.812  0.00  0.00    +0.000 NA
ATOM     11  C   UNL     1      43.850  12.178  10.313  0.00  0.00    +0.000 A 
ATOM     12  C   UNL     1      42.945  11.130  10.299  0.00  0.00    +0.000 A 
ATOM     13 CL   UNL     1      41.378  11.328   9.630  0.00  0.00    +0.000 Cl
ATOM     14  C   UNL     1      43.339   9.903  10.831  0.00  0.00    +0.000 A 
ENDBRANCH   6   8
ENDBRANCH   1   2
BRANCH   1  15
ATOM     15  N   UNL     1      44.050   4.775  10.070  0.00  0.00    +0.000 N 
ATOM     16  H   UNL     1      43.941   5.732   9.743  0.00  0.00    +0.000 HD
BRANCH  15  20
ATOM     17  C   UNL     1      46.472   2.332   7.735  0.00  0.00    +0.000 A 
ATOM     18  C   UNL     1      46.488   3.693   7.469  0.00  0.00    +0.000 A 
ATOM     19  C   UNL     1      45.665   4.529   8.227  0.00  0.00    +0.000 A 
ATOM     20  C   UNL     1      44.837   4.000   9.218  0.00  0.00    +0.000 A 
ATOM     21  C   UNL     1      44.945   2.618   9.430  0.00  0.00    +0.000 A 
ATOM     22  N   UNL     1      45.714   1.764   8.709  0.00  0.00    +0.000 NA
BRANCH  17  24
ATOM     23  N   UNL     1      48.418   1.977   6.334  0.00  0.00    +0.000 N 
ATOM     24  C   UNL     1      47.322   1.404   6.923  0.00  0.00    +0.000 C 
ATOM     25  O   UNL     1      47.069   0.213   6.796  0.00  0.00    +0.000 OA
ATOM     26  H   UNL     1      49.043   1.411   5.781  0.00  0.00    +0.000 HD
ATOM     27  H   UNL     1      48.599   2.965   6.472  0.00  0.00    +0.000 HD
ENDBRANCH  17  24
ENDBRANCH  15  20
ENDBRANCH   1  15
TORSDOF 5
ENDMDL
MODEL 7
REMARK VINA RESULT:    -7.440      3.662      7.701
REMARK INTER + INTRA:         -10.404
REMARK INTER:                  -9.863
REMARK INTRA:                  -0.540
REMARK UNBOUND:                -0.789
REMARK  Name = 
REMARK  5 active torsions:
REMARK  status: ('A' for Active; 'I' for Inactive)
REMARK    1  A    between atoms: C_2  and  C_4
REMARK    2  A    between atoms: C_7  and  N_8
REMARK    3  A    between atoms: N_8  and  C_9
REMARK    4  A    between atoms: C_9  and  C_10
REMARK    5  A    between atoms: C_14  and  C_15
REMARK                            x       y       z     vdW  Elec       q    Type
REMARK                         _______ _______ _______ _____ _____    ______ ____
ROOT
ATOM      1  C   UNL     1      45.627   6.832  12.861  0.00  0.00    +0.000 C 
ENDROOT
BRANCH   1   2
ATOM      2  C   UNL     1      44.876   5.757  12.105  0.00  0.00    +0.000 A 
ATOM      3  C   UNL     1      43.575   5.394  12.463  0.00  0.00    +0.000 A 
ATOM      4  C   UNL     1      42.900   4.413  11.740  0.00  0.00    +0.000 A 
ATOM      5  C   UNL     1      43.515   3.795  10.646  0.00  0.00    +0.000 A 
ATOM      6  C   UNL     1      44.815   4.145  10.244  0.00  0.00    +0.000 A 
ATOM      7  C   UNL     1      45.483   5.117  11.008  0.00  0.00    +0.000 A 
BRANCH   6   8
ATOM      8  C   UNL     1      45.445   3.556   9.045  0.00  0.00    +0.000 A 
ATOM      9  C   UNL     1      45.868   4.348   7.970  0.00  0.00    +0.000 A 
ATOM     10  N   UNL     1      46.485   3.888   6.854  0.00  0.00    +0.000 NA
ATOM     11  C   UNL     1      46.711   2.556   6.797  0.00  0.00    +0.000 A 
ATOM     12  C   UNL     1      46.341   1.675   7.799  0.00  0.00    +0.000 A 
ATOM     13 CL   UNL     1      46.679  -0.002   7.666  0.00  0.00    +0.000 Cl
ATOM     14  C   UNL     1      45.697   2.181   8.928  0.00  0.00    +0.000 A 
ENDBRANCH   6   8
ENDBRANCH   1   2
BRANCH   1  15
ATOM     15  N   UNL     1      47.013   6.405  13.028  0.00  0.00    +0.000 N 
ATOM     16  H   UNL     1      47.665   7.132  12.740  0.00  0.00    +0.000 HD
BRANCH  15  20
ATOM     17  C   UNL     1      47.972   4.372  16.526  0.00  0.00    +0.000 A 
ATOM     18  C   UNL     1      48.526   5.631  16.344  0.00  0.00    +0.000 A 
ATOM     19  C   UNL     1      48.234   6.322  15.165  0.00  0.00    +0.000 A 
ATOM     20  C   UNL     1      47.416   5.749  14.190  0.00  0.00    +0.000 A 
ATOM     21  C   UNL     1      46.875   4.495  14.510  0.00  0.00    +0.000 A 
ATOM     22  N   UNL     1      47.141   3.778  15.630  0.00  0.00    +0.000 NA
BRANCH  17  24
ATOM     23  N   UNL     1      47.271   2.801  18.233  0.00  0.00    +0.000 N 
ATOM     24  C   UNL     1      48.286   3.594  17.766  0.00  0.00    +0.000 C 
ATOM     25  O   UNL     1      49.373   3.648  18.326  0.00  0.00    +0.000 OA
ATOM     26  H   UNL     1      47.414   2.239  19.058  0.00  0.00    +0.000 HD
ATOM     27  H   UNL     1      46.388   2.776  17.735  0.00  0.00    +0.000 HD
ENDBRANCH  17  24
ENDBRANCH  15  20
ENDBRANCH   1  15
TORSDOF 5
ENDMDL
MODEL 8
REMARK VINA RESULT:    -7.410      2.025      2.380
REMARK INTER + INTRA:         -10.364
REMARK INTER:                  -9.608
REMARK INTRA:                  -0.756
REMARK UNBOUND:                -0.789
REMARK  Name = 
REMARK  5 active torsions:
REMARK  status: ('A' for Active; 'I' for Inactive)
REMARK    1  A    between atoms: C_2  and  C_4
REMARK    2  A    between atoms: C_7  and  N_8
REMARK    3  A    between atoms: N_8  and  C_9
REMARK    4  A    between atoms: C_9  and  C_10
REMARK    5  A    between atoms: C_14  and  C_15
REMARK                            x       y       z     vdW  Elec       q    Type
REMARK                         _______ _______ _______ _____ _____    ______ ____
ROOT
ATOM      1  C   UNL     1      44.305   4.976  11.477  0.00  0.00    +0.000 C 
ENDROOT
BRANCH   1   2
ATOM      2  C   UNL     1      44.944   6.335  11.665  0.00  0.00    +0.000 A 
ATOM      3  C   UNL     1      44.243   7.510  11.382  0.00  0.00    +0.000 A 
ATOM      4  C   UNL     1      44.851   8.749  11.579  0.00  0.00    +0.000 A 
ATOM      5  C   UNL     1      46.158   8.823  12.072  0.00  0.00    +0.000 A 
ATOM      6  C   UNL     1      46.889   7.664  12.385  0.00  0.00    +0.000 A 
ATOM      7  C   UNL     1      46.262   6.428  12.150  0.00  0.00    +0.000 A 
BRANCH   6   8
ATOM      8  C   UNL     1      48.239   7.731  12.978  0.00  0.00    +0.000 A 
ATOM      9  C   UNL     1      49.280   8.439  12.364  0.00  0.00    +0.000 A 
ATOM     10  N   UNL     1      50.533   8.578  12.861  0.00  0.00    +0.000 NA
ATOM     11  C   UNL     1      50.775   7.988  14.054  0.00  0.00    +0.000 A 
ATOM     12  C   UNL     1      49.826   7.266  14.756  0.00  0.00    +0.000 A 
ATOM     13 CL   UNL     1      50.201   6.561  16.275  0.00  0.00    +0.000 Cl
ATOM     14  C   UNL     1      48.551   7.132  14.209  0.00  0.00    +0.000 A 
ENDBRANCH   6   8
ENDBRANCH   1   2
BRANCH   1  15
ATOM     15  N   UNL     1      43.952   4.814  10.070  0.00  0.00    +0.000 N 
ATOM     16  H   UNL     1      43.624   5.688   9.665  0.00  0.00    +0.000 HD
BRANCH  15  20
ATOM     17  C   UNL     1      46.484   2.522   7.698  0.00  0.00    +0.000 A 
ATOM     18  C   UNL     1      46.586   3.902   7.598  0.00  0.00    +0.000 A 
ATOM     19  C   UNL     1      45.729   4.691   8.370  0.00  0.00    +0.000 A 
ATOM     20  C   UNL     1      44.784   4.099   9.210  0.00  0.00    +0.000 A 
ATOM     21  C   UNL     1      44.811   2.698   9.266  0.00  0.00    +0.000 A 
ATOM     22  N   UNL     1      45.610   1.890   8.524  0.00  0.00    +0.000 NA
BRANCH  17  24
ATOM     23  N   UNL     1      48.334   2.304   6.148  0.00  0.00    +0.000 N 
ATOM     24  C   UNL     1      47.369   1.648   6.865  0.00  0.00    +0.000 C 
ATOM     25  O   UNL     1      47.252   0.430   6.827  0.00  0.00    +0.000 OA
ATOM     26  H   UNL     1      48.974   1.778   5.573  0.00  0.00    +0.000 HD
ATOM     27  H   UNL     1      48.405   3.313   6.214  0.00  0.00    +0.000 HD
ENDBRANCH  17  24
ENDBRANCH  15  20
ENDBRANCH   1  15
TORSDOF 5
ENDMDL
MODEL 9
REMARK VINA RESULT:    -7.197      3.729      7.227
REMARK INTER + INTRA:         -10.089
REMARK INTER:                  -9.235
REMARK INTRA:                  -0.853
REMARK UNBOUND:                -0.789
REMARK  Name = 
REMARK  5 active torsions:
REMARK  status: ('A' for Active; 'I' for Inactive)
REMARK    1  A    between atoms: C_2  and  C_4
REMARK    2  A    between atoms: C_7  and  N_8
REMARK    3  A    between atoms: N_8  and  C_9
REMARK    4  A    between atoms: C_9  and  C_10
REMARK    5  A    between atoms: C_14  and  C_15
REMARK                            x       y       z     vdW  Elec       q    Type
REMARK                         _______ _______ _______ _____ _____    ______ ____
ROOT
ATOM      1  C   UNL     1      43.991   7.192  11.420  0.00  0.00    +0.000 C 
ENDROOT
BRANCH   1   2
ATOM      2  C   UNL     1      43.958   5.689  11.245  0.00  0.00    +0.000 A 
ATOM      3  C   UNL     1      43.155   4.882  12.056  0.00  0.00    +0.000 A 
ATOM      4  C   UNL     1      43.132   3.502  11.863  0.00  0.00    +0.000 A 
ATOM      5  C   UNL     1      43.902   2.918  10.851  0.00  0.00    +0.000 A 
ATOM      6  C   UNL     1      44.708   3.698  10.004  0.00  0.00    +0.000 A 
ATOM      7  C   UNL     1      44.734   5.083  10.239  0.00  0.00    +0.000 A 
BRANCH   6   8
ATOM      8  C   UNL     1      45.463   3.102   8.884  0.00  0.00    +0.000 A 
ATOM      9  C   UNL     1      46.044   3.892   7.883  0.00  0.00    +0.000 A 
ATOM     10  N   UNL     1      46.781   3.425   6.846  0.00  0.00    +0.000 NA
ATOM     11  C   UNL     1      46.969   2.086   6.797  0.00  0.00    +0.000 A 
ATOM     12  C   UNL     1      46.448   1.206   7.730  0.00  0.00    +0.000 A 
ATOM     13 CL   UNL     1      46.745  -0.480   7.612  0.00  0.00    +0.000 Cl
ATOM     14  C   UNL     1      45.684   1.720   8.776  0.00  0.00    +0.000 A 
ENDBRANCH   6   8
ENDBRANCH   1   2
BRANCH   1  15
ATOM     15  N   UNL     1      44.690   7.505  12.662  0.00  0.00    +0.000 N 
ATOM     16  H   UNL     1      44.311   6.978  13.446  0.00  0.00    +0.000 HD
BRANCH  15  20
ATOM     17  C   UNL     1      48.828   7.886  12.528  0.00  0.00    +0.000 A 
ATOM     18  C   UNL     1      48.309   6.644  12.861  0.00  0.00    +0.000 A 
ATOM     19  C   UNL     1      46.921   6.499  12.934  0.00  0.00    +0.000 A 
ATOM     20  C   UNL     1      46.081   7.587  12.690  0.00  0.00    +0.000 A 
ATOM     21  C   UNL     1      46.719   8.777  12.312  0.00  0.00    +0.000 A 
ATOM     22  N   UNL     1      48.060   8.971  12.245  0.00  0.00    +0.000 NA
BRANCH  17  24
ATOM     23  N   UNL     1      50.991   7.771  13.615  0.00  0.00    +0.000 N 
ATOM     24  C   UNL     1      50.311   8.082  12.467  0.00  0.00    +0.000 C 
ATOM     25  O   UNL     1      50.887   8.482  11.464  0.00  0.00    +0.000 OA
ATOM     26  H   UNL     1      51.994   7.868  13.644  0.00  0.00    +0.000 HD
ATOM     27  H   UNL     1      50.479   7.433  14.422  0.00  0.00    +0.000 HD
ENDBRANCH  17  24
ENDBRANCH  15  20
ENDBRANCH   1  15
TORSDOF 5
ENDMDL
