MODEL 1
REMARK VINA RESULT:    -8.708      0.000      0.000
REMARK INTER + INTRA:         -10.865
REMARK INTER:                 -10.745
REMARK INTRA:                  -0.121
REMARK UNBOUND:                -0.121
REMARK  Name = 
REMARK  4 active torsions:
REMARK  status: ('A' for Active; 'I' for Inactive)
REMARK    1  A    between atoms: C_2  and  C_5
REMARK    2  A    between atoms: N_9  and  C_10
REMARK    3  A    between atoms: C_10  and  C_11
REMARK    4  A    between atoms: C_13  and  C_14
REMARK                            x       y       z     vdW  Elec       q    Type
REMARK                         _______ _______ _______ _____ _____    ______ ____
ROOT
ATOM      1  C   UNL     1      43.916   4.983  11.598  0.00  0.00    +0.000 C 
ATOM      2  C   UNL     1      42.615   5.250  12.342  0.00  0.00    +0.000 C 
ATOM      3  C   UNL     1      42.915   6.016  11.096  0.00  0.00    +0.000 C 
ENDROOT
BRANCH   1   8
ATOM      4  C   UNL     1      46.239   2.742   7.646  0.00  0.00    +0.000 A 
ATOM      5  C   UNL     1      45.996   4.040   8.021  0.00  0.00    +0.000 A 
ATOM      6  N   UNL     1      45.268   4.382   9.104  0.00  0.00    +0.000 NA
ATOM      7  C   UNL     1      44.768   3.386   9.852  0.00  0.00    +0.000 A 
ATOM      8  N   UNL     1      44.014   3.653  10.988  0.00  0.00    +0.000 N 
ATOM      9  N   UNL     1      44.947   2.089   9.558  0.00  0.00    +0.000 NA
ATOM     10  C   UNL     1      45.667   1.793   8.456  0.00  0.00    +0.000 A 
ATOM     11  H   UNL     1      43.979   2.830  11.575  0.00  0.00    +0.000 HD
BRANCH   4  13
ATOM     12  F   UNL     1      46.664   3.008   5.320  0.00  0.00    +0.000 F 
ATOM     13  C   UNL     1      47.056   2.379   6.462  0.00  0.00    +0.000 C 
ATOM     14  F   UNL     1      47.018   1.047   6.187  0.00  0.00    +0.000 F 
ATOM     15  F   UNL     1      48.372   2.688   6.623  0.00  0.00    +0.000 F 
ENDBRANCH   4  13
ENDBRANCH   1   8
BRANCH   1  16
ATOM     16  C   UNL     1      45.219   5.564  12.170  0.00  0.00    +0.000 A 
ATOM     17  C   UNL     1      45.699   5.101  13.400  0.00  0.00    +0.000 A 
ATOM     18  C   UNL     1      46.968   5.455  13.878  0.00  0.00    +0.000 A 
ATOM     19  C   UNL     1      47.714   6.324  13.077  0.00  0.00    +0.000 A 
ATOM     20  C   UNL     1      47.163   6.792  11.892  0.00  0.00    +0.000 A 
ATOM     21  N   UNL     1      45.946   6.436  11.431  0.00  0.00    +0.000 NA
BRANCH  18  22
ATOM     22  C   UNL     1      47.485   4.903  15.147  0.00  0.00    +0.000 A 
ATOM     23  C   UNL     1      48.328   5.606  15.996  0.00  0.00    +0.000 A 
ATOM     24  N   UNL     1      48.844   5.128  17.153  0.00  0.00    +0.000 NA
ATOM     25  C   UNL     1      48.480   3.882  17.474  0.00  0.00    +0.000 A 
ATOM     26  N   UNL     1      47.664   3.097  16.762  0.00  0.00    +0.000 NA
ATOM     27  C   UNL     1      47.190   3.632  15.611  0.00  0.00    +0.000 A 
ENDBRANCH  18  22
ENDBRANCH   1  16
TORSDOF 4
ENDMDL
MODEL 2
REMARK VINA RESULT:    -8.377      1.809      3.528
REMARK INTER + INTRA:         -10.456
REMARK INTER:                 -10.408
REMARK INTRA:                  -0.048
REMARK UNBOUND:                -0.121
REMARK  Name = 
REMARK  4 active torsions:
REMARK  status: ('A' for Active; 'I' for Inactive)
REMARK    1  A    between atoms: C_2  and  C_5
REMARK    2  A    between atoms: N_9  and  C_10
REMARK    3  A    between atoms: C_10  and  C_11
REMARK    4  A    between atoms: C_13  and  C_14
REMARK                            x       y       z     vdW  Elec       q    Type
REMARK                         _______ _______ _______ _____ _____    ______ ____
ROOT
ATOM      1  C   UNL     1      44.055   4.827  11.810  0.00  0.00    +0.000 C 
ATOM      2  C   UNL     1      42.757   5.200  12.513  0.00  0.00    +0.000 C 
ATOM      3  C   UNL     1      43.233   6.030  11.367  0.00  0.00    +0.000 C 
ENDROOT
BRANCH   1   8
ATOM      4  C   UNL     1      46.188   2.723   7.679  0.00  0.00    +0.000 A 
ATOM      5  C   UNL     1      46.087   3.998   8.177  0.00  0.00    +0.000 A 
ATOM      6  N   UNL     1      45.380   4.316   9.282  0.00  0.00    +0.000 NA
ATOM      7  C   UNL     1      44.756   3.317   9.924  0.00  0.00    +0.000 A 
ATOM      8  N   UNL     1      44.014   3.559  11.074  0.00  0.00    +0.000 N 
ATOM      9  N   UNL     1      44.792   2.042   9.507  0.00  0.00    +0.000 NA
ATOM     10  C   UNL     1      45.496   1.772   8.388  0.00  0.00    +0.000 A 
ATOM     11  H   UNL     1      43.874   2.693  11.578  0.00  0.00    +0.000 HD
BRANCH   4  13
ATOM     12  F   UNL     1      48.297   2.722   6.578  0.00  0.00    +0.000 F 
ATOM     13  C   UNL     1      46.983   2.383   6.474  0.00  0.00    +0.000 C 
ATOM     14  F   UNL     1      46.526   3.004   5.352  0.00  0.00    +0.000 F 
ATOM     15  F   UNL     1      46.963   1.051   6.194  0.00  0.00    +0.000 F 
ENDBRANCH   4  13
ENDBRANCH   1   8
BRANCH   1  16
ATOM     16  C   UNL     1      45.385   5.167  12.500  0.00  0.00    +0.000 A 
ATOM     17  C   UNL     1      46.153   6.239  12.030  0.00  0.00    +0.000 A 
ATOM     18  C   UNL     1      47.273   6.708  12.730  0.00  0.00    +0.000 A 
ATOM     19  C   UNL     1      47.604   6.025  13.903  0.00  0.00    +0.000 A 
ATOM     20  C   UNL     1      46.837   4.936  14.291  0.00  0.00    +0.000 A 
ATOM     21  N   UNL     1      45.751   4.498  13.621  0.00  0.00    +0.000 NA
BRANCH  18  22
ATOM     22  C   UNL     1      48.030   7.883  12.254  0.00  0.00    +0.000 A 
ATOM     23  C   UNL     1      49.362   7.825  11.868  0.00  0.00    +0.000 A 
ATOM     24  N   UNL     1      50.100   8.882  11.451  0.00  0.00    +0.000 NA
ATOM     25  C   UNL     1      49.454  10.053  11.410  0.00  0.00    +0.000 A 
ATOM     26  N   UNL     1      48.172  10.252  11.735  0.00  0.00    +0.000 NA
ATOM     27  C   UNL     1      47.494   9.156  12.153  0.00  0.00    +0.000 A 
ENDBRANCH  18  22
ENDBRANCH   1  16
TORSDOF 4
ENDMDL
MODEL 3
REMARK VINA RESULT:    -7.460      4.166      7.680
REMARK INTER + INTRA:          -9.326
REMARK INTER:                  -8.940
REMARK INTRA:                  -0.385
REMARK UNBOUND:                -0.121
REMARK  Name = 
REMARK  4 active torsions:
REMARK  status: ('A' for Active; 'I' for Inactive)
REMARK    1  A    between atoms: C_2  and  C_5
REMARK    2  A    between atoms: N_9  and  C_10
REMARK    3  A    between atoms: C_10  and  C_11
REMARK    4  A    between atoms: C_13  and  C_14
REMARK                            x       y       z     vdW  Elec       q    Type
REMARK                         _______ _______ _______ _____ _____    ______ ____
ROOT
ATOM      1  C   UNL     1      48.401   7.836  12.716  0.00  0.00    +0.000 C 
ATOM      2  C   UNL     1      49.561   7.232  11.938  0.00  0.00    +0.000 C 
ATOM      3  C   UNL     1      49.310   8.701  11.854  0.00  0.00    +0.000 C 
ENDROOT
BRANCH   1   8
ATOM      4  C   UNL     1      48.030   4.432  16.500  0.00  0.00    +0.000 A 
ATOM      5  C   UNL     1      47.644   4.466  15.183  0.00  0.00    +0.000 A 
ATOM      6  N   UNL     1      47.790   5.547  14.388  0.00  0.00    +0.000 NA
ATOM      7  C   UNL     1      48.354   6.638  14.928  0.00  0.00    +0.000 A 
ATOM      8  N   UNL     1      48.548   7.790  14.175  0.00  0.00    +0.000 N 
ATOM      9  N   UNL     1      48.756   6.699  16.207  0.00  0.00    +0.000 NA
ATOM     10  C   UNL     1      48.574   5.601  16.970  0.00  0.00    +0.000 A 
ATOM     11  H   UNL     1      49.233   8.381  14.627  0.00  0.00    +0.000 HD
BRANCH   4  13
ATOM     12  F   UNL     1      48.417   3.383  18.600  0.00  0.00    +0.000 F 
ATOM     13  C   UNL     1      47.880   3.231  17.358  0.00  0.00    +0.000 C 
ATOM     14  F   UNL     1      48.475   2.129  16.827  0.00  0.00    +0.000 F 
ATOM     15  F   UNL     1      46.577   2.891  17.556  0.00  0.00    +0.000 F 
ENDBRANCH   4  13
ENDBRANCH   1   8
BRANCH   1  16
ATOM     16  C   UNL     1      46.976   7.645  12.173  0.00  0.00    +0.000 A 
ATOM     17  C   UNL     1      46.669   6.502  11.426  0.00  0.00    +0.000 A 
ATOM     18  C   UNL     1      45.352   6.186  11.067  0.00  0.00    +0.000 A 
ATOM     19  C   UNL     1      44.365   7.092  11.463  0.00  0.00    +0.000 A 
ATOM     20  C   UNL     1      44.736   8.236  12.156  0.00  0.00    +0.000 A 
ATOM     21  N   UNL     1      46.005   8.527  12.511  0.00  0.00    +0.000 NA
BRANCH  18  22
ATOM     22  C   UNL     1      45.041   4.941  10.337  0.00  0.00    +0.000 A 
ATOM     23  C   UNL     1      44.290   3.907  10.878  0.00  0.00    +0.000 A 
ATOM     24  N   UNL     1      44.003   2.740  10.254  0.00  0.00    +0.000 NA
ATOM     25  C   UNL     1      44.492   2.617   9.014  0.00  0.00    +0.000 A 
ATOM     26  N   UNL     1      45.215   3.534   8.363  0.00  0.00    +0.000 NA
ATOM     27  C   UNL     1      45.473   4.675   9.048  0.00  0.00    +0.000 A 
ENDBRANCH  18  22
ENDBRANCH   1  16
TORSDOF 4
ENDMDL
MODEL 4
REMARK VINA RESULT:    -6.573      5.280      8.814
REMARK INTER + INTRA:          -8.230
REMARK INTER:                  -8.277
REMARK INTRA:                   0.046
REMARK UNBOUND:                -0.121
REMARK  Name = 
REMARK  4 active torsions:
REMARK  status: ('A' for Active; 'I' for Inactive)
REMARK    1  A    between atoms: C_2  and  C_5
REMARK    2  A    between atoms: N_9  and  C_10
REMARK    3  A    between atoms: C_10  and  C_11
REMARK    4  A    between atoms: C_13  and  C_14
REMARK                            x       y       z     vdW  Elec       q    Type
REMARK                         _______ _______ _______ _____ _____    ______ ____
ROOT
ATOM      1  C   UNL     1      48.026   3.823  16.799  0.00  0.00    +0.000 C 
ATOM      2  C   UNL     1      48.185   4.529  18.138  0.00  0.00    +0.000 C 
ATOM      3  C   UNL     1      46.876   3.898  17.794  0.00  0.00    +0.000 C 
ENDROOT
BRANCH   1   8
ATOM      4  C   UNL     1      52.735   2.175  17.871  0.00  0.00    +0.000 A 
ATOM      5  C   UNL     1      52.124   3.403  17.821  0.00  0.00    +0.000 A 
ATOM      6  N   UNL     1      50.849   3.588  17.420  0.00  0.00    +0.000 NA
ATOM      7  C   UNL     1      50.149   2.500  17.064  0.00  0.00    +0.000 A 
ATOM      8  N   UNL     1      48.828   2.604  16.647  0.00  0.00    +0.000 N 
ATOM      9  N   UNL     1      50.665   1.261  17.074  0.00  0.00    +0.000 NA
ATOM     10  C   UNL     1      51.949   1.125  17.465  0.00  0.00    +0.000 A 
ATOM     11  H   UNL     1      48.379   1.700  16.709  0.00  0.00    +0.000 HD
BRANCH   4  13
ATOM     12  F   UNL     1      54.306   2.235  19.657  0.00  0.00    +0.000 F 
ATOM     13  C   UNL     1      54.132   1.982  18.330  0.00  0.00    +0.000 C 
ATOM     14  F   UNL     1      55.014   2.787  17.678  0.00  0.00    +0.000 F 
ATOM     15  F   UNL     1      54.575   0.710  18.134  0.00  0.00    +0.000 F 
ENDBRANCH   4  13
ENDBRANCH   1   8
BRANCH   1  16
ATOM     16  C   UNL     1      47.851   4.680  15.536  0.00  0.00    +0.000 A 
ATOM     17  C   UNL     1      46.847   4.357  14.615  0.00  0.00    +0.000 A 
ATOM     18  C   UNL     1      46.521   5.206  13.549  0.00  0.00    +0.000 A 
ATOM     19  C   UNL     1      47.277   6.375  13.431  0.00  0.00    +0.000 A 
ATOM     20  C   UNL     1      48.295   6.616  14.343  0.00  0.00    +0.000 A 
ATOM     21  N   UNL     1      48.594   5.802  15.377  0.00  0.00    +0.000 NA
BRANCH  18  22
ATOM     22  C   UNL     1      45.413   4.879  12.628  0.00  0.00    +0.000 A 
ATOM     23  C   UNL     1      44.493   5.817  12.181  0.00  0.00    +0.000 A 
ATOM     24  N   UNL     1      43.450   5.555  11.358  0.00  0.00    +0.000 NA
ATOM     25  C   UNL     1      43.338   4.283  10.959  0.00  0.00    +0.000 A 
ATOM     26  N   UNL     1      44.158   3.282  11.296  0.00  0.00    +0.000 NA
ATOM     27  C   UNL     1      45.176   3.609  12.128  0.00  0.00    +0.000 A 
ENDBRANCH  18  22
ENDBRANCH   1  16
TORSDOF 4
ENDMDL
MODEL 5
REMARK VINA RESULT:    -6.527      4.069      6.813
REMARK INTER + INTRA:          -8.174
REMARK INTER:                  -8.210
REMARK INTRA:                   0.036
REMARK UNBOUND:                -0.121
REMARK  Name = 
REMARK  4 active torsions:
REMARK  status: ('A' for Active; 'I' for Inactive)
REMARK    1  A    between atoms: C_2  and  C_5
REMARK    2  A    between atoms: N_9  and  C_10
REMARK    3  A    between atoms: C_10  and  C_11
REMARK    4  A    between atoms: C_13  and  C_14
REMARK                            x       y       z     vdW  Elec       q    Type
REMARK                         _______ _______ _______ _____ _____    ______ ____
ROOT
ATOM      1  C   UNL     1      45.939   8.162  12.527  0.00  0.00    +0.000 C 
ATOM      2  C   UNL     1      47.389   7.712  12.419  0.00  0.00    +0.000 C 
ATOM      3  C   UNL     1      46.904   8.317  13.694  0.00  0.00    +0.000 C 
ENDROOT
BRANCH   1   8
ATOM      4  C   UNL     1      44.921   4.008   9.742  0.00  0.00    +0.000 A 
ATOM      5  C   UNL     1      45.717   5.115   9.579  0.00  0.00    +0.000 A 
ATOM      6  N   UNL     1      45.752   6.145  10.452  0.00  0.00    +0.000 NA
ATOM      7  C   UNL     1      44.969   6.062  11.538  0.00  0.00    +0.000 A 
ATOM      8  N   UNL     1      44.954   7.076  12.488  0.00  0.00    +0.000 N 
ATOM      9  N   UNL     1      44.155   5.022  11.776  0.00  0.00    +0.000 NA
ATOM     10  C   UNL     1      44.138   4.023  10.870  0.00  0.00    +0.000 A 
ATOM     11  H   UNL     1      44.560   6.727  13.352  0.00  0.00    +0.000 HD
BRANCH   4  13
ATOM     12  F   UNL     1      44.142   1.826   9.202  0.00  0.00    +0.000 F 
ATOM     13  C   UNL     1      44.904   2.875   8.786  0.00  0.00    +0.000 C 
ATOM     14  F   UNL     1      46.144   2.365   8.553  0.00  0.00    +0.000 F 
ATOM     15  F   UNL     1      44.413   3.229   7.566  0.00  0.00    +0.000 F 
ENDBRANCH   4  13
ENDBRANCH   1   8
BRANCH   1  16
ATOM     16  C   UNL     1      45.526   9.475  11.844  0.00  0.00    +0.000 A 
ATOM     17  C   UNL     1      44.209   9.639  11.399  0.00  0.00    +0.000 A 
ATOM     18  C   UNL     1      43.732  10.874  10.943  0.00  0.00    +0.000 A 
ATOM     19  C   UNL     1      44.651  11.926  10.920  0.00  0.00    +0.000 A 
ATOM     20  C   UNL     1      45.958  11.691  11.323  0.00  0.00    +0.000 A 
ATOM     21  N   UNL     1      46.408  10.502  11.776  0.00  0.00    +0.000 NA
BRANCH  18  22
ATOM     22  C   UNL     1      42.321  11.044  10.541  0.00  0.00    +0.000 A 
ATOM     23  C   UNL     1      41.886  12.050   9.691  0.00  0.00    +0.000 A 
ATOM     24  N   UNL     1      40.600  12.256   9.319  0.00  0.00    +0.000 NA
ATOM     25  C   UNL     1      39.711  11.393   9.823  0.00  0.00    +0.000 A 
ATOM     26  N   UNL     1      39.989  10.369  10.638  0.00  0.00    +0.000 NA
ATOM     27  C   UNL     1      41.292  10.225  10.978  0.00  0.00    +0.000 A 
ENDBRANCH  18  22
ENDBRANCH   1  16
TORSDOF 4
ENDMDL
MODEL 6
REMARK VINA RESULT:    -6.463      5.467      8.493
REMARK INTER + INTRA:          -8.095
REMARK INTER:                  -7.951
REMARK INTRA:                  -0.143
REMARK UNBOUND:                -0.121
REMARK  Name = 
REMARK  4 active torsions:
REMARK  status: ('A' for Active; 'I' for Inactive)
REMARK    1  A    between atoms: C_2  and  C_5
REMARK    2  A    between atoms: N_9  and  C_10
REMARK    3  A    between atoms: C_10  and  C_11
REMARK    4  A    between atoms: C_13  and  C_14
REMARK                            x       y       z     vdW  Elec       q    Type
REMARK                         _______ _______ _______ _____ _____    ______ ____
ROOT
ATOM      1  C   UNL     1      49.183   7.703  12.452  0.00  0.00    +0.000 C 
ATOM      2  C   UNL     1      50.170   7.663  11.294  0.00  0.00    +0.000 C 
ATOM      3  C   UNL     1      49.955   8.945  12.028  0.00  0.00    +0.000 C 
ENDROOT
BRANCH   1   8
ATOM      4  C   UNL     1      48.512   7.770  17.511  0.00  0.00    +0.000 A 
ATOM      5  C   UNL     1      48.313   8.669  16.493  0.00  0.00    +0.000 A 
ATOM      6  N   UNL     1      48.654   8.433  15.209  0.00  0.00    +0.000 NA
ATOM      7  C   UNL     1      49.209   7.244  14.926  0.00  0.00    +0.000 A 
ATOM      8  N   UNL     1      49.581   6.920  13.627  0.00  0.00    +0.000 N 
ATOM      9  N   UNL     1      49.448   6.307  15.856  0.00  0.00    +0.000 NA
ATOM     10  C   UNL     1      49.107   6.592  17.129  0.00  0.00    +0.000 A 
ATOM     11  H   UNL     1      49.692   5.917  13.545  0.00  0.00    +0.000 HD
BRANCH   4  13
ATOM     12  F   UNL     1      47.312   7.070  19.442  0.00  0.00    +0.000 F 
ATOM     13  C   UNL     1      48.117   8.034  18.915  0.00  0.00    +0.000 C 
ATOM     14  F   UNL     1      47.439   9.205  19.058  0.00  0.00    +0.000 F 
ATOM     15  F   UNL     1      49.188   8.121  19.751  0.00  0.00    +0.000 F 
ENDBRANCH   4  13
ENDBRANCH   1   8
BRANCH   1  16
ATOM     16  C   UNL     1      47.680   7.731  12.134  0.00  0.00    +0.000 A 
ATOM     17  C   UNL     1      46.981   6.526  11.997  0.00  0.00    +0.000 A 
ATOM     18  C   UNL     1      45.584   6.490  11.893  0.00  0.00    +0.000 A 
ATOM     19  C   UNL     1      44.929   7.724  11.896  0.00  0.00    +0.000 A 
ATOM     20  C   UNL     1      45.679   8.888  11.981  0.00  0.00    +0.000 A 
ATOM     21  N   UNL     1      47.023   8.916  12.095  0.00  0.00    +0.000 NA
BRANCH  18  22
ATOM     22  C   UNL     1      44.860   5.206  11.817  0.00  0.00    +0.000 A 
ATOM     23  C   UNL     1      44.297   4.717  10.647  0.00  0.00    +0.000 A 
ATOM     24  N   UNL     1      43.603   3.558  10.539  0.00  0.00    +0.000 NA
ATOM     25  C   UNL     1      43.483   2.853  11.670  0.00  0.00    +0.000 A 
ATOM     26  N   UNL     1      43.986   3.194  12.862  0.00  0.00    +0.000 NA
ATOM     27  C   UNL     1      44.661   4.368  12.902  0.00  0.00    +0.000 A 
ENDBRANCH  18  22
ENDBRANCH   1  16
TORSDOF 4
ENDMDL
MODEL 7
REMARK VINA RESULT:    -6.434      3.397      5.171
REMARK INTER + INTRA:          -8.059
REMARK INTER:                  -7.948
REMARK INTRA:                  -0.111
REMARK UNBOUND:                -0.121
REMARK  Name = 
REMARK  4 active torsions:
REMARK  status: ('A' for Active; 'I' for Inactive)
REMARK    1  A    between atoms: C_2  and  C_5
REMARK    2  A    between atoms: N_9  and  C_10
REMARK    3  A    between atoms: C_10  and  C_11
REMARK    4  A    between atoms: C_13  and  C_14
REMARK                            x       y       z     vdW  Elec       q    Type
REMARK                         _______ _______ _______ _____ _____    ______ ____
ROOT
ATOM      1  C   UNL     1      48.655   8.207  12.608  0.00  0.00    +0.000 C 
ATOM      2  C   UNL     1      49.732   8.952  11.831  0.00  0.00    +0.000 C 
ATOM      3  C   UNL     1      49.654   7.464  11.731  0.00  0.00    +0.000 C 
ENDROOT
BRANCH   1   8
ATOM      4  C   UNL     1      44.394   5.579  11.619  0.00  0.00    +0.000 A 
ATOM      5  C   UNL     1      45.714   5.253  11.807  0.00  0.00    +0.000 A 
ATOM      6  N   UNL     1      46.692   6.167  11.980  0.00  0.00    +0.000 NA
ATOM      7  C   UNL     1      46.337   7.461  11.977  0.00  0.00    +0.000 A 
ATOM      8  N   UNL     1      47.283   8.463  12.157  0.00  0.00    +0.000 N 
ATOM      9  N   UNL     1      45.073   7.873  11.794  0.00  0.00    +0.000 NA
ATOM     10  C   UNL     1      44.130   6.927  11.607  0.00  0.00    +0.000 A 
ATOM     11  H   UNL     1      46.821   9.323  12.422  0.00  0.00    +0.000 HD
BRANCH   4  13
ATOM     12  F   UNL     1      43.453   3.831  10.309  0.00  0.00    +0.000 F 
ATOM     13  C   UNL     1      43.325   4.566  11.448  0.00  0.00    +0.000 C 
ATOM     14  F   UNL     1      42.082   5.117  11.398  0.00  0.00    +0.000 F 
ATOM     15  F   UNL     1      43.291   3.665  12.468  0.00  0.00    +0.000 F 
ENDBRANCH   4  13
ENDBRANCH   1   8
BRANCH   1  16
ATOM     16  C   UNL     1      48.845   8.013  14.120  0.00  0.00    +0.000 A 
ATOM     17  C   UNL     1      48.457   6.808  14.716  0.00  0.00    +0.000 A 
ATOM     18  C   UNL     1      48.776   6.505  16.047  0.00  0.00    +0.000 A 
ATOM     19  C   UNL     1      49.471   7.486  16.759  0.00  0.00    +0.000 A 
ATOM     20  C   UNL     1      49.782   8.684  16.130  0.00  0.00    +0.000 A 
ATOM     21  N   UNL     1      49.485   8.964  14.844  0.00  0.00    +0.000 NA
BRANCH  18  22
ATOM     22  C   UNL     1      48.416   5.200  16.637  0.00  0.00    +0.000 A 
ATOM     23  C   UNL     1      47.221   4.547  16.372  0.00  0.00    +0.000 A 
ATOM     24  N   UNL     1      46.841   3.364  16.912  0.00  0.00    +0.000 NA
ATOM     25  C   UNL     1      47.720   2.808  17.752  0.00  0.00    +0.000 A 
ATOM     26  N   UNL     1      48.913   3.314  18.086  0.00  0.00    +0.000 NA
ATOM     27  C   UNL     1      49.227   4.503  17.518  0.00  0.00    +0.000 A 
ENDBRANCH  18  22
ENDBRANCH   1  16
TORSDOF 4
ENDMDL
MODEL 8
REMARK VINA RESULT:    -6.424      3.778      6.480
REMARK INTER + INTRA:          -8.047
REMARK INTER:                  -7.892
REMARK INTRA:                  -0.155
REMARK UNBOUND:                -0.121
REMARK  Name = 
REMARK  4 active torsions:
REMARK  status: ('A' for Active; 'I' for Inactive)
REMARK    1  A    between atoms: C_2  and  C_5
REMARK    2  A    between atoms: N_9  and  C_10
REMARK    3  A    between atoms: C_10  and  C_11
REMARK    4  A    between atoms: C_13  and  C_14
REMARK                            x       y       z     vdW  Elec       q    Type
REMARK                         _______ _______ _______ _____ _____    ______ ____
ROOT
ATOM      1  C   UNL     1      48.153   3.636  16.966  0.00  0.00    +0.000 C 
ATOM      2  C   UNL     1      49.038   2.443  16.632  0.00  0.00    +0.000 C 
ATOM      3  C   UNL     1      48.347   2.494  17.955  0.00  0.00    +0.000 C 
ENDROOT
BRANCH   1   8
ATOM      4  C   UNL     1      46.649   5.795  12.594  0.00  0.00    +0.000 A 
ATOM      5  C   UNL     1      47.737   5.931  13.420  0.00  0.00    +0.000 A 
ATOM      6  N   UNL     1      47.867   5.283  14.597  0.00  0.00    +0.000 NA
ATOM      7  C   UNL     1      46.875   4.456  14.960  0.00  0.00    +0.000 A 
ATOM      8  N   UNL     1      46.937   3.746  16.153  0.00  0.00    +0.000 N 
ATOM      9  N   UNL     1      45.772   4.266  14.221  0.00  0.00    +0.000 NA
ATOM     10  C   UNL     1      45.675   4.947  13.060  0.00  0.00    +0.000 A 
ATOM     11  H   UNL     1      46.284   2.974  16.124  0.00  0.00    +0.000 HD
BRANCH   4  13
ATOM     12  F   UNL     1      47.685   7.075  10.877  0.00  0.00    +0.000 F 
ATOM     13  C   UNL     1      46.524   6.499  11.294  0.00  0.00    +0.000 C 
ATOM     14  F   UNL     1      45.602   7.499  11.325  0.00  0.00    +0.000 F 
ATOM     15  F   UNL     1      46.138   5.669  10.286  0.00  0.00    +0.000 F 
ENDBRANCH   4  13
ENDBRANCH   1   8
BRANCH   1  16
ATOM     16  C   UNL     1      48.826   4.960  17.360  0.00  0.00    +0.000 A 
ATOM     17  C   UNL     1      48.131   5.878  18.156  0.00  0.00    +0.000 A 
ATOM     18  C   UNL     1      48.757   7.009  18.698  0.00  0.00    +0.000 A 
ATOM     19  C   UNL     1      50.104   7.190  18.371  0.00  0.00    +0.000 A 
ATOM     20  C   UNL     1      50.726   6.274  17.535  0.00  0.00    +0.000 A 
ATOM     21  N   UNL     1      50.122   5.179  17.028  0.00  0.00    +0.000 NA
BRANCH  18  22
ATOM     22  C   UNL     1      48.025   7.930  19.589  0.00  0.00    +0.000 A 
ATOM     23  C   UNL     1      47.426   9.101  19.149  0.00  0.00    +0.000 A 
ATOM     24  N   UNL     1      46.768   9.985  19.936  0.00  0.00    +0.000 NA
ATOM     25  C   UNL     1      46.702   9.662  21.233  0.00  0.00    +0.000 A 
ATOM     26  N   UNL     1      47.218   8.562  21.792  0.00  0.00    +0.000 NA
ATOM     27  C   UNL     1      47.870   7.724  20.951  0.00  0.00    +0.000 A 
ENDBRANCH  18  22
ENDBRANCH   1  16
TORSDOF 4
ENDMDL
MODEL 9
REMARK VINA RESULT:    -6.307      1.935      2.938
REMARK INTER + INTRA:          -7.903
REMARK INTER:                  -7.830
REMARK INTRA:                  -0.073
REMARK UNBOUND:                -0.121
REMARK  Name = 
REMARK  4 active torsions:
REMARK  status: ('A' for Active; 'I' for Inactive)
REMARK    1  A    between atoms: C_2  and  C_5
REMARK    2  A    between atoms: N_9  and  C_10
REMARK    3  A    between atoms: C_10  and  C_11
REMARK    4  A    between atoms: C_13  and  C_14
REMARK                            x       y       z     vdW  Elec       q    Type
REMARK                         _______ _______ _______ _____ _____    ______ ____
ROOT
ATOM      1  C   UNL     1      45.435   8.208  12.181  0.00  0.00    +0.000 C 
ATOM      2  C   UNL     1      44.827   9.556  12.544  0.00  0.00    +0.000 C 
ATOM      3  C   UNL     1      45.470   9.378  11.208  0.00  0.00    +0.000 C 
ENDROOT
BRANCH   1   8
ATOM      4  C   UNL     1      44.883   3.918   9.473  0.00  0.00    +0.000 A 
ATOM      5  C   UNL     1      45.698   5.020   9.391  0.00  0.00    +0.000 A 
ATOM      6  N   UNL     1      45.591   6.091  10.206  0.00  0.00    +0.000 NA
ATOM      7  C   UNL     1      44.636   6.058  11.148  0.00  0.00    +0.000 A 
ATOM      8  N   UNL     1      44.466   7.117  12.031  0.00  0.00    +0.000 N 
ATOM      9  N   UNL     1      43.790   5.027  11.298  0.00  0.00    +0.000 NA
ATOM     10  C   UNL     1      43.921   3.986  10.451  0.00  0.00    +0.000 A 
ATOM     11  H   UNL     1      43.932   6.809  12.833  0.00  0.00    +0.000 HD
BRANCH   4  13
ATOM     12  F   UNL     1      46.178   2.048   8.778  0.00  0.00    +0.000 F 
ATOM     13  C   UNL     1      45.021   2.740   8.584  0.00  0.00    +0.000 C 
ATOM     14  F   UNL     1      45.003   3.072   7.264  0.00  0.00    +0.000 F 
ATOM     15  F   UNL     1      44.016   1.837   8.753  0.00  0.00    +0.000 F 
ENDBRANCH   4  13
ENDBRANCH   1   8
BRANCH   1  16
ATOM     16  C   UNL     1      46.793   7.829  12.792  0.00  0.00    +0.000 A 
ATOM     17  C   UNL     1      46.838   6.967  13.894  0.00  0.00    +0.000 A 
ATOM     18  C   UNL     1      48.046   6.442  14.372  0.00  0.00    +0.000 A 
ATOM     19  C   UNL     1      49.207   6.854  13.713  0.00  0.00    +0.000 A 
ATOM     20  C   UNL     1      49.104   7.752  12.660  0.00  0.00    +0.000 A 
ATOM     21  N   UNL     1      47.937   8.243  12.195  0.00  0.00    +0.000 NA
BRANCH  18  22
ATOM     22  C   UNL     1      48.067   5.481  15.493  0.00  0.00    +0.000 A 
ATOM     23  C   UNL     1      47.265   4.350  15.542  0.00  0.00    +0.000 A 
ATOM     24  N   UNL     1      47.235   3.458  16.561  0.00  0.00    +0.000 NA
ATOM     25  C   UNL     1      48.067   3.718  17.576  0.00  0.00    +0.000 A 
ATOM     26  N   UNL     1      48.905   4.757  17.656  0.00  0.00    +0.000 NA
ATOM     27  C   UNL     1      48.879   5.615  16.608  0.00  0.00    +0.000 A 
ENDBRANCH  18  22
ENDBRANCH   1  16
TORSDOF 4
ENDMDL
