MODEL 1
REMARK VINA RESULT:    -7.654      0.000      0.000
REMARK INTER + INTRA:         -10.004
REMARK INTER:                  -9.444
REMARK INTRA:                  -0.560
REMARK UNBOUND:                -0.560
REMARK  Name = 
REMARK  6 active torsions:
REMARK  status: ('A' for Active; 'I' for Inactive)
REMARK    1  A    between atoms: C_1  and  C_2
REMARK    2  A    between atoms: C_5  and  C_6
REMARK    3  A    between atoms: C_6  and  O_7
REMARK    4  A    between atoms: O_7  and  C_8
REMARK    5  A    between atoms: C_11  and  C_12
REMARK    6  A    between atoms: C_17  and  C_18
REMARK                            x       y       z     vdW  Elec       q    Type
REMARK                         _______ _______ _______ _____ _____    ______ ____
ROOT
ATOM      1  C   UNL     1      44.549   3.920   9.026  0.00  0.00    +0.000 A 
ATOM      2  C   UNL     1      44.643   2.541   9.195  0.00  0.00    +0.000 A 
ATOM      3  N   UNL     1      45.573   1.778   8.562  0.00  0.00    +0.000 NA
ATOM      4  C   UNL     1      46.412   2.477   7.743  0.00  0.00    +0.000 A 
ATOM      5  C   UNL     1      46.323   3.851   7.578  0.00  0.00    +0.000 A 
ATOM      6  N   UNL     1      45.392   4.602   8.217  0.00  0.00    +0.000 NA
ENDROOT
BRANCH   4   7
ATOM      7  C   UNL     1      47.453   1.722   6.994  0.00  0.00    +0.000 C 
ATOM      8  N   UNL     1      48.480   2.464   6.479  0.00  0.00    +0.000 N 
ATOM      9  O   UNL     1      47.399   0.507   6.850  0.00  0.00    +0.000 OA
ATOM     10  H   UNL     1      48.507   3.467   6.618  0.00  0.00    +0.000 HD
ATOM     11  H   UNL     1      49.219   1.998   5.971  0.00  0.00    +0.000 HD
ENDBRANCH   4   7
BRANCH   1  12
ATOM     12  O   UNL     1      43.555   4.590   9.704  0.00  0.00    +0.000 OA
BRANCH  12  13
ATOM     13  C   UNL     1      43.639   4.398  11.122  0.00  0.00    +0.000 C 
BRANCH  13  18
ATOM     14  C   UNL     1      47.404   8.084  13.666  0.00  0.00    +0.000 C 
ATOM     15  C   UNL     1      46.440   7.146  13.005  0.00  0.00    +0.000 A 
ATOM     16  C   UNL     1      45.400   7.626  12.209  0.00  0.00    +0.000 A 
ATOM     17  C   UNL     1      44.504   6.740  11.606  0.00  0.00    +0.000 A 
ATOM     18  C   UNL     1      44.622   5.351  11.783  0.00  0.00    +0.000 A 
ATOM     19  C   UNL     1      45.681   4.857  12.578  0.00  0.00    +0.000 A 
ATOM     20  C   UNL     1      45.915   3.391  12.831  0.00  0.00    +0.000 C 
ATOM     21  C   UNL     1      46.573   5.765  13.181  0.00  0.00    +0.000 A 
ENDBRANCH  13  18
ENDBRANCH  12  13
ENDBRANCH   1  12
TORSDOF 4
ENDMDL
MODEL 2
REMARK VINA RESULT:    -7.361      0.713      1.705
REMARK INTER + INTRA:          -9.642
REMARK INTER:                  -9.390
REMARK INTRA:                  -0.252
REMARK UNBOUND:                -0.560
REMARK  Name = 
REMARK  6 active torsions:
REMARK  status: ('A' for Active; 'I' for Inactive)
REMARK    1  A    between atoms: C_1  and  C_2
REMARK    2  A    between atoms: C_5  and  C_6
REMARK    3  A    between atoms: C_6  and  O_7
REMARK    4  A    between atoms: O_7  and  C_8
REMARK    5  A    between atoms: C_11  and  C_12
REMARK    6  A    between atoms: C_17  and  C_18
REMARK                            x       y       z     vdW  Elec       q    Type
REMARK                         _______ _______ _______ _____ _____    ______ ____
ROOT
ATOM      1  C   UNL     1      44.656   3.916   9.119  0.00  0.00    +0.000 A 
ATOM      2  C   UNL     1      44.705   2.528   9.220  0.00  0.00    +0.000 A 
ATOM      3  N   UNL     1      45.595   1.764   8.531  0.00  0.00    +0.000 NA
ATOM      4  C   UNL     1      46.441   2.473   7.728  0.00  0.00    +0.000 A 
ATOM      5  C   UNL     1      46.397   3.856   7.631  0.00  0.00    +0.000 A 
ATOM      6  N   UNL     1      45.506   4.607   8.324  0.00  0.00    +0.000 NA
ENDROOT
BRANCH   4   7
ATOM      7  C   UNL     1      47.440   1.720   6.922  0.00  0.00    +0.000 C 
ATOM      8  N   UNL     1      48.509   2.440   6.465  0.00  0.00    +0.000 N 
ATOM      9  O   UNL     1      47.317   0.525   6.684  0.00  0.00    +0.000 OA
ATOM     10  H   UNL     1      48.593   3.427   6.681  0.00  0.00    +0.000 HD
ATOM     11  H   UNL     1      49.222   1.974   5.921  0.00  0.00    +0.000 HD
ENDBRANCH   4   7
BRANCH   1  12
ATOM     12  O   UNL     1      43.699   4.585   9.848  0.00  0.00    +0.000 OA
BRANCH  12  13
ATOM     13  C   UNL     1      43.655   4.152  11.214  0.00  0.00    +0.000 C 
BRANCH  13  18
ATOM     14  C   UNL     1      48.111   6.238  14.380  0.00  0.00    +0.000 C 
ATOM     15  C   UNL     1      46.968   5.697  13.577  0.00  0.00    +0.000 A 
ATOM     16  C   UNL     1      46.750   4.323  13.472  0.00  0.00    +0.000 A 
ATOM     17  C   UNL     1      45.685   3.832  12.714  0.00  0.00    +0.000 A 
ATOM     18  C   UNL     1      44.809   4.700  12.038  0.00  0.00    +0.000 A 
ATOM     19  C   UNL     1      45.018   6.093  12.150  0.00  0.00    +0.000 A 
ATOM     20  C   UNL     1      44.142   7.120  11.481  0.00  0.00    +0.000 C 
ATOM     21  C   UNL     1      46.098   6.570  12.917  0.00  0.00    +0.000 A 
ENDBRANCH  13  18
ENDBRANCH  12  13
ENDBRANCH   1  12
TORSDOF 4
ENDMDL
MODEL 3
REMARK VINA RESULT:    -7.121      3.349      6.157
REMARK INTER + INTRA:          -9.346
REMARK INTER:                  -8.879
REMARK INTRA:                  -0.467
REMARK UNBOUND:                -0.560
REMARK  Name = 
REMARK  6 active torsions:
REMARK  status: ('A' for Active; 'I' for Inactive)
REMARK    1  A    between atoms: C_1  and  C_2
REMARK    2  A    between atoms: C_5  and  C_6
REMARK    3  A    between atoms: C_6  and  O_7
REMARK    4  A    between atoms: O_7  and  C_8
REMARK    5  A    between atoms: C_11  and  C_12
REMARK    6  A    between atoms: C_17  and  C_18
REMARK                            x       y       z     vdW  Elec       q    Type
REMARK                         _______ _______ _______ _____ _____    ______ ____
ROOT
ATOM      1  C   UNL     1      45.637   5.675  12.044  0.00  0.00    +0.000 A 
ATOM      2  C   UNL     1      44.919   4.826  12.882  0.00  0.00    +0.000 A 
ATOM      3  N   UNL     1      45.430   4.314  14.034  0.00  0.00    +0.000 NA
ATOM      4  C   UNL     1      46.710   4.704  14.304  0.00  0.00    +0.000 A 
ATOM      5  C   UNL     1      47.424   5.556  13.473  0.00  0.00    +0.000 A 
ATOM      6  N   UNL     1      46.903   6.060  12.327  0.00  0.00    +0.000 NA
ENDROOT
BRANCH   4   7
ATOM      7  C   UNL     1      47.358   4.181  15.536  0.00  0.00    +0.000 C 
ATOM      8  N   UNL     1      47.262   4.971  16.649  0.00  0.00    +0.000 N 
ATOM      9  O   UNL     1      47.941   3.104  15.559  0.00  0.00    +0.000 OA
ATOM     10  H   UNL     1      46.768   5.855  16.608  0.00  0.00    +0.000 HD
ATOM     11  H   UNL     1      47.675   4.657  17.515  0.00  0.00    +0.000 HD
ENDBRANCH   4   7
BRANCH   1  12
ATOM     12  O   UNL     1      45.026   6.117  10.892  0.00  0.00    +0.000 OA
BRANCH  12  13
ATOM     13  C   UNL     1      44.183   5.116  10.306  0.00  0.00    +0.000 C 
BRANCH  13  18
ATOM     14  C   UNL     1      47.155   1.454   6.843  0.00  0.00    +0.000 C 
ATOM     15  C   UNL     1      46.392   2.398   7.722  0.00  0.00    +0.000 A 
ATOM     16  C   UNL     1      46.508   3.780   7.565  0.00  0.00    +0.000 A 
ATOM     17  C   UNL     1      45.796   4.647   8.396  0.00  0.00    +0.000 A 
ATOM     18  C   UNL     1      44.950   4.160   9.407  0.00  0.00    +0.000 A 
ATOM     19  C   UNL     1      44.819   2.761   9.563  0.00  0.00    +0.000 A 
ATOM     20  C   UNL     1      43.937   2.122  10.603  0.00  0.00    +0.000 C 
ATOM     21  C   UNL     1      45.546   1.901   8.718  0.00  0.00    +0.000 A 
ENDBRANCH  13  18
ENDBRANCH  12  13
ENDBRANCH   1  12
TORSDOF 4
ENDMDL
MODEL 4
REMARK VINA RESULT:    -6.682      3.169      6.338
REMARK INTER + INTRA:          -8.805
REMARK INTER:                  -8.327
REMARK INTRA:                  -0.478
REMARK UNBOUND:                -0.560
REMARK  Name = 
REMARK  6 active torsions:
REMARK  status: ('A' for Active; 'I' for Inactive)
REMARK    1  A    between atoms: C_1  and  C_2
REMARK    2  A    between atoms: C_5  and  C_6
REMARK    3  A    between atoms: C_6  and  O_7
REMARK    4  A    between atoms: O_7  and  C_8
REMARK    5  A    between atoms: C_11  and  C_12
REMARK    6  A    between atoms: C_17  and  C_18
REMARK                            x       y       z     vdW  Elec       q    Type
REMARK                         _______ _______ _______ _____ _____    ______ ____
ROOT
ATOM      1  C   UNL     1      45.402   3.909  12.484  0.00  0.00    +0.000 A 
ATOM      2  C   UNL     1      46.522   3.449  13.172  0.00  0.00    +0.000 A 
ATOM      3  N   UNL     1      47.402   4.278  13.795  0.00  0.00    +0.000 NA
ATOM      4  C   UNL     1      47.096   5.604  13.691  0.00  0.00    +0.000 A 
ATOM      5  C   UNL     1      45.977   6.063  13.011  0.00  0.00    +0.000 A 
ATOM      6  N   UNL     1      45.106   5.226  12.395  0.00  0.00    +0.000 NA
ENDROOT
BRANCH   4   7
ATOM      7  C   UNL     1      48.012   6.588  14.328  0.00  0.00    +0.000 C 
ATOM      8  N   UNL     1      47.528   7.860  14.464  0.00  0.00    +0.000 N 
ATOM      9  O   UNL     1      49.132   6.280  14.715  0.00  0.00    +0.000 OA
ATOM     10  H   UNL     1      46.595   8.090  14.143  0.00  0.00    +0.000 HD
ATOM     11  H   UNL     1      48.106   8.564  14.900  0.00  0.00    +0.000 HD
ENDBRANCH   4   7
BRANCH   1  12
ATOM     12  O   UNL     1      44.590   2.979  11.873  0.00  0.00    +0.000 OA
BRANCH  12  13
ATOM     13  C   UNL     1      44.093   3.438  10.610  0.00  0.00    +0.000 C 
BRANCH  13  18
ATOM     14  C   UNL     1      47.621   2.038   6.157  0.00  0.00    +0.000 C 
ATOM     15  C   UNL     1      46.721   2.388   7.303  0.00  0.00    +0.000 A 
ATOM     16  C   UNL     1      46.020   1.400   7.995  0.00  0.00    +0.000 A 
ATOM     17  C   UNL     1      45.179   1.742   9.056  0.00  0.00    +0.000 A 
ATOM     18  C   UNL     1      45.014   3.080   9.454  0.00  0.00    +0.000 A 
ATOM     19  C   UNL     1      45.731   4.084   8.765  0.00  0.00    +0.000 A 
ATOM     20  C   UNL     1      45.643   5.549   9.107  0.00  0.00    +0.000 C 
ATOM     21  C   UNL     1      46.572   3.722   7.696  0.00  0.00    +0.000 A 
ENDBRANCH  13  18
ENDBRANCH  12  13
ENDBRANCH   1  12
TORSDOF 4
ENDMDL
MODEL 5
REMARK VINA RESULT:    -6.269      3.501      5.989
REMARK INTER + INTRA:          -8.296
REMARK INTER:                  -7.970
REMARK INTRA:                  -0.326
REMARK UNBOUND:                -0.560
REMARK  Name = 
REMARK  6 active torsions:
REMARK  status: ('A' for Active; 'I' for Inactive)
REMARK    1  A    between atoms: C_1  and  C_2
REMARK    2  A    between atoms: C_5  and  C_6
REMARK    3  A    between atoms: C_6  and  O_7
REMARK    4  A    between atoms: O_7  and  C_8
REMARK    5  A    between atoms: C_11  and  C_12
REMARK    6  A    between atoms: C_17  and  C_18
REMARK                            x       y       z     vdW  Elec       q    Type
REMARK                         _______ _______ _______ _____ _____    ______ ____
ROOT
ATOM      1  C   UNL     1      45.363   5.616  13.104  0.00  0.00    +0.000 A 
ATOM      2  C   UNL     1      46.258   4.747  13.722  0.00  0.00    +0.000 A 
ATOM      3  N   UNL     1      47.533   5.097  14.039  0.00  0.00    +0.000 NA
ATOM      4  C   UNL     1      47.866   6.377  13.700  0.00  0.00    +0.000 A 
ATOM      5  C   UNL     1      46.972   7.246  13.090  0.00  0.00    +0.000 A 
ATOM      6  N   UNL     1      45.703   6.885  12.780  0.00  0.00    +0.000 NA
ENDROOT
BRANCH   4   7
ATOM      7  C   UNL     1      49.247   6.845  13.994  0.00  0.00    +0.000 C 
ATOM      8  N   UNL     1      49.920   7.423  12.952  0.00  0.00    +0.000 N 
ATOM      9  O   UNL     1      49.753   6.726  15.102  0.00  0.00    +0.000 OA
ATOM     10  H   UNL     1      49.477   7.517  12.046  0.00  0.00    +0.000 HD
ATOM     11  H   UNL     1      50.858   7.768  13.101  0.00  0.00    +0.000 HD
ENDBRANCH   4   7
BRANCH   1  12
ATOM     12  O   UNL     1      44.101   5.146  12.811  0.00  0.00    +0.000 OA
BRANCH  12  13
ATOM     13  C   UNL     1      43.710   5.442  11.464  0.00  0.00    +0.000 C 
BRANCH  13  18
ATOM     14  C   UNL     1      46.363   2.000   7.545  0.00  0.00    +0.000 C 
ATOM     15  C   UNL     1      45.681   2.889   8.542  0.00  0.00    +0.000 A 
ATOM     16  C   UNL     1      45.839   4.274   8.497  0.00  0.00    +0.000 A 
ATOM     17  C   UNL     1      45.204   5.089   9.436  0.00  0.00    +0.000 A 
ATOM     18  C   UNL     1      44.394   4.543  10.446  0.00  0.00    +0.000 A 
ATOM     19  C   UNL     1      44.219   3.141  10.490  0.00  0.00    +0.000 A 
ATOM     20  C   UNL     1      43.369   2.443  11.518  0.00  0.00    +0.000 C 
ATOM     21  C   UNL     1      44.870   2.334   9.537  0.00  0.00    +0.000 A 
ENDBRANCH  13  18
ENDBRANCH  12  13
ENDBRANCH   1  12
TORSDOF 4
ENDMDL
MODEL 6
REMARK VINA RESULT:    -6.218      4.684      6.747
REMARK INTER + INTRA:          -8.233
REMARK INTER:                  -7.871
REMARK INTRA:                  -0.362
REMARK UNBOUND:                -0.560
REMARK  Name = 
REMARK  6 active torsions:
REMARK  status: ('A' for Active; 'I' for Inactive)
REMARK    1  A    between atoms: C_1  and  C_2
REMARK    2  A    between atoms: C_5  and  C_6
REMARK    3  A    between atoms: C_6  and  O_7
REMARK    4  A    between atoms: O_7  and  C_8
REMARK    5  A    between atoms: C_11  and  C_12
REMARK    6  A    between atoms: C_17  and  C_18
REMARK                            x       y       z     vdW  Elec       q    Type
REMARK                         _______ _______ _______ _____ _____    ______ ____
ROOT
ATOM      1  C   UNL     1      46.495   3.840  13.699  0.00  0.00    +0.000 A 
ATOM      2  C   UNL     1      46.401   5.225  13.811  0.00  0.00    +0.000 A 
ATOM      3  N   UNL     1      45.520   5.969  13.090  0.00  0.00    +0.000 NA
ATOM      4  C   UNL     1      44.733   5.245  12.243  0.00  0.00    +0.000 A 
ATOM      5  C   UNL     1      44.822   3.865  12.135  0.00  0.00    +0.000 A 
ATOM      6  N   UNL     1      45.703   3.133  12.861  0.00  0.00    +0.000 NA
ENDROOT
BRANCH   4   7
ATOM      7  C   UNL     1      43.750   5.977  11.399  0.00  0.00    +0.000 C 
ATOM      8  N   UNL     1      43.930   7.329  11.302  0.00  0.00    +0.000 N 
ATOM      9  O   UNL     1      42.835   5.405  10.820  0.00  0.00    +0.000 OA
ATOM     10  H   UNL     1      44.699   7.779  11.785  0.00  0.00    +0.000 HD
ATOM     11  H   UNL     1      43.297   7.872  10.733  0.00  0.00    +0.000 HD
ENDBRANCH   4   7
BRANCH   1  12
ATOM     12  O   UNL     1      47.438   3.191  14.465  0.00  0.00    +0.000 OA
BRANCH  12  13
ATOM     13  C   UNL     1      47.381   3.581  15.844  0.00  0.00    +0.000 C 
BRANCH  13  18
ATOM     14  C   UNL     1      52.580   3.164  18.495  0.00  0.00    +0.000 C 
ATOM     15  C   UNL     1      51.244   3.262  17.821  0.00  0.00    +0.000 A 
ATOM     16  C   UNL     1      50.605   2.126  17.324  0.00  0.00    +0.000 A 
ATOM     17  C   UNL     1      49.364   2.234  16.691  0.00  0.00    +0.000 A 
ATOM     18  C   UNL     1      48.730   3.479  16.537  0.00  0.00    +0.000 A 
ATOM     19  C   UNL     1      49.367   4.631  17.048  0.00  0.00    +0.000 A 
ATOM     20  C   UNL     1      48.781   6.015  16.951  0.00  0.00    +0.000 C 
ATOM     21  C   UNL     1      50.619   4.505  17.681  0.00  0.00    +0.000 A 
ENDBRANCH  13  18
ENDBRANCH  12  13
ENDBRANCH   1  12
TORSDOF 4
ENDMDL
MODEL 7
REMARK VINA RESULT:    -5.986      4.761      7.061
REMARK INTER + INTRA:          -7.946
REMARK INTER:                  -7.555
REMARK INTRA:                  -0.391
REMARK UNBOUND:                -0.560
REMARK  Name = 
REMARK  6 active torsions:
REMARK  status: ('A' for Active; 'I' for Inactive)
REMARK    1  A    between atoms: C_1  and  C_2
REMARK    2  A    between atoms: C_5  and  C_6
REMARK    3  A    between atoms: C_6  and  O_7
REMARK    4  A    between atoms: O_7  and  C_8
REMARK    5  A    between atoms: C_11  and  C_12
REMARK    6  A    between atoms: C_17  and  C_18
REMARK                            x       y       z     vdW  Elec       q    Type
REMARK                         _______ _______ _______ _____ _____    ______ ____
ROOT
ATOM      1  C   UNL     1      47.025   5.534  14.251  0.00  0.00    +0.000 A 
ATOM      2  C   UNL     1      48.093   6.184  14.864  0.00  0.00    +0.000 A 
ATOM      3  N   UNL     1      48.745   5.681  15.947  0.00  0.00    +0.000 NA
ATOM      4  C   UNL     1      48.265   4.482  16.386  0.00  0.00    +0.000 A 
ATOM      5  C   UNL     1      47.204   3.831  15.773  0.00  0.00    +0.000 A 
ATOM      6  N   UNL     1      46.563   4.341  14.693  0.00  0.00    +0.000 NA
ENDROOT
BRANCH   4   7
ATOM      7  C   UNL     1      48.906   3.863  17.577  0.00  0.00    +0.000 C 
ATOM      8  N   UNL     1      48.067   3.528  18.605  0.00  0.00    +0.000 N 
ATOM      9  O   UNL     1      50.112   3.659  17.636  0.00  0.00    +0.000 OA
ATOM     10  H   UNL     1      47.072   3.700  18.530  0.00  0.00    +0.000 HD
ATOM     11  H   UNL     1      48.450   3.094  19.433  0.00  0.00    +0.000 HD
ENDBRANCH   4   7
BRANCH   1  12
ATOM     12  O   UNL     1      46.427   6.146  13.172  0.00  0.00    +0.000 OA
BRANCH  12  13
ATOM     13  C   UNL     1      45.171   5.544  12.834  0.00  0.00    +0.000 C 
BRANCH  13  18
ATOM     14  C   UNL     1      45.177   3.272   7.442  0.00  0.00    +0.000 C 
ATOM     15  C   UNL     1      45.174   3.864   8.819  0.00  0.00    +0.000 A 
ATOM     16  C   UNL     1      45.861   5.046   9.095  0.00  0.00    +0.000 A 
ATOM     17  C   UNL     1      45.856   5.582  10.385  0.00  0.00    +0.000 A 
ATOM     18  C   UNL     1      45.166   4.951  11.434  0.00  0.00    +0.000 A 
ATOM     19  C   UNL     1      44.458   3.759  11.158  0.00  0.00    +0.000 A 
ATOM     20  C   UNL     1      43.675   3.000  12.197  0.00  0.00    +0.000 C 
ATOM     21  C   UNL     1      44.476   3.232   9.853  0.00  0.00    +0.000 A 
ENDBRANCH  13  18
ENDBRANCH  12  13
ENDBRANCH   1  12
TORSDOF 4
ENDMDL
MODEL 8
REMARK VINA RESULT:    -5.920      5.618      7.966
REMARK INTER + INTRA:          -7.865
REMARK INTER:                  -7.562
REMARK INTRA:                  -0.304
REMARK UNBOUND:                -0.560
REMARK  Name = 
REMARK  6 active torsions:
REMARK  status: ('A' for Active; 'I' for Inactive)
REMARK    1  A    between atoms: C_1  and  C_2
REMARK    2  A    between atoms: C_5  and  C_6
REMARK    3  A    between atoms: C_6  and  O_7
REMARK    4  A    between atoms: O_7  and  C_8
REMARK    5  A    between atoms: C_11  and  C_12
REMARK    6  A    between atoms: C_17  and  C_18
REMARK                            x       y       z     vdW  Elec       q    Type
REMARK                         _______ _______ _______ _____ _____    ______ ____
ROOT
ATOM      1  C   UNL     1      47.344   4.236  15.558  0.00  0.00    +0.000 A 
ATOM      2  C   UNL     1      47.209   3.477  16.717  0.00  0.00    +0.000 A 
ATOM      3  N   UNL     1      47.834   3.787  17.884  0.00  0.00    +0.000 NA
ATOM      4  C   UNL     1      48.608   4.910  17.827  0.00  0.00    +0.000 A 
ATOM      5  C   UNL     1      48.739   5.670  16.674  0.00  0.00    +0.000 A 
ATOM      6  N   UNL     1      48.109   5.352  15.516  0.00  0.00    +0.000 NA
ENDROOT
BRANCH   4   7
ATOM      7  C   UNL     1      49.345   5.318  19.053  0.00  0.00    +0.000 C 
ATOM      8  N   UNL     1      49.386   4.397  20.064  0.00  0.00    +0.000 N 
ATOM      9  O   UNL     1      49.888   6.411  19.153  0.00  0.00    +0.000 OA
ATOM     10  H   UNL     1      48.936   3.496  19.955  0.00  0.00    +0.000 HD
ATOM     11  H   UNL     1      49.884   4.621  20.915  0.00  0.00    +0.000 HD
ENDBRANCH   4   7
BRANCH   1  12
ATOM     12  O   UNL     1      46.679   3.816  14.427  0.00  0.00    +0.000 OA
BRANCH  12  13
ATOM     13  C   UNL     1      45.890   4.859  13.841  0.00  0.00    +0.000 C 
BRANCH  13  18
ATOM     14  C   UNL     1      44.733   3.893   8.188  0.00  0.00    +0.000 C 
ATOM     15  C   UNL     1      45.033   4.131   9.637  0.00  0.00    +0.000 A 
ATOM     16  C   UNL     1      44.776   3.150  10.595  0.00  0.00    +0.000 A 
ATOM     17  C   UNL     1      45.054   3.388  11.942  0.00  0.00    +0.000 A 
ATOM     18  C   UNL     1      45.595   4.613  12.370  0.00  0.00    +0.000 A 
ATOM     19  C   UNL     1      45.868   5.607  11.403  0.00  0.00    +0.000 A 
ATOM     20  C   UNL     1      46.455   6.952  11.740  0.00  0.00    +0.000 C 
ATOM     21  C   UNL     1      45.579   5.350  10.050  0.00  0.00    +0.000 A 
ENDBRANCH  13  18
ENDBRANCH  12  13
ENDBRANCH   1  12
TORSDOF 4
ENDMDL
MODEL 9
REMARK VINA RESULT:    -5.697      4.715      6.201
REMARK INTER + INTRA:          -7.590
REMARK INTER:                  -7.275
REMARK INTRA:                  -0.314
REMARK UNBOUND:                -0.560
REMARK  Name = 
REMARK  6 active torsions:
REMARK  status: ('A' for Active; 'I' for Inactive)
REMARK    1  A    between atoms: C_1  and  C_2
REMARK    2  A    between atoms: C_5  and  C_6
REMARK    3  A    between atoms: C_6  and  O_7
REMARK    4  A    between atoms: O_7  and  C_8
REMARK    5  A    between atoms: C_11  and  C_12
REMARK    6  A    between atoms: C_17  and  C_18
REMARK                            x       y       z     vdW  Elec       q    Type
REMARK                         _______ _______ _______ _____ _____    ______ ____
ROOT
ATOM      1  C   UNL     1      46.776   4.670  13.831  0.00  0.00    +0.000 A 
ATOM      2  C   UNL     1      46.603   5.753  12.973  0.00  0.00    +0.000 A 
ATOM      3  N   UNL     1      45.867   5.686  11.831  0.00  0.00    +0.000 NA
ATOM      4  C   UNL     1      45.308   4.463  11.593  0.00  0.00    +0.000 A 
ATOM      5  C   UNL     1      45.475   3.385  12.450  0.00  0.00    +0.000 A 
ATOM      6  N   UNL     1      46.210   3.465  13.587  0.00  0.00    +0.000 NA
ENDROOT
BRANCH   4   7
ATOM      7  C   UNL     1      44.499   4.289  10.358  0.00  0.00    +0.000 C 
ATOM      8  N   UNL     1      44.937   4.965   9.252  0.00  0.00    +0.000 N 
ATOM      9  O   UNL     1      43.501   3.580  10.327  0.00  0.00    +0.000 OA
ATOM     10  H   UNL     1      45.770   5.540   9.300  0.00  0.00    +0.000 HD
ATOM     11  H   UNL     1      44.430   4.872   8.383  0.00  0.00    +0.000 HD
ENDBRANCH   4   7
BRANCH   1  12
ATOM     12  O   UNL     1      47.560   4.848  14.949  0.00  0.00    +0.000 OA
BRANCH  12  13
ATOM     13  C   UNL     1      47.359   3.816  15.923  0.00  0.00    +0.000 C 
BRANCH  13  18
ATOM     14  C   UNL     1      49.276   5.332  21.239  0.00  0.00    +0.000 C 
ATOM     15  C   UNL     1      48.783   4.954  19.875  0.00  0.00    +0.000 A 
ATOM     16  C   UNL     1      47.667   5.576  19.316  0.00  0.00    +0.000 A 
ATOM     17  C   UNL     1      47.214   5.207  18.047  0.00  0.00    +0.000 A 
ATOM     18  C   UNL     1      47.864   4.208  17.303  0.00  0.00    +0.000 A 
ATOM     19  C   UNL     1      49.003   3.583  17.859  0.00  0.00    +0.000 A 
ATOM     20  C   UNL     1      49.786   2.507  17.153  0.00  0.00    +0.000 C 
ATOM     21  C   UNL     1      49.443   3.964  19.140  0.00  0.00    +0.000 A 
ENDBRANCH  13  18
ENDBRANCH  12  13
ENDBRANCH   1  12
TORSDOF 4
ENDMDL
