MODEL 1
REMARK VINA RESULT:    -8.104      0.000      0.000
REMARK INTER + INTRA:         -11.085
REMARK INTER:                 -10.472
REMARK INTRA:                  -0.612
REMARK UNBOUND:                -0.612
REMARK  Name = 
REMARK  5 active torsions:
REMARK  status: ('A' for Active; 'I' for Inactive)
REMARK    1  A    between atoms: C_2  and  C_18
REMARK    2  A    between atoms: N_3  and  C_4
REMARK    3  A    between atoms: C_4  and  C_5
REMARK    4  A    between atoms: C_8  and  C_9
REMARK    5  A    between atoms: C_9  and  C_10
REMARK                            x       y       z     vdW  Elec       q    Type
REMARK                         _______ _______ _______ _____ _____    ______ ____
ROOT
ATOM      1  O   UNL     1      47.246   3.291  14.052  0.00  0.00    +0.000 OA
ATOM      2  C   UNL     1      46.956   4.450  14.317  0.00  0.00    +0.000 C 
ATOM      3  N   UNL     1      45.738   5.038  14.038  0.00  0.00    +0.000 N 
ATOM      4  H   UNL     1      45.522   5.927  14.469  0.00  0.00    +0.000 HD
ENDROOT
BRANCH   2   5
ATOM      5  C   UNL     1      47.776   5.317  15.160  0.00  0.00    +0.000 A 
ATOM      6  C   UNL     1      48.364   6.478  14.688  0.00  0.00    +0.000 A 
ATOM      7  S   UNL     1      49.659   6.986  15.693  0.00  0.00    +0.000 S 
ATOM      8  C   UNL     1      49.361   5.733  16.812  0.00  0.00    +0.000 A 
ATOM      9  N   UNL     1      50.191   5.469  17.856  0.00  0.00    +0.000 NA
ATOM     10  C   UNL     1      49.787   4.510  18.623  0.00  0.00    +0.000 A 
ATOM     11  N   UNL     1      48.604   3.826  18.476  0.00  0.00    +0.000 N 
ATOM     12  C   UNL     1      47.719   4.079  17.454  0.00  0.00    +0.000 A 
ATOM     13  O   UNL     1      46.621   3.540  17.396  0.00  0.00    +0.000 OA
ATOM     14  C   UNL     1      48.209   5.046  16.498  0.00  0.00    +0.000 A 
ATOM     15  H   UNL     1      48.303   3.152  19.163  0.00  0.00    +0.000 HD
ENDBRANCH   2   5
BRANCH   3  16
ATOM     16  C   UNL     1      44.612   4.281  13.574  0.00  0.00    +0.000 C 
BRANCH  16  17
ATOM     17  C   UNL     1      44.621   4.189  12.070  0.00  0.00    +0.000 A 
ATOM     18  C   UNL     1      45.268   5.166  11.302  0.00  0.00    +0.000 A 
ATOM     19  C   UNL     1      45.309   5.064   9.908  0.00  0.00    +0.000 A 
ATOM     20  C   UNL     1      44.683   3.997   9.249  0.00  0.00    +0.000 A 
ATOM     21  C   UNL     1      43.995   3.046  10.014  0.00  0.00    +0.000 A 
ATOM     22  C   UNL     1      43.957   3.146  11.409  0.00  0.00    +0.000 A 
BRANCH  20  23
ATOM     23  C   UNL     1      44.754   3.870   7.744  0.00  0.00    +0.000 C 
BRANCH  23  24
ATOM     24  C   UNL     1      45.959   3.119   7.224  0.00  0.00    +0.000 A 
ATOM     25  N   UNL     1      46.327   1.990   7.869  0.00  0.00    +0.000 NA
ATOM     26  C   UNL     1      47.360   1.306   7.338  0.00  0.00    +0.000 A 
ATOM     27  C   UNL     1      48.031   1.691   6.201  0.00  0.00    +0.000 A 
ATOM     28  C   UNL     1      47.581   2.855   5.621  0.00  0.00    +0.000 A 
ATOM     29  N   UNL     1      46.554   3.581   6.104  0.00  0.00    +0.000 NA
ENDBRANCH  23  24
ENDBRANCH  20  23
ENDBRANCH  16  17
ENDBRANCH   3  16
TORSDOF 5
ENDMDL
MODEL 2
REMARK VINA RESULT:    -7.846      2.073      3.127
REMARK INTER + INTRA:         -10.752
REMARK INTER:                  -9.925
REMARK INTRA:                  -0.827
REMARK UNBOUND:                -0.612
REMARK  Name = 
REMARK  5 active torsions:
REMARK  status: ('A' for Active; 'I' for Inactive)
REMARK    1  A    between atoms: C_2  and  C_18
REMARK    2  A    between atoms: N_3  and  C_4
REMARK    3  A    between atoms: C_4  and  C_5
REMARK    4  A    between atoms: C_8  and  C_9
REMARK    5  A    between atoms: C_9  and  C_10
REMARK                            x       y       z     vdW  Elec       q    Type
REMARK                         _______ _______ _______ _____ _____    ______ ____
ROOT
ATOM      1  O   UNL     1      49.486   6.946  13.699  0.00  0.00    +0.000 OA
ATOM      2  C   UNL     1      48.697   7.300  14.566  0.00  0.00    +0.000 C 
ATOM      3  N   UNL     1      47.657   8.186  14.367  0.00  0.00    +0.000 N 
ATOM      4  H   UNL     1      46.946   8.261  15.080  0.00  0.00    +0.000 HD
ENDROOT
BRANCH   2   5
ATOM      5  C   UNL     1      48.607   6.672  15.882  0.00  0.00    +0.000 A 
ATOM      6  C   UNL     1      49.113   7.263  17.027  0.00  0.00    +0.000 A 
ATOM      7  S   UNL     1      49.349   6.116  18.281  0.00  0.00    +0.000 S 
ATOM      8  C   UNL     1      48.671   4.862  17.343  0.00  0.00    +0.000 A 
ATOM      9  N   UNL     1      48.689   3.560  17.735  0.00  0.00    +0.000 NA
ATOM     10  C   UNL     1      48.094   2.754  16.918  0.00  0.00    +0.000 A 
ATOM     11  N   UNL     1      47.437   3.133  15.772  0.00  0.00    +0.000 N 
ATOM     12  C   UNL     1      47.366   4.441  15.352  0.00  0.00    +0.000 A 
ATOM     13  O   UNL     1      46.688   4.779  14.390  0.00  0.00    +0.000 OA
ATOM     14  C   UNL     1      48.143   5.348  16.167  0.00  0.00    +0.000 A 
ATOM     15  H   UNL     1      46.913   2.466  15.227  0.00  0.00    +0.000 HD
ENDBRANCH   2   5
BRANCH   3  16
ATOM     16  C   UNL     1      47.279   8.639  13.060  0.00  0.00    +0.000 C 
BRANCH  16  17
ATOM     17  C   UNL     1      46.439   7.600  12.364  0.00  0.00    +0.000 A 
ATOM     18  C   UNL     1      45.080   7.460  12.673  0.00  0.00    +0.000 A 
ATOM     19  C   UNL     1      44.289   6.520  12.003  0.00  0.00    +0.000 A 
ATOM     20  C   UNL     1      44.846   5.683  11.026  0.00  0.00    +0.000 A 
ATOM     21  C   UNL     1      46.215   5.790  10.751  0.00  0.00    +0.000 A 
ATOM     22  C   UNL     1      47.005   6.732  11.418  0.00  0.00    +0.000 A 
BRANCH  20  23
ATOM     23  C   UNL     1      43.985   4.689  10.279  0.00  0.00    +0.000 C 
BRANCH  23  24
ATOM     24  C   UNL     1      44.730   3.811   9.299  0.00  0.00    +0.000 A 
ATOM     25  N   UNL     1      45.275   4.398   8.211  0.00  0.00    +0.000 NA
ATOM     26  C   UNL     1      45.992   3.600   7.396  0.00  0.00    +0.000 A 
ATOM     27  C   UNL     1      46.193   2.258   7.619  0.00  0.00    +0.000 A 
ATOM     28  C   UNL     1      45.595   1.757   8.752  0.00  0.00    +0.000 A 
ATOM     29  N   UNL     1      44.868   2.504   9.605  0.00  0.00    +0.000 NA
ENDBRANCH  23  24
ENDBRANCH  20  23
ENDBRANCH  16  17
ENDBRANCH   3  16
TORSDOF 5
ENDMDL
MODEL 3
REMARK VINA RESULT:    -7.672      2.124      3.216
REMARK INTER + INTRA:         -10.526
REMARK INTER:                  -9.634
REMARK INTRA:                  -0.892
REMARK UNBOUND:                -0.612
REMARK  Name = 
REMARK  5 active torsions:
REMARK  status: ('A' for Active; 'I' for Inactive)
REMARK    1  A    between atoms: C_2  and  C_18
REMARK    2  A    between atoms: N_3  and  C_4
REMARK    3  A    between atoms: C_4  and  C_5
REMARK    4  A    between atoms: C_8  and  C_9
REMARK    5  A    between atoms: C_9  and  C_10
REMARK                            x       y       z     vdW  Elec       q    Type
REMARK                         _______ _______ _______ _____ _____    ______ ____
ROOT
ATOM      1  O   UNL     1      48.299   8.109  16.910  0.00  0.00    +0.000 OA
ATOM      2  C   UNL     1      48.648   7.031  16.445  0.00  0.00    +0.000 C 
ATOM      3  N   UNL     1      48.445   6.637  15.138  0.00  0.00    +0.000 N 
ATOM      4  H   UNL     1      48.939   5.824  14.798  0.00  0.00    +0.000 HD
ENDROOT
BRANCH   2   5
ATOM      5  C   UNL     1      49.520   6.093  17.148  0.00  0.00    +0.000 A 
ATOM      6  C   UNL     1      50.713   6.479  17.735  0.00  0.00    +0.000 A 
ATOM      7  S   UNL     1      51.752   5.140  18.000  0.00  0.00    +0.000 S 
ATOM      8  C   UNL     1      50.573   4.039  17.443  0.00  0.00    +0.000 A 
ATOM      9  N   UNL     1      50.834   2.719  17.252  0.00  0.00    +0.000 NA
ATOM     10  C   UNL     1      49.811   2.028  16.865  0.00  0.00    +0.000 A 
ATOM     11  N   UNL     1      48.539   2.523  16.705  0.00  0.00    +0.000 N 
ATOM     12  C   UNL     1      48.222   3.844  16.917  0.00  0.00    +0.000 A 
ATOM     13  O   UNL     1      47.067   4.249  16.876  0.00  0.00    +0.000 OA
ATOM     14  C   UNL     1      49.371   4.671  17.210  0.00  0.00    +0.000 A 
ATOM     15  H   UNL     1      47.766   1.912  16.491  0.00  0.00    +0.000 HD
ENDBRANCH   2   5
BRANCH   3  16
ATOM     16  C   UNL     1      47.968   7.541  14.132  0.00  0.00    +0.000 C 
BRANCH  16  17
ATOM     17  C   UNL     1      46.983   6.848  13.225  0.00  0.00    +0.000 A 
ATOM     18  C   UNL     1      46.260   7.578  12.272  0.00  0.00    +0.000 A 
ATOM     19  C   UNL     1      45.373   6.933  11.404  0.00  0.00    +0.000 A 
ATOM     20  C   UNL     1      45.169   5.549  11.487  0.00  0.00    +0.000 A 
ATOM     21  C   UNL     1      45.856   4.827  12.471  0.00  0.00    +0.000 A 
ATOM     22  C   UNL     1      46.747   5.470  13.337  0.00  0.00    +0.000 A 
BRANCH  20  23
ATOM     23  C   UNL     1      44.234   4.847  10.528  0.00  0.00    +0.000 C 
BRANCH  23  24
ATOM     24  C   UNL     1      44.915   3.987   9.487  0.00  0.00    +0.000 A 
ATOM     25  N   UNL     1      45.579   4.610   8.489  0.00  0.00    +0.000 NA
ATOM     26  C   UNL     1      46.235   3.817   7.619  0.00  0.00    +0.000 A 
ATOM     27  C   UNL     1      46.263   2.444   7.705  0.00  0.00    +0.000 A 
ATOM     28  C   UNL     1      45.554   1.908   8.755  0.00  0.00    +0.000 A 
ATOM     29  N   UNL     1      44.881   2.649   9.656  0.00  0.00    +0.000 NA
ENDBRANCH  23  24
ENDBRANCH  20  23
ENDBRANCH  16  17
ENDBRANCH   3  16
TORSDOF 5
ENDMDL
MODEL 4
REMARK VINA RESULT:    -7.538      2.570      3.769
REMARK INTER + INTRA:         -10.353
REMARK INTER:                  -9.670
REMARK INTRA:                  -0.684
REMARK UNBOUND:                -0.612
REMARK  Name = 
REMARK  5 active torsions:
REMARK  status: ('A' for Active; 'I' for Inactive)
REMARK    1  A    between atoms: C_2  and  C_18
REMARK    2  A    between atoms: N_3  and  C_4
REMARK    3  A    between atoms: C_4  and  C_5
REMARK    4  A    between atoms: C_8  and  C_9
REMARK    5  A    between atoms: C_9  and  C_10
REMARK                            x       y       z     vdW  Elec       q    Type
REMARK                         _______ _______ _______ _____ _____    ______ ____
ROOT
ATOM      1  O   UNL     1      48.677   5.088  15.899  0.00  0.00    +0.000 OA
ATOM      2  C   UNL     1      48.307   6.024  15.202  0.00  0.00    +0.000 C 
ATOM      3  N   UNL     1      47.264   5.966  14.299  0.00  0.00    +0.000 N 
ATOM      4  H   UNL     1      46.907   6.833  13.920  0.00  0.00    +0.000 HD
ENDROOT
BRANCH   2   5
ATOM      5  C   UNL     1      48.773   7.398  15.379  0.00  0.00    +0.000 A 
ATOM      6  C   UNL     1      48.841   8.009  16.619  0.00  0.00    +0.000 A 
ATOM      7  S   UNL     1      48.898   9.718  16.481  0.00  0.00    +0.000 S 
ATOM      8  C   UNL     1      48.951   9.638  14.777  0.00  0.00    +0.000 A 
ATOM      9  N   UNL     1      48.859  10.741  13.987  0.00  0.00    +0.000 NA
ATOM     10  C   UNL     1      48.958  10.495  12.722  0.00  0.00    +0.000 A 
ATOM     11  N   UNL     1      49.195   9.257  12.174  0.00  0.00    +0.000 N 
ATOM     12  C   UNL     1      49.325   8.119  12.935  0.00  0.00    +0.000 A 
ATOM     13  O   UNL     1      49.643   7.042  12.445  0.00  0.00    +0.000 OA
ATOM     14  C   UNL     1      49.077   8.337  14.342  0.00  0.00    +0.000 A 
ATOM     15  H   UNL     1      49.354   9.147  11.185  0.00  0.00    +0.000 HD
ENDBRANCH   2   5
BRANCH   3  16
ATOM     16  C   UNL     1      46.377   4.842  14.226  0.00  0.00    +0.000 C 
BRANCH  16  17
ATOM     17  C   UNL     1      45.899   4.639  12.811  0.00  0.00    +0.000 A 
ATOM     18  C   UNL     1      46.020   5.665  11.866  0.00  0.00    +0.000 A 
ATOM     19  C   UNL     1      45.610   5.467  10.543  0.00  0.00    +0.000 A 
ATOM     20  C   UNL     1      45.046   4.248  10.143  0.00  0.00    +0.000 A 
ATOM     21  C   UNL     1      44.881   3.238  11.100  0.00  0.00    +0.000 A 
ATOM     22  C   UNL     1      45.294   3.434  12.422  0.00  0.00    +0.000 A 
BRANCH  20  23
ATOM     23  C   UNL     1      44.632   4.023   8.706  0.00  0.00    +0.000 C 
BRANCH  23  24
ATOM     24  C   UNL     1      45.612   3.222   7.878  0.00  0.00    +0.000 A 
ATOM     25  N   UNL     1      46.228   3.844   6.849  0.00  0.00    +0.000 NA
ATOM     26  C   UNL     1      47.148   3.124   6.177  0.00  0.00    +0.000 A 
ATOM     27  C   UNL     1      47.481   1.826   6.488  0.00  0.00    +0.000 A 
ATOM     28  C   UNL     1      46.796   1.283   7.550  0.00  0.00    +0.000 A 
ATOM     29  N   UNL     1      45.868   1.953   8.260  0.00  0.00    +0.000 NA
ENDBRANCH  23  24
ENDBRANCH  20  23
ENDBRANCH  16  17
ENDBRANCH   3  16
TORSDOF 5
ENDMDL
MODEL 5
REMARK VINA RESULT:    -7.474      1.988      2.687
REMARK INTER + INTRA:         -10.271
REMARK INTER:                  -9.791
REMARK INTRA:                  -0.481
REMARK UNBOUND:                -0.612
REMARK  Name = 
REMARK  5 active torsions:
REMARK  status: ('A' for Active; 'I' for Inactive)
REMARK    1  A    between atoms: C_2  and  C_18
REMARK    2  A    between atoms: N_3  and  C_4
REMARK    3  A    between atoms: C_4  and  C_5
REMARK    4  A    between atoms: C_8  and  C_9
REMARK    5  A    between atoms: C_9  and  C_10
REMARK                            x       y       z     vdW  Elec       q    Type
REMARK                         _______ _______ _______ _____ _____    ______ ____
ROOT
ATOM      1  O   UNL     1      49.137   6.580  13.875  0.00  0.00    +0.000 OA
ATOM      2  C   UNL     1      48.153   6.294  14.545  0.00  0.00    +0.000 C 
ATOM      3  N   UNL     1      46.851   6.597  14.197  0.00  0.00    +0.000 N 
ATOM      4  H   UNL     1      46.101   6.149  14.705  0.00  0.00    +0.000 HD
ENDROOT
BRANCH   2   5
ATOM      5  C   UNL     1      48.194   5.400  15.700  0.00  0.00    +0.000 A 
ATOM      6  C   UNL     1      47.627   4.137  15.687  0.00  0.00    +0.000 A 
ATOM      7  S   UNL     1      47.354   3.549  17.276  0.00  0.00    +0.000 S 
ATOM      8  C   UNL     1      48.094   4.918  17.974  0.00  0.00    +0.000 A 
ATOM      9  N   UNL     1      48.080   5.157  19.313  0.00  0.00    +0.000 NA
ATOM     10  C   UNL     1      48.724   6.221  19.667  0.00  0.00    +0.000 A 
ATOM     11  N   UNL     1      49.426   7.039  18.814  0.00  0.00    +0.000 N 
ATOM     12  C   UNL     1      49.494   6.820  17.458  0.00  0.00    +0.000 A 
ATOM     13  O   UNL     1      50.210   7.492  16.726  0.00  0.00    +0.000 OA
ATOM     14  C   UNL     1      48.667   5.722  17.012  0.00  0.00    +0.000 A 
ATOM     15  H   UNL     1      49.985   7.802  19.166  0.00  0.00    +0.000 HD
ENDBRANCH   2   5
BRANCH   3  16
ATOM     16  C   UNL     1      46.506   7.117  12.907  0.00  0.00    +0.000 C 
BRANCH  16  17
ATOM     17  C   UNL     1      46.039   6.009  11.999  0.00  0.00    +0.000 A 
ATOM     18  C   UNL     1      45.725   4.748  12.520  0.00  0.00    +0.000 A 
ATOM     19  C   UNL     1      45.257   3.728  11.685  0.00  0.00    +0.000 A 
ATOM     20  C   UNL     1      45.116   3.939  10.306  0.00  0.00    +0.000 A 
ATOM     21  C   UNL     1      45.475   5.186   9.778  0.00  0.00    +0.000 A 
ATOM     22  C   UNL     1      45.940   6.207  10.614  0.00  0.00    +0.000 A 
BRANCH  20  23
ATOM     23  C   UNL     1      44.580   2.847   9.408  0.00  0.00    +0.000 C 
BRANCH  23  24
ATOM     24  C   UNL     1      45.519   2.410   8.306  0.00  0.00    +0.000 A 
ATOM     25  N   UNL     1      45.794   3.293   7.321  0.00  0.00    +0.000 NA
ATOM     26  C   UNL     1      46.689   2.898   6.395  0.00  0.00    +0.000 A 
ATOM     27  C   UNL     1      47.321   1.676   6.411  0.00  0.00    +0.000 A 
ATOM     28  C   UNL     1      46.971   0.850   7.454  0.00  0.00    +0.000 A 
ATOM     29  N   UNL     1      46.085   1.188   8.410  0.00  0.00    +0.000 NA
ENDBRANCH  23  24
ENDBRANCH  20  23
ENDBRANCH  16  17
ENDBRANCH   3  16
TORSDOF 5
ENDMDL
MODEL 6
REMARK VINA RESULT:    -7.456      2.880      8.705
REMARK INTER + INTRA:         -10.247
REMARK INTER:                  -9.421
REMARK INTRA:                  -0.826
REMARK UNBOUND:                -0.612
REMARK  Name = 
REMARK  5 active torsions:
REMARK  status: ('A' for Active; 'I' for Inactive)
REMARK    1  A    between atoms: C_2  and  C_18
REMARK    2  A    between atoms: N_3  and  C_4
REMARK    3  A    between atoms: C_4  and  C_5
REMARK    4  A    between atoms: C_8  and  C_9
REMARK    5  A    between atoms: C_9  and  C_10
REMARK                            x       y       z     vdW  Elec       q    Type
REMARK                         _______ _______ _______ _____ _____    ______ ____
ROOT
ATOM      1  O   UNL     1      44.674   7.183  11.797  0.00  0.00    +0.000 OA
ATOM      2  C   UNL     1      45.230   6.136  11.488  0.00  0.00    +0.000 C 
ATOM      3  N   UNL     1      46.570   5.870  11.688  0.00  0.00    +0.000 N 
ATOM      4  H   UNL     1      46.891   4.917  11.588  0.00  0.00    +0.000 HD
ENDROOT
BRANCH   2   5
ATOM      5  C   UNL     1      44.513   4.936  11.063  0.00  0.00    +0.000 A 
ATOM      6  C   UNL     1      43.481   4.382  11.801  0.00  0.00    +0.000 A 
ATOM      7  S   UNL     1      43.200   2.745  11.368  0.00  0.00    +0.000 S 
ATOM      8  C   UNL     1      44.367   2.811  10.126  0.00  0.00    +0.000 A 
ATOM      9  N   UNL     1      44.763   1.711   9.432  0.00  0.00    +0.000 NA
ATOM     10  C   UNL     1      45.626   1.955   8.501  0.00  0.00    +0.000 A 
ATOM     11  N   UNL     1      46.091   3.204   8.162  0.00  0.00    +0.000 N 
ATOM     12  C   UNL     1      45.695   4.348   8.815  0.00  0.00    +0.000 A 
ATOM     13  O   UNL     1      46.031   5.462   8.434  0.00  0.00    +0.000 OA
ATOM     14  C   UNL     1      44.842   4.093   9.953  0.00  0.00    +0.000 A 
ATOM     15  H   UNL     1      46.693   3.336   7.364  0.00  0.00    +0.000 HD
ENDBRANCH   2   5
BRANCH   3  16
ATOM     16  C   UNL     1      47.414   6.734  12.460  0.00  0.00    +0.000 C 
BRANCH  16  17
ATOM     17  C   UNL     1      47.668   6.144  13.823  0.00  0.00    +0.000 A 
ATOM     18  C   UNL     1      47.052   4.945  14.204  0.00  0.00    +0.000 A 
ATOM     19  C   UNL     1      47.313   4.375  15.455  0.00  0.00    +0.000 A 
ATOM     20  C   UNL     1      48.176   5.005  16.362  0.00  0.00    +0.000 A 
ATOM     21  C   UNL     1      48.755   6.228  16.000  0.00  0.00    +0.000 A 
ATOM     22  C   UNL     1      48.497   6.796  14.748  0.00  0.00    +0.000 A 
BRANCH  20  23
ATOM     23  C   UNL     1      48.484   4.373  17.702  0.00  0.00    +0.000 C 
BRANCH  23  24
ATOM     24  C   UNL     1      49.790   3.614  17.763  0.00  0.00    +0.000 A 
ATOM     25  N   UNL     1      49.841   2.394  17.184  0.00  0.00    +0.000 NA
ATOM     26  C   UNL     1      51.038   1.776  17.194  0.00  0.00    +0.000 A 
ATOM     27  C   UNL     1      52.176   2.317  17.744  0.00  0.00    +0.000 A 
ATOM     28  C   UNL     1      52.019   3.561  18.310  0.00  0.00    +0.000 A 
ATOM     29  N   UNL     1      50.849   4.229  18.330  0.00  0.00    +0.000 NA
ENDBRANCH  23  24
ENDBRANCH  20  23
ENDBRANCH  16  17
ENDBRANCH   3  16
TORSDOF 5
ENDMDL
MODEL 7
REMARK VINA RESULT:    -7.377      2.480      3.561
REMARK INTER + INTRA:         -10.146
REMARK INTER:                  -9.267
REMARK INTRA:                  -0.879
REMARK UNBOUND:                -0.612
REMARK  Name = 
REMARK  5 active torsions:
REMARK  status: ('A' for Active; 'I' for Inactive)
REMARK    1  A    between atoms: C_2  and  C_18
REMARK    2  A    between atoms: N_3  and  C_4
REMARK    3  A    between atoms: C_4  and  C_5
REMARK    4  A    between atoms: C_8  and  C_9
REMARK    5  A    between atoms: C_9  and  C_10
REMARK                            x       y       z     vdW  Elec       q    Type
REMARK                         _______ _______ _______ _____ _____    ______ ____
ROOT
ATOM      1  O   UNL     1      50.072   7.999  16.557  0.00  0.00    +0.000 OA
ATOM      2  C   UNL     1      48.945   7.548  16.712  0.00  0.00    +0.000 C 
ATOM      3  N   UNL     1      48.188   6.965  15.714  0.00  0.00    +0.000 N 
ATOM      4  H   UNL     1      47.362   6.447  15.977  0.00  0.00    +0.000 HD
ENDROOT
BRANCH   2   5
ATOM      5  C   UNL     1      48.320   7.362  18.020  0.00  0.00    +0.000 A 
ATOM      6  C   UNL     1      47.756   8.407  18.732  0.00  0.00    +0.000 A 
ATOM      7  S   UNL     1      47.593   8.023  20.397  0.00  0.00    +0.000 S 
ATOM      8  C   UNL     1      48.162   6.434  20.147  0.00  0.00    +0.000 A 
ATOM      9  N   UNL     1      48.428   5.581  21.172  0.00  0.00    +0.000 NA
ATOM     10  C   UNL     1      48.812   4.405  20.795  0.00  0.00    +0.000 A 
ATOM     11  N   UNL     1      48.905   3.986  19.489  0.00  0.00    +0.000 N 
ATOM     12  C   UNL     1      48.617   4.803  18.422  0.00  0.00    +0.000 A 
ATOM     13  O   UNL     1      48.598   4.387  17.271  0.00  0.00    +0.000 OA
ATOM     14  C   UNL     1      48.322   6.166  18.805  0.00  0.00    +0.000 A 
ATOM     15  H   UNL     1      49.122   3.027  19.265  0.00  0.00    +0.000 HD
ENDBRANCH   2   5
BRANCH   3  16
ATOM     16  C   UNL     1      48.732   6.658  14.423  0.00  0.00    +0.000 C 
BRANCH  16  17
ATOM     17  C   UNL     1      47.636   6.252  13.472  0.00  0.00    +0.000 A 
ATOM     18  C   UNL     1      47.481   6.909  12.245  0.00  0.00    +0.000 A 
ATOM     19  C   UNL     1      46.487   6.511  11.344  0.00  0.00    +0.000 A 
ATOM     20  C   UNL     1      45.611   5.464  11.661  0.00  0.00    +0.000 A 
ATOM     21  C   UNL     1      45.736   4.838  12.908  0.00  0.00    +0.000 A 
ATOM     22  C   UNL     1      46.732   5.233  13.808  0.00  0.00    +0.000 A 
BRANCH  20  23
ATOM     23  C   UNL     1      44.557   5.012  10.675  0.00  0.00    +0.000 C 
BRANCH  23  24
ATOM     24  C   UNL     1      45.060   4.101   9.578  0.00  0.00    +0.000 A 
ATOM     25  N   UNL     1      45.650   4.669   8.503  0.00  0.00    +0.000 NA
ATOM     26  C   UNL     1      46.150   3.826   7.579  0.00  0.00    +0.000 A 
ATOM     27  C   UNL     1      46.096   2.456   7.681  0.00  0.00    +0.000 A 
ATOM     28  C   UNL     1      45.474   1.977   8.811  0.00  0.00    +0.000 A 
ATOM     29  N   UNL     1      44.956   2.769   9.770  0.00  0.00    +0.000 NA
ENDBRANCH  23  24
ENDBRANCH  20  23
ENDBRANCH  16  17
ENDBRANCH   3  16
TORSDOF 5
ENDMDL
MODEL 8
REMARK VINA RESULT:    -6.888      2.915      3.688
REMARK INTER + INTRA:          -9.513
REMARK INTER:                  -8.747
REMARK INTRA:                  -0.766
REMARK UNBOUND:                -0.612
REMARK  Name = 
REMARK  5 active torsions:
REMARK  status: ('A' for Active; 'I' for Inactive)
REMARK    1  A    between atoms: C_2  and  C_18
REMARK    2  A    between atoms: N_3  and  C_4
REMARK    3  A    between atoms: C_4  and  C_5
REMARK    4  A    between atoms: C_8  and  C_9
REMARK    5  A    between atoms: C_9  and  C_10
REMARK                            x       y       z     vdW  Elec       q    Type
REMARK                         _______ _______ _______ _____ _____    ______ ____
ROOT
ATOM      1  O   UNL     1      48.779   9.942  15.131  0.00  0.00    +0.000 OA
ATOM      2  C   UNL     1      48.402   8.796  15.341  0.00  0.00    +0.000 C 
ATOM      3  N   UNL     1      47.484   8.116  14.566  0.00  0.00    +0.000 N 
ATOM      4  H   UNL     1      47.388   7.119  14.697  0.00  0.00    +0.000 HD
ENDROOT
BRANCH   2   5
ATOM      5  C   UNL     1      49.030   7.905  16.315  0.00  0.00    +0.000 A 
ATOM      6  C   UNL     1      49.991   6.974  15.963  0.00  0.00    +0.000 A 
ATOM      7  S   UNL     1      50.149   5.746  17.151  0.00  0.00    +0.000 S 
ATOM      8  C   UNL     1      49.028   6.516  18.181  0.00  0.00    +0.000 A 
ATOM      9  N   UNL     1      48.563   5.940  19.322  0.00  0.00    +0.000 NA
ATOM     10  C   UNL     1      47.751   6.685  19.998  0.00  0.00    +0.000 A 
ATOM     11  N   UNL     1      47.401   7.972  19.669  0.00  0.00    +0.000 N 
ATOM     12  C   UNL     1      47.870   8.607  18.542  0.00  0.00    +0.000 A 
ATOM     13  O   UNL     1      47.638   9.788  18.317  0.00  0.00    +0.000 OA
ATOM     14  C   UNL     1      48.666   7.752  17.691  0.00  0.00    +0.000 A 
ATOM     15  H   UNL     1      46.836   8.533  20.288  0.00  0.00    +0.000 HD
ENDBRANCH   2   5
BRANCH   3  16
ATOM     16  C   UNL     1      47.017   8.627  13.310  0.00  0.00    +0.000 C 
BRANCH  16  17
ATOM     17  C   UNL     1      46.202   7.586  12.588  0.00  0.00    +0.000 A 
ATOM     18  C   UNL     1      45.049   7.950  11.880  0.00  0.00    +0.000 A 
ATOM     19  C   UNL     1      44.310   6.992  11.179  0.00  0.00    +0.000 A 
ATOM     20  C   UNL     1      44.694   5.644  11.190  0.00  0.00    +0.000 A 
ATOM     21  C   UNL     1      45.819   5.272  11.936  0.00  0.00    +0.000 A 
ATOM     22  C   UNL     1      46.560   6.230  12.634  0.00  0.00    +0.000 A 
BRANCH  20  23
ATOM     23  C   UNL     1      43.913   4.612  10.405  0.00  0.00    +0.000 C 
BRANCH  23  24
ATOM     24  C   UNL     1      44.727   3.822   9.406  0.00  0.00    +0.000 A 
ATOM     25  N   UNL     1      45.398   4.507   8.453  0.00  0.00    +0.000 NA
ATOM     26  C   UNL     1      46.170   3.779   7.623  0.00  0.00    +0.000 A 
ATOM     27  C   UNL     1      46.308   2.413   7.705  0.00  0.00    +0.000 A 
ATOM     28  C   UNL     1      45.583   1.810   8.706  0.00  0.00    +0.000 A 
ATOM     29  N   UNL     1      44.795   2.484   9.567  0.00  0.00    +0.000 NA
ENDBRANCH  23  24
ENDBRANCH  20  23
ENDBRANCH  16  17
ENDBRANCH   3  16
TORSDOF 5
ENDMDL
MODEL 9
REMARK VINA RESULT:    -6.861      3.153      4.025
REMARK INTER + INTRA:          -9.478
REMARK INTER:                  -9.009
REMARK INTRA:                  -0.469
REMARK UNBOUND:                -0.612
REMARK  Name = 
REMARK  5 active torsions:
REMARK  status: ('A' for Active; 'I' for Inactive)
REMARK    1  A    between atoms: C_2  and  C_18
REMARK    2  A    between atoms: N_3  and  C_4
REMARK    3  A    between atoms: C_4  and  C_5
REMARK    4  A    between atoms: C_8  and  C_9
REMARK    5  A    between atoms: C_9  and  C_10
REMARK                            x       y       z     vdW  Elec       q    Type
REMARK                         _______ _______ _______ _____ _____    ______ ____
ROOT
ATOM      1  O   UNL     1      46.522   9.481  12.921  0.00  0.00    +0.000 OA
ATOM      2  C   UNL     1      46.785   8.383  13.394  0.00  0.00    +0.000 C 
ATOM      3  N   UNL     1      45.951   7.284  13.339  0.00  0.00    +0.000 N 
ATOM      4  H   UNL     1      46.331   6.378  13.576  0.00  0.00    +0.000 HD
ENDROOT
BRANCH   2   5
ATOM      5  C   UNL     1      48.108   8.013  13.894  0.00  0.00    +0.000 A 
ATOM      6  C   UNL     1      48.373   7.836  15.241  0.00  0.00    +0.000 A 
ATOM      7  S   UNL     1      50.054   7.940  15.574  0.00  0.00    +0.000 S 
ATOM      8  C   UNL     1      50.432   8.103  13.918  0.00  0.00    +0.000 A 
ATOM      9  N   UNL     1      51.686   8.388  13.477  0.00  0.00    +0.000 NA
ATOM     10  C   UNL     1      51.796   8.434  12.190  0.00  0.00    +0.000 A 
ATOM     11  N   UNL     1      50.782   8.168  11.301  0.00  0.00    +0.000 N 
ATOM     12  C   UNL     1      49.506   7.846  11.700  0.00  0.00    +0.000 A 
ATOM     13  O   UNL     1      48.642   7.506  10.902  0.00  0.00    +0.000 OA
ATOM     14  C   UNL     1      49.316   7.926  13.131  0.00  0.00    +0.000 A 
ATOM     15  H   UNL     1      50.956   8.130  10.308  0.00  0.00    +0.000 HD
ENDBRANCH   2   5
BRANCH   3  16
ATOM     16  C   UNL     1      44.757   7.269  12.546  0.00  0.00    +0.000 C 
BRANCH  16  17
ATOM     17  C   UNL     1      44.702   6.025  11.697  0.00  0.00    +0.000 A 
ATOM     18  C   UNL     1      43.830   4.979  12.025  0.00  0.00    +0.000 A 
ATOM     19  C   UNL     1      43.752   3.838  11.219  0.00  0.00    +0.000 A 
ATOM     20  C   UNL     1      44.561   3.708  10.082  0.00  0.00    +0.000 A 
ATOM     21  C   UNL     1      45.466   4.733   9.781  0.00  0.00    +0.000 A 
ATOM     22  C   UNL     1      45.543   5.876  10.584  0.00  0.00    +0.000 A 
BRANCH  20  23
ATOM     23  C   UNL     1      44.453   2.489   9.192  0.00  0.00    +0.000 C 
BRANCH  23  24
ATOM     24  C   UNL     1      45.568   2.336   8.183  0.00  0.00    +0.000 A 
ATOM     25  N   UNL     1      46.354   1.240   8.269  0.00  0.00    +0.000 NA
ATOM     26  C   UNL     1      47.292   1.099   7.312  0.00  0.00    +0.000 A 
ATOM     27  C   UNL     1      47.474   1.989   6.279  0.00  0.00    +0.000 A 
ATOM     28  C   UNL     1      46.625   3.071   6.282  0.00  0.00    +0.000 A 
ATOM     29  N   UNL     1      45.668   3.267   7.211  0.00  0.00    +0.000 NA
ENDBRANCH  23  24
ENDBRANCH  20  23
ENDBRANCH  16  17
ENDBRANCH   3  16
TORSDOF 5
ENDMDL
