MODEL 1
REMARK VINA RESULT:    -8.363      0.000      0.000
REMARK INTER + INTRA:         -12.330
REMARK INTER:                 -11.297
REMARK INTRA:                  -1.033
REMARK UNBOUND:                -1.033
REMARK  Name = 
REMARK  7 active torsions:
REMARK  status: ('A' for Active; 'I' for Inactive)
REMARK    1  A    between atoms: C_1  and  C_2
REMARK    2  A    between atoms: N_6  and  C_7
REMARK    3  A    between atoms: C_11  and  C_12
REMARK    4  A    between atoms: C_12  and  C_13
REMARK    5  A    between atoms: C_13  and  O_14
REMARK    6  A    between atoms: O_14  and  C_15
REMARK    7  A    between atoms: C_18  and  C_19
REMARK                            x       y       z     vdW  Elec       q    Type
REMARK                         _______ _______ _______ _____ _____    ______ ____
ROOT
ATOM      1  C   UNL     1      44.687   4.470  12.256  0.00  0.00    +0.000 C 
ENDROOT
BRANCH   1   6
ATOM      2  C   UNL     1      47.441   5.179  14.830  0.00  0.00    +0.000 A 
ATOM      3  C   UNL     1      48.105   6.237  14.199  0.00  0.00    +0.000 A 
ATOM      4  C   UNL     1      47.679   6.730  12.961  0.00  0.00    +0.000 A 
ATOM      5  C   UNL     1      46.574   6.171  12.323  0.00  0.00    +0.000 A 
ATOM      6  C   UNL     1      45.880   5.115  12.920  0.00  0.00    +0.000 A 
ATOM      7  C   UNL     1      46.324   4.643  14.164  0.00  0.00    +0.000 A 
BRANCH   2  13
ATOM      8  C   UNL     1      50.573   5.640  16.971  0.00  0.00    +0.000 C 
ATOM      9  C   UNL     1      49.385   5.256  17.860  0.00  0.00    +0.000 C 
ATOM     10  C   UNL     1      49.415   3.767  18.246  0.00  0.00    +0.000 C 
ATOM     11  C   UNL     1      49.050   2.846  17.079  0.00  0.00    +0.000 C 
ATOM     12  C   UNL     1      47.742   3.267  16.401  0.00  0.00    +0.000 C 
ATOM     13  N   UNL     1      47.827   4.683  16.060  0.00  0.00    +0.000 N 
ATOM     14  C   UNL     1      48.050   5.596  17.185  0.00  0.00    +0.000 C 
ENDBRANCH   2  13
ENDBRANCH   1   6
BRANCH   1  15
ATOM     15  C   UNL     1      44.142   5.298  11.094  0.00  0.00    +0.000 C 
BRANCH  15  16
ATOM     16  O   UNL     1      43.584   4.431  10.098  0.00  0.00    +0.000 OA
BRANCH  16  17
ATOM     17  C   UNL     1      44.496   3.730   9.350  0.00  0.00    +0.000 A 
ATOM     18  C   UNL     1      44.650   2.343   9.365  0.00  0.00    +0.000 A 
ATOM     19  C   UNL     1      45.614   1.731   8.564  0.00  0.00    +0.000 A 
ATOM     20  C   UNL     1      46.438   2.494   7.730  0.00  0.00    +0.000 A 
ATOM     21  C   UNL     1      46.295   3.887   7.716  0.00  0.00    +0.000 A 
ATOM     22  C   UNL     1      45.327   4.498   8.527  0.00  0.00    +0.000 A 
BRANCH  20  23
ATOM     23  C   UNL     1      47.446   1.771   6.916  0.00  0.00    +0.000 C 
ATOM     24  N   UNL     1      48.520   2.484   6.459  0.00  0.00    +0.000 N 
ATOM     25  O   UNL     1      47.309   0.591   6.618  0.00  0.00    +0.000 OA
ATOM     26  H   UNL     1      48.565   3.492   6.490  0.00  0.00    +0.000 HD
ATOM     27  H   UNL     1      49.129   2.001   5.811  0.00  0.00    +0.000 HD
ENDBRANCH  20  23
ENDBRANCH  16  17
ENDBRANCH  15  16
ENDBRANCH   1  15
TORSDOF 6
ENDMDL
MODEL 2
REMARK VINA RESULT:    -8.164      2.465      3.891
REMARK INTER + INTRA:         -12.061
REMARK INTER:                 -10.797
REMARK INTRA:                  -1.263
REMARK UNBOUND:                -1.033
REMARK  Name = 
REMARK  7 active torsions:
REMARK  status: ('A' for Active; 'I' for Inactive)
REMARK    1  A    between atoms: C_1  and  C_2
REMARK    2  A    between atoms: N_6  and  C_7
REMARK    3  A    between atoms: C_11  and  C_12
REMARK    4  A    between atoms: C_12  and  C_13
REMARK    5  A    between atoms: C_13  and  O_14
REMARK    6  A    between atoms: O_14  and  C_15
REMARK    7  A    between atoms: C_18  and  C_19
REMARK                            x       y       z     vdW  Elec       q    Type
REMARK                         _______ _______ _______ _____ _____    ______ ____
ROOT
ATOM      1  C   UNL     1      43.482   5.351  12.273  0.00  0.00    +0.000 C 
ENDROOT
BRANCH   1   6
ATOM      2  C   UNL     1      47.020   6.799  12.592  0.00  0.00    +0.000 A 
ATOM      3  C   UNL     1      47.628   5.802  13.361  0.00  0.00    +0.000 A 
ATOM      4  C   UNL     1      46.921   4.668  13.777  0.00  0.00    +0.000 A 
ATOM      5  C   UNL     1      45.581   4.508  13.430  0.00  0.00    +0.000 A 
ATOM      6  C   UNL     1      44.936   5.478  12.658  0.00  0.00    +0.000 A 
ATOM      7  C   UNL     1      45.669   6.602  12.251  0.00  0.00    +0.000 A 
BRANCH   2  13
ATOM      8  C   UNL     1      50.445   8.279  13.419  0.00  0.00    +0.000 C 
ATOM      9  C   UNL     1      50.002   8.736  12.025  0.00  0.00    +0.000 C 
ATOM     10  C   UNL     1      49.446  10.171  12.041  0.00  0.00    +0.000 C 
ATOM     11  C   UNL     1      48.063  10.262  12.691  0.00  0.00    +0.000 C 
ATOM     12  C   UNL     1      47.082   9.243  12.101  0.00  0.00    +0.000 C 
ATOM     13  N   UNL     1      47.697   7.920  12.152  0.00  0.00    +0.000 N 
ATOM     14  C   UNL     1      48.962   7.779  11.427  0.00  0.00    +0.000 C 
ENDBRANCH   2  13
ENDBRANCH   1   6
BRANCH   1  15
ATOM     15  C   UNL     1      43.292   5.008  10.797  0.00  0.00    +0.000 C 
BRANCH  15  16
ATOM     16  O   UNL     1      43.477   3.601  10.596  0.00  0.00    +0.000 OA
BRANCH  16  17
ATOM     17  C   UNL     1      44.420   3.259   9.660  0.00  0.00    +0.000 A 
ATOM     18  C   UNL     1      44.845   1.957   9.387  0.00  0.00    +0.000 A 
ATOM     19  C   UNL     1      45.815   1.721   8.414  0.00  0.00    +0.000 A 
ATOM     20  C   UNL     1      46.375   2.780   7.691  0.00  0.00    +0.000 A 
ATOM     21  C   UNL     1      45.959   4.089   7.965  0.00  0.00    +0.000 A 
ATOM     22  C   UNL     1      44.986   4.322   8.949  0.00  0.00    +0.000 A 
BRANCH  20  23
ATOM     23  C   UNL     1      47.408   2.450   6.679  0.00  0.00    +0.000 C 
ATOM     24  N   UNL     1      47.409   3.170   5.517  0.00  0.00    +0.000 N 
ATOM     25  O   UNL     1      48.207   1.537   6.848  0.00  0.00    +0.000 OA
ATOM     26  H   UNL     1      46.646   3.772   5.243  0.00  0.00    +0.000 HD
ATOM     27  H   UNL     1      48.043   2.849   4.797  0.00  0.00    +0.000 HD
ENDBRANCH  20  23
ENDBRANCH  16  17
ENDBRANCH  15  16
ENDBRANCH   1  15
TORSDOF 6
ENDMDL
MODEL 3
REMARK VINA RESULT:    -7.969      3.384      5.556
REMARK INTER + INTRA:         -11.798
REMARK INTER:                 -10.606
REMARK INTRA:                  -1.192
REMARK UNBOUND:                -1.033
REMARK  Name = 
REMARK  7 active torsions:
REMARK  status: ('A' for Active; 'I' for Inactive)
REMARK    1  A    between atoms: C_1  and  C_2
REMARK    2  A    between atoms: N_6  and  C_7
REMARK    3  A    between atoms: C_11  and  C_12
REMARK    4  A    between atoms: C_12  and  C_13
REMARK    5  A    between atoms: C_13  and  O_14
REMARK    6  A    between atoms: O_14  and  C_15
REMARK    7  A    between atoms: C_18  and  C_19
REMARK                            x       y       z     vdW  Elec       q    Type
REMARK                         _______ _______ _______ _____ _____    ______ ____
ROOT
ATOM      1  C   UNL     1      43.803   5.345  12.075  0.00  0.00    +0.000 C 
ENDROOT
BRANCH   1   6
ATOM      2  C   UNL     1      45.934   8.533  11.969  0.00  0.00    +0.000 A 
ATOM      3  C   UNL     1      47.211   7.984  12.125  0.00  0.00    +0.000 A 
ATOM      4  C   UNL     1      47.401   6.604  12.260  0.00  0.00    +0.000 A 
ATOM      5  C   UNL     1      46.309   5.739  12.243  0.00  0.00    +0.000 A 
ATOM      6  C   UNL     1      45.016   6.246  12.084  0.00  0.00    +0.000 A 
ATOM      7  C   UNL     1      44.854   7.632  11.946  0.00  0.00    +0.000 A 
BRANCH   2  13
ATOM      8  C   UNL     1      43.869  10.590   9.497  0.00  0.00    +0.000 C 
ATOM      9  C   UNL     1      44.062  11.377  10.797  0.00  0.00    +0.000 C 
ATOM     10  C   UNL     1      45.165  12.441  10.667  0.00  0.00    +0.000 C 
ATOM     11  C   UNL     1      46.571  11.835  10.633  0.00  0.00    +0.000 C 
ATOM     12  C   UNL     1      46.805  10.863  11.794  0.00  0.00    +0.000 C 
ATOM     13  N   UNL     1      45.718   9.889  11.815  0.00  0.00    +0.000 N 
ATOM     14  C   UNL     1      44.371  10.443  11.975  0.00  0.00    +0.000 C 
ENDBRANCH   2  13
ENDBRANCH   1   6
BRANCH   1  15
ATOM     15  C   UNL     1      43.354   4.979  10.662  0.00  0.00    +0.000 C 
BRANCH  15  16
ATOM     16  O   UNL     1      43.497   3.568  10.455  0.00  0.00    +0.000 OA
BRANCH  16  17
ATOM     17  C   UNL     1      44.443   3.202   9.531  0.00  0.00    +0.000 A 
ATOM     18  C   UNL     1      44.928   1.906   9.348  0.00  0.00    +0.000 A 
ATOM     19  C   UNL     1      45.895   1.644   8.379  0.00  0.00    +0.000 A 
ATOM     20  C   UNL     1      46.391   2.672   7.569  0.00  0.00    +0.000 A 
ATOM     21  C   UNL     1      45.914   3.976   7.751  0.00  0.00    +0.000 A 
ATOM     22  C   UNL     1      44.945   4.235   8.732  0.00  0.00    +0.000 A 
BRANCH  20  23
ATOM     23  C   UNL     1      47.425   2.316   6.566  0.00  0.00    +0.000 C 
ATOM     24  N   UNL     1      47.534   3.113   5.460  0.00  0.00    +0.000 N 
ATOM     25  O   UNL     1      48.130   1.322   6.691  0.00  0.00    +0.000 OA
ATOM     26  H   UNL     1      46.841   3.802   5.208  0.00  0.00    +0.000 HD
ATOM     27  H   UNL     1      48.162   2.784   4.737  0.00  0.00    +0.000 HD
ENDBRANCH  20  23
ENDBRANCH  16  17
ENDBRANCH  15  16
ENDBRANCH   1  15
TORSDOF 6
ENDMDL
MODEL 4
REMARK VINA RESULT:    -7.866      2.154      3.063
REMARK INTER + INTRA:         -11.658
REMARK INTER:                 -10.439
REMARK INTRA:                  -1.219
REMARK UNBOUND:                -1.033
REMARK  Name = 
REMARK  7 active torsions:
REMARK  status: ('A' for Active; 'I' for Inactive)
REMARK    1  A    between atoms: C_1  and  C_2
REMARK    2  A    between atoms: N_6  and  C_7
REMARK    3  A    between atoms: C_11  and  C_12
REMARK    4  A    between atoms: C_12  and  C_13
REMARK    5  A    between atoms: C_13  and  O_14
REMARK    6  A    between atoms: O_14  and  C_15
REMARK    7  A    between atoms: C_18  and  C_19
REMARK                            x       y       z     vdW  Elec       q    Type
REMARK                         _______ _______ _______ _____ _____    ______ ____
ROOT
ATOM      1  C   UNL     1      43.803   4.223  12.805  0.00  0.00    +0.000 C 
ENDROOT
BRANCH   1   6
ATOM      2  C   UNL     1      46.705   6.732  12.796  0.00  0.00    +0.000 A 
ATOM      3  C   UNL     1      46.143   7.760  12.033  0.00  0.00    +0.000 A 
ATOM      4  C   UNL     1      44.843   7.664  11.524  0.00  0.00    +0.000 A 
ATOM      5  C   UNL     1      44.074   6.528  11.768  0.00  0.00    +0.000 A 
ATOM      6  C   UNL     1      44.597   5.479  12.529  0.00  0.00    +0.000 A 
ATOM      7  C   UNL     1      45.900   5.603  13.032  0.00  0.00    +0.000 A 
BRANCH   2  13
ATOM      8  C   UNL     1      48.291   8.926  15.493  0.00  0.00    +0.000 C 
ATOM      9  C   UNL     1      49.071   7.613  15.364  0.00  0.00    +0.000 C 
ATOM     10  C   UNL     1      50.362   7.790  14.547  0.00  0.00    +0.000 C 
ATOM     11  C   UNL     1      50.096   7.970  13.050  0.00  0.00    +0.000 C 
ATOM     12  C   UNL     1      49.177   6.877  12.495  0.00  0.00    +0.000 C 
ATOM     13  N   UNL     1      47.979   6.807  13.326  0.00  0.00    +0.000 N 
ATOM     14  C   UNL     1      48.205   6.509  14.743  0.00  0.00    +0.000 C 
ENDBRANCH   2  13
ENDBRANCH   1   6
BRANCH   1  15
ATOM     15  C   UNL     1      44.235   3.050  11.928  0.00  0.00    +0.000 C 
BRANCH  15  16
ATOM     16  O   UNL     1      43.659   3.181  10.621  0.00  0.00    +0.000 OA
BRANCH  16  17
ATOM     17  C   UNL     1      44.546   3.111   9.578  0.00  0.00    +0.000 A 
ATOM     18  C   UNL     1      44.981   4.199   8.819  0.00  0.00    +0.000 A 
ATOM     19  C   UNL     1      45.887   4.015   7.774  0.00  0.00    +0.000 A 
ATOM     20  C   UNL     1      46.379   2.741   7.473  0.00  0.00    +0.000 A 
ATOM     21  C   UNL     1      45.941   1.643   8.225  0.00  0.00    +0.000 A 
ATOM     22  C   UNL     1      45.027   1.833   9.272  0.00  0.00    +0.000 A 
BRANCH  20  23
ATOM     23  C   UNL     1      47.332   2.624   6.342  0.00  0.00    +0.000 C 
ATOM     24  N   UNL     1      48.604   2.211   6.626  0.00  0.00    +0.000 N 
ATOM     25  O   UNL     1      47.015   2.926   5.198  0.00  0.00    +0.000 OA
ATOM     26  H   UNL     1      48.970   2.163   7.566  0.00  0.00    +0.000 HD
ATOM     27  H   UNL     1      49.265   2.252   5.861  0.00  0.00    +0.000 HD
ENDBRANCH  20  23
ENDBRANCH  16  17
ENDBRANCH  15  16
ENDBRANCH   1  15
TORSDOF 6
ENDMDL
MODEL 5
REMARK VINA RESULT:    -7.545      1.747      3.093
REMARK INTER + INTRA:         -11.225
REMARK INTER:                 -10.372
REMARK INTRA:                  -0.853
REMARK UNBOUND:                -1.033
REMARK  Name = 
REMARK  7 active torsions:
REMARK  status: ('A' for Active; 'I' for Inactive)
REMARK    1  A    between atoms: C_1  and  C_2
REMARK    2  A    between atoms: N_6  and  C_7
REMARK    3  A    between atoms: C_11  and  C_12
REMARK    4  A    between atoms: C_12  and  C_13
REMARK    5  A    between atoms: C_13  and  O_14
REMARK    6  A    between atoms: O_14  and  C_15
REMARK    7  A    between atoms: C_18  and  C_19
REMARK                            x       y       z     vdW  Elec       q    Type
REMARK                         _______ _______ _______ _____ _____    ______ ____
ROOT
ATOM      1  C   UNL     1      45.140   5.853  11.316  0.00  0.00    +0.000 C 
ENDROOT
BRANCH   1   6
ATOM      2  C   UNL     1      47.817   6.470  13.993  0.00  0.00    +0.000 A 
ATOM      3  C   UNL     1      47.717   5.282  14.724  0.00  0.00    +0.000 A 
ATOM      4  C   UNL     1      46.805   4.282  14.369  0.00  0.00    +0.000 A 
ATOM      5  C   UNL     1      45.968   4.452  13.268  0.00  0.00    +0.000 A 
ATOM      6  C   UNL     1      46.039   5.622  12.507  0.00  0.00    +0.000 A 
ATOM      7  C   UNL     1      46.966   6.606  12.882  0.00  0.00    +0.000 A 
BRANCH   2  13
ATOM      8  C   UNL     1      50.056   8.738  11.883  0.00  0.00    +0.000 C 
ATOM      9  C   UNL     1      49.765   9.402  13.233  0.00  0.00    +0.000 C 
ATOM     10  C   UNL     1      50.942   9.253  14.211  0.00  0.00    +0.000 C 
ATOM     11  C   UNL     1      51.083   7.829  14.756  0.00  0.00    +0.000 C 
ATOM     12  C   UNL     1      49.761   7.296  15.319  0.00  0.00    +0.000 C 
ATOM     13  N   UNL     1      48.721   7.467  14.309  0.00  0.00    +0.000 N 
ATOM     14  C   UNL     1      48.484   8.843  13.866  0.00  0.00    +0.000 C 
ENDBRANCH   2  13
ENDBRANCH   1   6
BRANCH   1  15
ATOM     15  C   UNL     1      43.955   4.891  11.278  0.00  0.00    +0.000 C 
BRANCH  15  16
ATOM     16  O   UNL     1      43.613   4.592   9.918  0.00  0.00    +0.000 OA
BRANCH  16  17
ATOM     17  C   UNL     1      44.525   3.826   9.237  0.00  0.00    +0.000 A 
ATOM     18  C   UNL     1      44.661   2.442   9.358  0.00  0.00    +0.000 A 
ATOM     19  C   UNL     1      45.626   1.760   8.618  0.00  0.00    +0.000 A 
ATOM     20  C   UNL     1      46.469   2.449   7.739  0.00  0.00    +0.000 A 
ATOM     21  C   UNL     1      46.343   3.838   7.617  0.00  0.00    +0.000 A 
ATOM     22  C   UNL     1      45.373   4.520   8.368  0.00  0.00    +0.000 A 
BRANCH  20  23
ATOM     23  C   UNL     1      47.477   1.655   6.993  0.00  0.00    +0.000 C 
ATOM     24  N   UNL     1      48.502   2.335   6.395  0.00  0.00    +0.000 N 
ATOM     25  O   UNL     1      47.380   0.440   6.873  0.00  0.00    +0.000 OA
ATOM     26  H   UNL     1      48.503   3.338   6.281  0.00  0.00    +0.000 HD
ATOM     27  H   UNL     1      49.107   1.787   5.796  0.00  0.00    +0.000 HD
ENDBRANCH  20  23
ENDBRANCH  16  17
ENDBRANCH  15  16
ENDBRANCH   1  15
TORSDOF 6
ENDMDL
MODEL 6
REMARK VINA RESULT:    -6.661      3.486      7.710
REMARK INTER + INTRA:         -10.031
REMARK INTER:                  -8.601
REMARK INTRA:                  -1.430
REMARK UNBOUND:                -1.033
REMARK  Name = 
REMARK  7 active torsions:
REMARK  status: ('A' for Active; 'I' for Inactive)
REMARK    1  A    between atoms: C_1  and  C_2
REMARK    2  A    between atoms: N_6  and  C_7
REMARK    3  A    between atoms: C_11  and  C_12
REMARK    4  A    between atoms: C_12  and  C_13
REMARK    5  A    between atoms: C_13  and  O_14
REMARK    6  A    between atoms: O_14  and  C_15
REMARK    7  A    between atoms: C_18  and  C_19
REMARK                            x       y       z     vdW  Elec       q    Type
REMARK                         _______ _______ _______ _____ _____    ______ ____
ROOT
ATOM      1  C   UNL     1      48.919   8.084  11.786  0.00  0.00    +0.000 C 
ENDROOT
BRANCH   1   6
ATOM      2  C   UNL     1      45.301   6.896  11.326  0.00  0.00    +0.000 A 
ATOM      3  C   UNL     1      44.610   8.047  11.717  0.00  0.00    +0.000 A 
ATOM      4  C   UNL     1      45.287   9.203  12.123  0.00  0.00    +0.000 A 
ATOM      5  C   UNL     1      46.679   9.230  12.148  0.00  0.00    +0.000 A 
ATOM      6  C   UNL     1      47.409   8.103  11.760  0.00  0.00    +0.000 A 
ATOM      7  C   UNL     1      46.706   6.960  11.353  0.00  0.00    +0.000 A 
BRANCH   2  13
ATOM      8  C   UNL     1      43.590   4.022  13.174  0.00  0.00    +0.000 C 
ATOM      9  C   UNL     1      43.020   4.144  11.757  0.00  0.00    +0.000 C 
ATOM     10  C   UNL     1      43.618   3.094  10.805  0.00  0.00    +0.000 C 
ATOM     11  C   UNL     1      45.069   3.400  10.424  0.00  0.00    +0.000 C 
ATOM     12  C   UNL     1      45.241   4.837   9.921  0.00  0.00    +0.000 C 
ATOM     13  N   UNL     1      44.660   5.748  10.903  0.00  0.00    +0.000 N 
ATOM     14  C   UNL     1      43.236   5.552  11.187  0.00  0.00    +0.000 C 
ENDBRANCH   2  13
ENDBRANCH   1   6
BRANCH   1  15
ATOM     15  C   UNL     1      49.478   7.169  12.874  0.00  0.00    +0.000 C 
BRANCH  15  16
ATOM     16  O   UNL     1      49.074   7.644  14.165  0.00  0.00    +0.000 OA
BRANCH  16  17
ATOM     17  C   UNL     1      48.698   6.673  15.058  0.00  0.00    +0.000 A 
ATOM     18  C   UNL     1      49.208   6.529  16.350  0.00  0.00    +0.000 A 
ATOM     19  C   UNL     1      48.756   5.501  17.176  0.00  0.00    +0.000 A 
ATOM     20  C   UNL     1      47.781   4.602  16.730  0.00  0.00    +0.000 A 
ATOM     21  C   UNL     1      47.270   4.736  15.433  0.00  0.00    +0.000 A 
ATOM     22  C   UNL     1      47.732   5.769  14.604  0.00  0.00    +0.000 A 
BRANCH  20  23
ATOM     23  C   UNL     1      47.358   3.530  17.664  0.00  0.00    +0.000 C 
ATOM     24  N   UNL     1      48.094   3.355  18.803  0.00  0.00    +0.000 N 
ATOM     25  O   UNL     1      46.411   2.794  17.414  0.00  0.00    +0.000 OA
ATOM     26  H   UNL     1      48.998   3.783  18.944  0.00  0.00    +0.000 HD
ATOM     27  H   UNL     1      47.859   2.546  19.363  0.00  0.00    +0.000 HD
ENDBRANCH  20  23
ENDBRANCH  16  17
ENDBRANCH  15  16
ENDBRANCH   1  15
TORSDOF 6
ENDMDL
MODEL 7
REMARK VINA RESULT:    -6.427      4.070      8.314
REMARK INTER + INTRA:          -9.714
REMARK INTER:                  -8.830
REMARK INTRA:                  -0.884
REMARK UNBOUND:                -1.033
REMARK  Name = 
REMARK  7 active torsions:
REMARK  status: ('A' for Active; 'I' for Inactive)
REMARK    1  A    between atoms: C_1  and  C_2
REMARK    2  A    between atoms: N_6  and  C_7
REMARK    3  A    between atoms: C_11  and  C_12
REMARK    4  A    between atoms: C_12  and  C_13
REMARK    5  A    between atoms: C_13  and  O_14
REMARK    6  A    between atoms: O_14  and  C_15
REMARK    7  A    between atoms: C_18  and  C_19
REMARK                            x       y       z     vdW  Elec       q    Type
REMARK                         _______ _______ _______ _____ _____    ______ ____
ROOT
ATOM      1  C   UNL     1      48.972   6.812  15.109  0.00  0.00    +0.000 C 
ENDROOT
BRANCH   1   6
ATOM      2  C   UNL     1      46.316   6.189  12.413  0.00  0.00    +0.000 A 
ATOM      3  C   UNL     1      46.264   7.453  11.817  0.00  0.00    +0.000 A 
ATOM      4  C   UNL     1      47.073   8.504  12.264  0.00  0.00    +0.000 A 
ATOM      5  C   UNL     1      47.955   8.310  13.325  0.00  0.00    +0.000 A 
ATOM      6  C   UNL     1      48.041   7.061  13.946  0.00  0.00    +0.000 A 
ATOM      7  C   UNL     1      47.223   6.024  13.475  0.00  0.00    +0.000 A 
BRANCH   2  13
ATOM      8  C   UNL     1      42.623   5.847  11.488  0.00  0.00    +0.000 C 
ATOM      9  C   UNL     1      43.441   4.761  10.780  0.00  0.00    +0.000 C 
ATOM     10  C   UNL     1      43.326   3.401  11.490  0.00  0.00    +0.000 C 
ATOM     11  C   UNL     1      44.101   3.356  12.810  0.00  0.00    +0.000 C 
ATOM     12  C   UNL     1      45.549   3.827  12.643  0.00  0.00    +0.000 C 
ATOM     13  N   UNL     1      45.543   5.128  11.981  0.00  0.00    +0.000 N 
ATOM     14  C   UNL     1      44.916   5.164  10.657  0.00  0.00    +0.000 C 
ENDBRANCH   2  13
ENDBRANCH   1   6
BRANCH   1  15
ATOM     15  C   UNL     1      48.380   5.856  16.142  0.00  0.00    +0.000 C 
BRANCH  15  16
ATOM     16  O   UNL     1      49.219   5.814  17.304  0.00  0.00    +0.000 OA
BRANCH  16  17
ATOM     17  C   UNL     1      50.003   4.695  17.424  0.00  0.00    +0.000 A 
ATOM     18  C   UNL     1      51.387   4.700  17.610  0.00  0.00    +0.000 A 
ATOM     19  C   UNL     1      52.090   3.501  17.717  0.00  0.00    +0.000 A 
ATOM     20  C   UNL     1      51.422   2.273  17.645  0.00  0.00    +0.000 A 
ATOM     21  C   UNL     1      50.035   2.260  17.451  0.00  0.00    +0.000 A 
ATOM     22  C   UNL     1      49.333   3.469  17.339  0.00  0.00    +0.000 A 
BRANCH  20  23
ATOM     23  C   UNL     1      52.240   1.040  17.758  0.00  0.00    +0.000 C 
ATOM     24  N   UNL     1      51.625  -0.086  18.230  0.00  0.00    +0.000 N 
ATOM     25  O   UNL     1      53.434   1.031  17.484  0.00  0.00    +0.000 OA
ATOM     26  H   UNL     1      50.717  -0.073  18.670  0.00  0.00    +0.000 HD
ATOM     27  H   UNL     1      52.229  -0.878  18.409  0.00  0.00    +0.000 HD
ENDBRANCH  20  23
ENDBRANCH  16  17
ENDBRANCH  15  16
ENDBRANCH   1  15
TORSDOF 6
ENDMDL
MODEL 8
REMARK VINA RESULT:    -6.137      2.963      4.505
REMARK INTER + INTRA:          -9.322
REMARK INTER:                  -8.059
REMARK INTRA:                  -1.263
REMARK UNBOUND:                -1.033
REMARK  Name = 
REMARK  7 active torsions:
REMARK  status: ('A' for Active; 'I' for Inactive)
REMARK    1  A    between atoms: C_1  and  C_2
REMARK    2  A    between atoms: N_6  and  C_7
REMARK    3  A    between atoms: C_11  and  C_12
REMARK    4  A    between atoms: C_12  and  C_13
REMARK    5  A    between atoms: C_13  and  O_14
REMARK    6  A    between atoms: O_14  and  C_15
REMARK    7  A    between atoms: C_18  and  C_19
REMARK                            x       y       z     vdW  Elec       q    Type
REMARK                         _______ _______ _______ _____ _____    ______ ____
ROOT
ATOM      1  C   UNL     1      48.994   8.953  13.531  0.00  0.00    +0.000 C 
ENDROOT
BRANCH   1   6
ATOM      2  C   UNL     1      49.772   6.296  16.187  0.00  0.00    +0.000 A 
ATOM      3  C   UNL     1      51.151   6.482  16.328  0.00  0.00    +0.000 A 
ATOM      4  C   UNL     1      51.836   7.452  15.587  0.00  0.00    +0.000 A 
ATOM      5  C   UNL     1      51.151   8.259  14.681  0.00  0.00    +0.000 A 
ATOM      6  C   UNL     1      49.772   8.109  14.512  0.00  0.00    +0.000 A 
ATOM      7  C   UNL     1      49.109   7.134  15.272  0.00  0.00    +0.000 A 
BRANCH   2  13
ATOM      8  C   UNL     1      50.579   2.757  17.381  0.00  0.00    +0.000 C 
ATOM      9  C   UNL     1      49.520   3.386  18.292  0.00  0.00    +0.000 C 
ATOM     10  C   UNL     1      48.105   2.885  17.959  0.00  0.00    +0.000 C 
ATOM     11  C   UNL     1      47.563   3.469  16.652  0.00  0.00    +0.000 C 
ATOM     12  C   UNL     1      47.687   4.995  16.609  0.00  0.00    +0.000 C 
ATOM     13  N   UNL     1      49.066   5.360  16.918  0.00  0.00    +0.000 N 
ATOM     14  C   UNL     1      49.563   4.918  18.223  0.00  0.00    +0.000 C 
ENDBRANCH   2  13
ENDBRANCH   1   6
BRANCH   1  15
ATOM     15  C   UNL     1      48.241   8.113  12.501  0.00  0.00    +0.000 C 
BRANCH  15  16
ATOM     16  O   UNL     1      46.844   8.087  12.821  0.00  0.00    +0.000 OA
BRANCH  16  17
ATOM     17  C   UNL     1      46.200   6.906  12.549  0.00  0.00    +0.000 A 
ATOM     18  C   UNL     1      46.390   5.709  13.242  0.00  0.00    +0.000 A 
ATOM     19  C   UNL     1      45.683   4.563  12.880  0.00  0.00    +0.000 A 
ATOM     20  C   UNL     1      44.768   4.594  11.822  0.00  0.00    +0.000 A 
ATOM     21  C   UNL     1      44.577   5.790  11.117  0.00  0.00    +0.000 A 
ATOM     22  C   UNL     1      45.294   6.938  11.483  0.00  0.00    +0.000 A 
BRANCH  20  23
ATOM     23  C   UNL     1      44.061   3.333  11.491  0.00  0.00    +0.000 C 
ATOM     24  N   UNL     1      43.862   2.434  12.501  0.00  0.00    +0.000 N 
ATOM     25  O   UNL     1      43.704   3.075  10.347  0.00  0.00    +0.000 OA
ATOM     26  H   UNL     1      44.325   2.501  13.396  0.00  0.00    +0.000 HD
ATOM     27  H   UNL     1      43.486   1.535  12.228  0.00  0.00    +0.000 HD
ENDBRANCH  20  23
ENDBRANCH  16  17
ENDBRANCH  15  16
ENDBRANCH   1  15
TORSDOF 6
ENDMDL
MODEL 9
REMARK VINA RESULT:    -6.120      2.770      4.271
REMARK INTER + INTRA:          -9.299
REMARK INTER:                  -8.208
REMARK INTRA:                  -1.091
REMARK UNBOUND:                -1.033
REMARK  Name = 
REMARK  7 active torsions:
REMARK  status: ('A' for Active; 'I' for Inactive)
REMARK    1  A    between atoms: C_1  and  C_2
REMARK    2  A    between atoms: N_6  and  C_7
REMARK    3  A    between atoms: C_11  and  C_12
REMARK    4  A    between atoms: C_12  and  C_13
REMARK    5  A    between atoms: C_13  and  O_14
REMARK    6  A    between atoms: O_14  and  C_15
REMARK    7  A    between atoms: C_18  and  C_19
REMARK                            x       y       z     vdW  Elec       q    Type
REMARK                         _______ _______ _______ _____ _____    ______ ____
ROOT
ATOM      1  C   UNL     1      49.197   7.306  12.949  0.00  0.00    +0.000 C 
ENDROOT
BRANCH   1   6
ATOM      2  C   UNL     1      48.992   7.123  16.775  0.00  0.00    +0.000 A 
ATOM      3  C   UNL     1      48.695   8.456  17.072  0.00  0.00    +0.000 A 
ATOM      4  C   UNL     1      48.555   9.416  16.062  0.00  0.00    +0.000 A 
ATOM      5  C   UNL     1      48.712   9.057  14.726  0.00  0.00    +0.000 A 
ATOM      6  C   UNL     1      49.004   7.734  14.384  0.00  0.00    +0.000 A 
ATOM      7  C   UNL     1      49.134   6.792  15.415  0.00  0.00    +0.000 A 
BRANCH   2  13
ATOM      8  C   UNL     1      47.390   3.688  17.267  0.00  0.00    +0.000 C 
ATOM      9  C   UNL     1      48.735   3.745  17.998  0.00  0.00    +0.000 C 
ATOM     10  C   UNL     1      48.558   3.976  19.509  0.00  0.00    +0.000 C 
ATOM     11  C   UNL     1      48.129   5.408  19.842  0.00  0.00    +0.000 C 
ATOM     12  C   UNL     1      49.034   6.449  19.175  0.00  0.00    +0.000 C 
ATOM     13  N   UNL     1      49.117   6.151  17.749  0.00  0.00    +0.000 N 
ATOM     14  C   UNL     1      49.647   4.829  17.406  0.00  0.00    +0.000 C 
ENDBRANCH   2  13
ENDBRANCH   1   6
BRANCH   1  15
ATOM     15  C   UNL     1      48.002   7.657  12.065  0.00  0.00    +0.000 C 
BRANCH  15  16
ATOM     16  O   UNL     1      46.781   7.361  12.756  0.00  0.00    +0.000 OA
BRANCH  16  17
ATOM     17  C   UNL     1      46.077   6.287  12.273  0.00  0.00    +0.000 A 
ATOM     18  C   UNL     1      45.282   6.300  11.125  0.00  0.00    +0.000 A 
ATOM     19  C   UNL     1      44.604   5.149  10.723  0.00  0.00    +0.000 A 
ATOM     20  C   UNL     1      44.713   3.963  11.457  0.00  0.00    +0.000 A 
ATOM     21  C   UNL     1      45.503   3.945  12.614  0.00  0.00    +0.000 A 
ATOM     22  C   UNL     1      46.179   5.107  13.016  0.00  0.00    +0.000 A 
BRANCH  20  23
ATOM     23  C   UNL     1      43.955   2.784  10.971  0.00  0.00    +0.000 C 
ATOM     24  N   UNL     1      44.462   2.103   9.900  0.00  0.00    +0.000 N 
ATOM     25  O   UNL     1      42.890   2.450  11.476  0.00  0.00    +0.000 OA
ATOM     26  H   UNL     1      45.207   2.463   9.321  0.00  0.00    +0.000 HD
ATOM     27  H   UNL     1      43.870   1.378   9.515  0.00  0.00    +0.000 HD
ENDBRANCH  20  23
ENDBRANCH  16  17
ENDBRANCH  15  16
ENDBRANCH   1  15
TORSDOF 6
ENDMDL
