MODEL 1
REMARK VINA RESULT:    -8.090      0.000      0.000
REMARK INTER + INTRA:         -10.633
REMARK INTER:                  -9.981
REMARK INTRA:                  -0.652
REMARK UNBOUND:                -0.652
REMARK  Name = 
REMARK  4 active torsions:
REMARK  status: ('A' for Active; 'I' for Inactive)
REMARK    1  A    between atoms: C_4  and  C_5
REMARK    2  A    between atoms: C_5  and  N_6
REMARK    3  A    between atoms: C_9  and  C_10
REMARK    4  A    between atoms: C_18  and  C_19
REMARK                            x       y       z     vdW  Elec       q    Type
REMARK                         _______ _______ _______ _____ _____    ______ ____
ROOT
ATOM      1  F   UNL     1      46.355   4.308  15.160  0.00  0.00    +0.000 F 
ATOM      2  C   UNL     1      46.576   5.070  14.080  0.00  0.00    +0.000 A 
ATOM      3  C   UNL     1      45.622   5.123  13.075  0.00  0.00    +0.000 A 
ATOM      4  C   UNL     1      45.862   5.898  11.937  0.00  0.00    +0.000 A 
ATOM      5  C   UNL     1      47.056   6.642  11.858  0.00  0.00    +0.000 A 
ATOM      6  C   UNL     1      48.041   6.591  12.867  0.00  0.00    +0.000 A 
ATOM      7  C   UNL     1      47.770   5.780  13.983  0.00  0.00    +0.000 A 
ENDROOT
BRANCH   6   8
ATOM      8  C   UNL     1      49.315   7.337  12.751  0.00  0.00    +0.000 A 
ATOM      9  C   UNL     1      49.862   7.699  11.511  0.00  0.00    +0.000 A 
ATOM     10  C   UNL     1      51.051   8.426  11.437  0.00  0.00    +0.000 A 
ATOM     11  C   UNL     1      51.684   8.770  12.616  0.00  0.00    +0.000 A 
ATOM     12  N   UNL     1      51.213   8.443  13.834  0.00  0.00    +0.000 NA
ATOM     13  C   UNL     1      50.048   7.747  13.869  0.00  0.00    +0.000 A 
ENDBRANCH   6   8
BRANCH   4  14
ATOM     14  C   UNL     1      44.863   5.928  10.804  0.00  0.00    +0.000 C 
BRANCH  14  15
ATOM     15  N   UNL     1      45.542   5.711   9.534  0.00  0.00    +0.000 N 
ATOM     16  C   UNL     1      45.594   4.355   9.161  0.00  0.00    +0.000 A 
ATOM     17  C   UNL     1      46.221   4.019   7.965  0.00  0.00    +0.000 A 
ATOM     18  C   UNL     1      46.274   2.677   7.561  0.00  0.00    +0.000 A 
ATOM     19  C   UNL     1      45.685   1.711   8.380  0.00  0.00    +0.000 A 
ATOM     20  C   UNL     1      45.071   2.129   9.543  0.00  0.00    +0.000 A 
ATOM     21  N   UNL     1      45.012   3.419   9.935  0.00  0.00    +0.000 NA
ATOM     22  H   UNL     1      46.481   6.097   9.533  0.00  0.00    +0.000 HD
BRANCH  18  23
ATOM     23  C   UNL     1      46.941   2.266   6.279  0.00  0.00    +0.000 C 
ATOM     24  F   UNL     1      48.239   2.668   6.182  0.00  0.00    +0.000 F 
ATOM     25  F   UNL     1      46.958   0.913   6.117  0.00  0.00    +0.000 F 
ATOM     26  F   UNL     1      46.311   2.764   5.181  0.00  0.00    +0.000 F 
ENDBRANCH  18  23
ENDBRANCH  14  15
ENDBRANCH   4  14
TORSDOF 4
ENDMDL
MODEL 2
REMARK VINA RESULT:    -7.839      2.466      3.492
REMARK INTER + INTRA:         -10.324
REMARK INTER:                  -9.607
REMARK INTRA:                  -0.717
REMARK UNBOUND:                -0.652
REMARK  Name = 
REMARK  4 active torsions:
REMARK  status: ('A' for Active; 'I' for Inactive)
REMARK    1  A    between atoms: C_4  and  C_5
REMARK    2  A    between atoms: C_5  and  N_6
REMARK    3  A    between atoms: C_9  and  C_10
REMARK    4  A    between atoms: C_18  and  C_19
REMARK                            x       y       z     vdW  Elec       q    Type
REMARK                         _______ _______ _______ _____ _____    ______ ____
ROOT
ATOM      1  F   UNL     1      47.264   9.472  13.100  0.00  0.00    +0.000 F 
ATOM      2  C   UNL     1      46.913   8.183  12.986  0.00  0.00    +0.000 A 
ATOM      3  C   UNL     1      46.079   7.792  11.949  0.00  0.00    +0.000 A 
ATOM      4  C   UNL     1      45.693   6.454  11.842  0.00  0.00    +0.000 A 
ATOM      5  C   UNL     1      46.196   5.522  12.772  0.00  0.00    +0.000 A 
ATOM      6  C   UNL     1      47.037   5.906  13.838  0.00  0.00    +0.000 A 
ATOM      7  C   UNL     1      47.381   7.266  13.923  0.00  0.00    +0.000 A 
ENDROOT
BRANCH   6   8
ATOM      8  C   UNL     1      47.520   4.927  14.840  0.00  0.00    +0.000 A 
ATOM      9  C   UNL     1      48.052   5.320  16.077  0.00  0.00    +0.000 A 
ATOM     10  C   UNL     1      48.472   4.372  17.010  0.00  0.00    +0.000 A 
ATOM     11  C   UNL     1      48.365   3.034  16.680  0.00  0.00    +0.000 A 
ATOM     12  N   UNL     1      47.872   2.597  15.506  0.00  0.00    +0.000 NA
ATOM     13  C   UNL     1      47.461   3.546  14.627  0.00  0.00    +0.000 A 
ENDBRANCH   6   8
BRANCH   4  14
ATOM     14  C   UNL     1      44.741   6.015  10.754  0.00  0.00    +0.000 C 
BRANCH  14  15
ATOM     15  N   UNL     1      45.475   5.759   9.522  0.00  0.00    +0.000 N 
ATOM     16  C   UNL     1      45.521   4.395   9.181  0.00  0.00    +0.000 A 
ATOM     17  C   UNL     1      46.197   4.023   8.023  0.00  0.00    +0.000 A 
ATOM     18  C   UNL     1      46.246   2.671   7.650  0.00  0.00    +0.000 A 
ATOM     19  C   UNL     1      45.603   1.734   8.460  0.00  0.00    +0.000 A 
ATOM     20  C   UNL     1      44.942   2.186   9.584  0.00  0.00    +0.000 A 
ATOM     21  N   UNL     1      44.887   3.485   9.945  0.00  0.00    +0.000 NA
ATOM     22  H   UNL     1      46.419   6.130   9.557  0.00  0.00    +0.000 HD
BRANCH  18  23
ATOM     23  C   UNL     1      46.965   2.222   6.410  0.00  0.00    +0.000 C 
ATOM     24  F   UNL     1      46.968   0.871   6.235  0.00  0.00    +0.000 F 
ATOM     25  F   UNL     1      46.415   2.743   5.278  0.00  0.00    +0.000 F 
ATOM     26  F   UNL     1      48.271   2.604   6.398  0.00  0.00    +0.000 F 
ENDBRANCH  18  23
ENDBRANCH  14  15
ENDBRANCH   4  14
TORSDOF 4
ENDMDL
MODEL 3
REMARK VINA RESULT:    -7.739      3.201      6.969
REMARK INTER + INTRA:         -10.201
REMARK INTER:                  -9.602
REMARK INTRA:                  -0.599
REMARK UNBOUND:                -0.652
REMARK  Name = 
REMARK  4 active torsions:
REMARK  status: ('A' for Active; 'I' for Inactive)
REMARK    1  A    between atoms: C_4  and  C_5
REMARK    2  A    between atoms: C_5  and  N_6
REMARK    3  A    between atoms: C_9  and  C_10
REMARK    4  A    between atoms: C_18  and  C_19
REMARK                            x       y       z     vdW  Elec       q    Type
REMARK                         _______ _______ _______ _____ _____    ______ ____
ROOT
ATOM      1  F   UNL     1      42.836   1.573  11.646  0.00  0.00    +0.000 F 
ATOM      2  C   UNL     1      43.591   2.490  11.027  0.00  0.00    +0.000 A 
ATOM      3  C   UNL     1      43.599   3.796  11.495  0.00  0.00    +0.000 A 
ATOM      4  C   UNL     1      44.367   4.759  10.837  0.00  0.00    +0.000 A 
ATOM      5  C   UNL     1      45.152   4.370   9.733  0.00  0.00    +0.000 A 
ATOM      6  C   UNL     1      45.147   3.048   9.239  0.00  0.00    +0.000 A 
ATOM      7  C   UNL     1      44.342   2.116   9.916  0.00  0.00    +0.000 A 
ENDROOT
BRANCH   6   8
ATOM      8  C   UNL     1      45.936   2.660   8.047  0.00  0.00    +0.000 A 
ATOM      9  C   UNL     1      46.143   3.531   6.968  0.00  0.00    +0.000 A 
ATOM     10  C   UNL     1      46.915   3.144   5.872  0.00  0.00    +0.000 A 
ATOM     11  C   UNL     1      47.460   1.874   5.869  0.00  0.00    +0.000 A 
ATOM     12  N   UNL     1      47.289   0.991   6.871  0.00  0.00    +0.000 NA
ATOM     13  C   UNL     1      46.543   1.405   7.927  0.00  0.00    +0.000 A 
ENDBRANCH   6   8
BRANCH   4  14
ATOM     14  C   UNL     1      44.348   6.200  11.294  0.00  0.00    +0.000 C 
BRANCH  14  15
ATOM     15  N   UNL     1      45.541   6.890  10.823  0.00  0.00    +0.000 N 
ATOM     16  C   UNL     1      46.608   6.832  11.738  0.00  0.00    +0.000 A 
ATOM     17  C   UNL     1      47.806   7.458  11.402  0.00  0.00    +0.000 A 
ATOM     18  C   UNL     1      48.891   7.404  12.288  0.00  0.00    +0.000 A 
ATOM     19  C   UNL     1      48.735   6.712  13.491  0.00  0.00    +0.000 A 
ATOM     20  C   UNL     1      47.520   6.107  13.743  0.00  0.00    +0.000 A 
ATOM     21  N   UNL     1      46.473   6.152  12.892  0.00  0.00    +0.000 NA
ATOM     22  H   UNL     1      45.352   7.859  10.585  0.00  0.00    +0.000 HD
BRANCH  18  23
ATOM     23  C   UNL     1      50.202   8.065  11.969  0.00  0.00    +0.000 C 
ATOM     24  F   UNL     1      51.019   8.215  13.049  0.00  0.00    +0.000 F 
ATOM     25  F   UNL     1      50.924   7.363  11.052  0.00  0.00    +0.000 F 
ATOM     26  F   UNL     1      50.043   9.310  11.444  0.00  0.00    +0.000 F 
ENDBRANCH  18  23
ENDBRANCH  14  15
ENDBRANCH   4  14
TORSDOF 4
ENDMDL
MODEL 4
REMARK VINA RESULT:    -7.739      3.204      7.599
REMARK INTER + INTRA:         -10.201
REMARK INTER:                  -9.497
REMARK INTRA:                  -0.704
REMARK UNBOUND:                -0.652
REMARK  Name = 
REMARK  4 active torsions:
REMARK  status: ('A' for Active; 'I' for Inactive)
REMARK    1  A    between atoms: C_4  and  C_5
REMARK    2  A    between atoms: C_5  and  N_6
REMARK    3  A    between atoms: C_9  and  C_10
REMARK    4  A    between atoms: C_18  and  C_19
REMARK                            x       y       z     vdW  Elec       q    Type
REMARK                         _______ _______ _______ _____ _____    ______ ____
ROOT
ATOM      1  F   UNL     1      42.838   2.041  11.667  0.00  0.00    +0.000 F 
ATOM      2  C   UNL     1      43.701   2.861  11.051  0.00  0.00    +0.000 A 
ATOM      3  C   UNL     1      43.892   4.144  11.541  0.00  0.00    +0.000 A 
ATOM      4  C   UNL     1      44.773   5.008  10.886  0.00  0.00    +0.000 A 
ATOM      5  C   UNL     1      45.481   4.538   9.762  0.00  0.00    +0.000 A 
ATOM      6  C   UNL     1      45.290   3.238   9.245  0.00  0.00    +0.000 A 
ATOM      7  C   UNL     1      44.376   2.411   9.920  0.00  0.00    +0.000 A 
ENDROOT
BRANCH   6   8
ATOM      8  C   UNL     1      46.000   2.771   8.033  0.00  0.00    +0.000 A 
ATOM      9  C   UNL     1      46.226   3.605   6.927  0.00  0.00    +0.000 A 
ATOM     10  C   UNL     1      46.924   3.141   5.811  0.00  0.00    +0.000 A 
ATOM     11  C   UNL     1      47.374   1.834   5.815  0.00  0.00    +0.000 A 
ATOM     12  N   UNL     1      47.180   0.986   6.841  0.00  0.00    +0.000 NA
ATOM     13  C   UNL     1      46.509   1.473   7.916  0.00  0.00    +0.000 A 
ENDBRANCH   6   8
BRANCH   4  14
ATOM     14  C   UNL     1      44.956   6.429  11.369  0.00  0.00    +0.000 C 
BRANCH  14  15
ATOM     15  N   UNL     1      45.570   6.432  12.690  0.00  0.00    +0.000 N 
ATOM     16  C   UNL     1      46.925   6.808  12.667  0.00  0.00    +0.000 A 
ATOM     17  C   UNL     1      47.624   6.847  13.870  0.00  0.00    +0.000 A 
ATOM     18  C   UNL     1      48.972   7.233  13.878  0.00  0.00    +0.000 A 
ATOM     19  C   UNL     1      49.575   7.574  12.666  0.00  0.00    +0.000 A 
ATOM     20  C   UNL     1      48.809   7.523  11.519  0.00  0.00    +0.000 A 
ATOM     21  N   UNL     1      47.510   7.157  11.505  0.00  0.00    +0.000 NA
ATOM     22  H   UNL     1      45.476   5.534  13.156  0.00  0.00    +0.000 HD
BRANCH  18  23
ATOM     23  C   UNL     1      49.768   7.289  15.152  0.00  0.00    +0.000 C 
ATOM     24  F   UNL     1      51.116   7.287  14.958  0.00  0.00    +0.000 F 
ATOM     25  F   UNL     1      49.498   8.409  15.879  0.00  0.00    +0.000 F 
ATOM     26  F   UNL     1      49.505   6.238  15.976  0.00  0.00    +0.000 F 
ENDBRANCH  18  23
ENDBRANCH  14  15
ENDBRANCH   4  14
TORSDOF 4
ENDMDL
MODEL 5
REMARK VINA RESULT:    -7.657      2.099      2.698
REMARK INTER + INTRA:         -10.099
REMARK INTER:                  -9.519
REMARK INTRA:                  -0.580
REMARK UNBOUND:                -0.652
REMARK  Name = 
REMARK  4 active torsions:
REMARK  status: ('A' for Active; 'I' for Inactive)
REMARK    1  A    between atoms: C_4  and  C_5
REMARK    2  A    between atoms: C_5  and  N_6
REMARK    3  A    between atoms: C_9  and  C_10
REMARK    4  A    between atoms: C_18  and  C_19
REMARK                            x       y       z     vdW  Elec       q    Type
REMARK                         _______ _______ _______ _____ _____    ______ ____
ROOT
ATOM      1  F   UNL     1      44.936  10.639  12.169  0.00  0.00    +0.000 F 
ATOM      2  C   UNL     1      45.419   9.390  12.217  0.00  0.00    +0.000 A 
ATOM      3  C   UNL     1      44.830   8.400  11.444  0.00  0.00    +0.000 A 
ATOM      4  C   UNL     1      45.317   7.093  11.512  0.00  0.00    +0.000 A 
ATOM      5  C   UNL     1      46.427   6.819  12.336  0.00  0.00    +0.000 A 
ATOM      6  C   UNL     1      47.030   7.812  13.136  0.00  0.00    +0.000 A 
ATOM      7  C   UNL     1      46.493   9.109  13.057  0.00  0.00    +0.000 A 
ENDROOT
BRANCH   6   8
ATOM      8  C   UNL     1      48.163   7.503  14.038  0.00  0.00    +0.000 A 
ATOM      9  C   UNL     1      49.271   8.354  14.170  0.00  0.00    +0.000 A 
ATOM     10  C   UNL     1      50.310   8.047  15.050  0.00  0.00    +0.000 A 
ATOM     11  C   UNL     1      50.227   6.876  15.779  0.00  0.00    +0.000 A 
ATOM     12  N   UNL     1      49.195   6.017  15.688  0.00  0.00    +0.000 NA
ATOM     13  C   UNL     1      48.196   6.353  14.832  0.00  0.00    +0.000 A 
ENDBRANCH   6   8
BRANCH   4  14
ATOM     14  C   UNL     1      44.657   5.986  10.721  0.00  0.00    +0.000 C 
BRANCH  14  15
ATOM     15  N   UNL     1      45.419   5.714   9.510  0.00  0.00    +0.000 N 
ATOM     16  C   UNL     1      45.457   4.348   9.178  0.00  0.00    +0.000 A 
ATOM     17  C   UNL     1      46.159   3.960   8.040  0.00  0.00    +0.000 A 
ATOM     18  C   UNL     1      46.200   2.606   7.677  0.00  0.00    +0.000 A 
ATOM     19  C   UNL     1      45.524   1.681   8.475  0.00  0.00    +0.000 A 
ATOM     20  C   UNL     1      44.839   2.149   9.578  0.00  0.00    +0.000 A 
ATOM     21  N   UNL     1      44.792   3.451   9.931  0.00  0.00    +0.000 NA
ATOM     22  H   UNL     1      46.368   6.074   9.568  0.00  0.00    +0.000 HD
BRANCH  18  23
ATOM     23  C   UNL     1      46.946   2.140   6.458  0.00  0.00    +0.000 C 
ATOM     24  F   UNL     1      46.976   0.786   6.318  0.00  0.00    +0.000 F 
ATOM     25  F   UNL     1      46.403   2.622   5.306  0.00  0.00    +0.000 F 
ATOM     26  F   UNL     1      48.245   2.547   6.456  0.00  0.00    +0.000 F 
ENDBRANCH  18  23
ENDBRANCH  14  15
ENDBRANCH   4  14
TORSDOF 4
ENDMDL
MODEL 6
REMARK VINA RESULT:    -7.637      2.268      2.989
REMARK INTER + INTRA:         -10.075
REMARK INTER:                  -9.816
REMARK INTRA:                  -0.260
REMARK UNBOUND:                -0.652
REMARK  Name = 
REMARK  4 active torsions:
REMARK  status: ('A' for Active; 'I' for Inactive)
REMARK    1  A    between atoms: C_4  and  C_5
REMARK    2  A    between atoms: C_5  and  N_6
REMARK    3  A    between atoms: C_9  and  C_10
REMARK    4  A    between atoms: C_18  and  C_19
REMARK                            x       y       z     vdW  Elec       q    Type
REMARK                         _______ _______ _______ _____ _____    ______ ____
ROOT
ATOM      1  F   UNL     1      47.500   4.041  14.870  0.00  0.00    +0.000 F 
ATOM      2  C   UNL     1      46.672   4.625  13.993  0.00  0.00    +0.000 A 
ATOM      3  C   UNL     1      45.691   3.868  13.371  0.00  0.00    +0.000 A 
ATOM      4  C   UNL     1      44.843   4.470  12.439  0.00  0.00    +0.000 A 
ATOM      5  C   UNL     1      44.980   5.848  12.182  0.00  0.00    +0.000 A 
ATOM      6  C   UNL     1      45.979   6.631  12.799  0.00  0.00    +0.000 A 
ATOM      7  C   UNL     1      46.827   5.980  13.712  0.00  0.00    +0.000 A 
ENDROOT
BRANCH   6   8
ATOM      8  C   UNL     1      46.147   8.068  12.484  0.00  0.00    +0.000 A 
ATOM      9  C   UNL     1      47.314   8.776  12.809  0.00  0.00    +0.000 A 
ATOM     10  C   UNL     1      47.451  10.124  12.474  0.00  0.00    +0.000 A 
ATOM     11  C   UNL     1      46.403  10.749  11.825  0.00  0.00    +0.000 A 
ATOM     12  N   UNL     1      45.257  10.124  11.495  0.00  0.00    +0.000 NA
ATOM     13  C   UNL     1      45.162   8.811  11.825  0.00  0.00    +0.000 A 
ENDBRANCH   6   8
BRANCH   4  14
ATOM     14  C   UNL     1      43.803   3.652  11.707  0.00  0.00    +0.000 C 
BRANCH  14  15
ATOM     15  N   UNL     1      44.440   2.538  11.016  0.00  0.00    +0.000 N 
ATOM     16  C   UNL     1      45.052   2.917   9.808  0.00  0.00    +0.000 A 
ATOM     17  C   UNL     1      45.693   1.939   9.052  0.00  0.00    +0.000 A 
ATOM     18  C   UNL     1      46.325   2.292   7.851  0.00  0.00    +0.000 A 
ATOM     19  C   UNL     1      46.295   3.628   7.450  0.00  0.00    +0.000 A 
ATOM     20  C   UNL     1      45.650   4.539   8.262  0.00  0.00    +0.000 A 
ATOM     21  N   UNL     1      45.044   4.208   9.421  0.00  0.00    +0.000 NA
ATOM     22  H   UNL     1      43.790   1.777  10.841  0.00  0.00    +0.000 HD
BRANCH  18  23
ATOM     23  C   UNL     1      47.028   1.271   7.002  0.00  0.00    +0.000 C 
ATOM     24  F   UNL     1      46.784   1.403   5.669  0.00  0.00    +0.000 F 
ATOM     25  F   UNL     1      48.382   1.330   7.140  0.00  0.00    +0.000 F 
ATOM     26  F   UNL     1      46.677  -0.004   7.323  0.00  0.00    +0.000 F 
ENDBRANCH  18  23
ENDBRANCH  14  15
ENDBRANCH   4  14
TORSDOF 4
ENDMDL
MODEL 7
REMARK VINA RESULT:    -7.580      4.884      8.147
REMARK INTER + INTRA:         -10.004
REMARK INTER:                  -9.475
REMARK INTRA:                  -0.529
REMARK UNBOUND:                -0.652
REMARK  Name = 
REMARK  4 active torsions:
REMARK  status: ('A' for Active; 'I' for Inactive)
REMARK    1  A    between atoms: C_4  and  C_5
REMARK    2  A    between atoms: C_5  and  N_6
REMARK    3  A    between atoms: C_9  and  C_10
REMARK    4  A    between atoms: C_18  and  C_19
REMARK                            x       y       z     vdW  Elec       q    Type
REMARK                         _______ _______ _______ _____ _____    ______ ____
ROOT
ATOM      1  F   UNL     1      42.859   2.194  11.770  0.00  0.00    +0.000 F 
ATOM      2  C   UNL     1      43.668   3.033  11.108  0.00  0.00    +0.000 A 
ATOM      3  C   UNL     1      43.773   4.352  11.524  0.00  0.00    +0.000 A 
ATOM      4  C   UNL     1      44.597   5.233  10.820  0.00  0.00    +0.000 A 
ATOM      5  C   UNL     1      45.337   4.748   9.724  0.00  0.00    +0.000 A 
ATOM      6  C   UNL     1      45.234   3.412   9.282  0.00  0.00    +0.000 A 
ATOM      7  C   UNL     1      44.375   2.565  10.003  0.00  0.00    +0.000 A 
ENDROOT
BRANCH   6   8
ATOM      8  C   UNL     1      45.977   2.924   8.097  0.00  0.00    +0.000 A 
ATOM      9  C   UNL     1      46.273   3.752   7.004  0.00  0.00    +0.000 A 
ATOM     10  C   UNL     1      46.999   3.269   5.915  0.00  0.00    +0.000 A 
ATOM     11  C   UNL     1      47.409   1.949   5.933  0.00  0.00    +0.000 A 
ATOM     12  N   UNL     1      47.147   1.105   6.949  0.00  0.00    +0.000 NA
ATOM     13  C   UNL     1      46.450   1.612   7.997  0.00  0.00    +0.000 A 
ENDBRANCH   6   8
BRANCH   4  14
ATOM     14  C   UNL     1      44.683   6.688  11.221  0.00  0.00    +0.000 C 
BRANCH  14  15
ATOM     15  N   UNL     1      43.419   7.358  10.947  0.00  0.00    +0.000 N 
ATOM     16  C   UNL     1      43.515   8.760  10.997  0.00  0.00    +0.000 A 
ATOM     17  C   UNL     1      42.370   9.514  10.755  0.00  0.00    +0.000 A 
ATOM     18  C   UNL     1      42.441  10.914  10.783  0.00  0.00    +0.000 A 
ATOM     19  C   UNL     1      43.673  11.514  11.053  0.00  0.00    +0.000 A 
ATOM     20  C   UNL     1      44.763  10.695  11.268  0.00  0.00    +0.000 A 
ATOM     21  N   UNL     1      44.703   9.348  11.238  0.00  0.00    +0.000 NA
ATOM     22  H   UNL     1      42.680   7.047  11.571  0.00  0.00    +0.000 HD
BRANCH  18  23
ATOM     23  C   UNL     1      41.232  11.769  10.529  0.00  0.00    +0.000 C 
ATOM     24  F   UNL     1      41.460  12.804   9.674  0.00  0.00    +0.000 F 
ATOM     25  F   UNL     1      40.203  11.059   9.987  0.00  0.00    +0.000 F 
ATOM     26  F   UNL     1      40.739  12.326  11.669  0.00  0.00    +0.000 F 
ENDBRANCH  18  23
ENDBRANCH  14  15
ENDBRANCH   4  14
TORSDOF 4
ENDMDL
MODEL 8
REMARK VINA RESULT:    -7.557      2.582      3.574
REMARK INTER + INTRA:          -9.976
REMARK INTER:                  -9.779
REMARK INTRA:                  -0.197
REMARK UNBOUND:                -0.652
REMARK  Name = 
REMARK  4 active torsions:
REMARK  status: ('A' for Active; 'I' for Inactive)
REMARK    1  A    between atoms: C_4  and  C_5
REMARK    2  A    between atoms: C_5  and  N_6
REMARK    3  A    between atoms: C_9  and  C_10
REMARK    4  A    between atoms: C_18  and  C_19
REMARK                            x       y       z     vdW  Elec       q    Type
REMARK                         _______ _______ _______ _____ _____    ______ ____
ROOT
ATOM      1  F   UNL     1      45.848   8.674  11.771  0.00  0.00    +0.000 F 
ATOM      2  C   UNL     1      45.703   7.397  12.152  0.00  0.00    +0.000 A 
ATOM      3  C   UNL     1      44.770   6.596  11.511  0.00  0.00    +0.000 A 
ATOM      4  C   UNL     1      44.601   5.272  11.923  0.00  0.00    +0.000 A 
ATOM      5  C   UNL     1      45.415   4.768  12.956  0.00  0.00    +0.000 A 
ATOM      6  C   UNL     1      46.362   5.574  13.624  0.00  0.00    +0.000 A 
ATOM      7  C   UNL     1      46.483   6.906  13.196  0.00  0.00    +0.000 A 
ENDROOT
BRANCH   6   8
ATOM      8  C   UNL     1      47.178   5.050  14.744  0.00  0.00    +0.000 A 
ATOM      9  C   UNL     1      47.012   3.752  15.251  0.00  0.00    +0.000 A 
ATOM     10  C   UNL     1      47.816   3.279  16.288  0.00  0.00    +0.000 A 
ATOM     11  C   UNL     1      48.772   4.127  16.816  0.00  0.00    +0.000 A 
ATOM     12  N   UNL     1      48.972   5.384  16.378  0.00  0.00    +0.000 NA
ATOM     13  C   UNL     1      48.181   5.807  15.359  0.00  0.00    +0.000 A 
ENDBRANCH   6   8
BRANCH   4  14
ATOM     14  C   UNL     1      43.551   4.396  11.277  0.00  0.00    +0.000 C 
BRANCH  14  15
ATOM     15  N   UNL     1      44.151   3.146  10.829  0.00  0.00    +0.000 N 
ATOM     16  C   UNL     1      44.909   3.290   9.653  0.00  0.00    +0.000 A 
ATOM     17  C   UNL     1      45.532   2.163   9.122  0.00  0.00    +0.000 A 
ATOM     18  C   UNL     1      46.308   2.281   7.960  0.00  0.00    +0.000 A 
ATOM     19  C   UNL     1      46.435   3.539   7.368  0.00  0.00    +0.000 A 
ATOM     20  C   UNL     1      45.797   4.607   7.964  0.00  0.00    +0.000 A 
ATOM     21  N   UNL     1      45.054   4.503   9.085  0.00  0.00    +0.000 NA
ATOM     22  H   UNL     1      43.457   2.417  10.696  0.00  0.00    +0.000 HD
BRANCH  18  23
ATOM     23  C   UNL     1      46.997   1.093   7.350  0.00  0.00    +0.000 C 
ATOM     24  F   UNL     1      46.642   0.856   6.057  0.00  0.00    +0.000 F 
ATOM     25  F   UNL     1      48.352   1.230   7.344  0.00  0.00    +0.000 F 
ATOM     26  F   UNL     1      46.743  -0.061   8.026  0.00  0.00    +0.000 F 
ENDBRANCH  18  23
ENDBRANCH  14  15
ENDBRANCH   4  14
TORSDOF 4
ENDMDL
MODEL 9
REMARK VINA RESULT:    -7.240      3.904      8.282
REMARK INTER + INTRA:          -9.585
REMARK INTER:                  -9.072
REMARK INTRA:                  -0.512
REMARK UNBOUND:                -0.652
REMARK  Name = 
REMARK  4 active torsions:
REMARK  status: ('A' for Active; 'I' for Inactive)
REMARK    1  A    between atoms: C_4  and  C_5
REMARK    2  A    between atoms: C_5  and  N_6
REMARK    3  A    between atoms: C_9  and  C_10
REMARK    4  A    between atoms: C_18  and  C_19
REMARK                            x       y       z     vdW  Elec       q    Type
REMARK                         _______ _______ _______ _____ _____    ______ ____
ROOT
ATOM      1  F   UNL     1      41.765   5.412  11.427  0.00  0.00    +0.000 F 
ATOM      2  C   UNL     1      43.084   5.181  11.366  0.00  0.00    +0.000 A 
ATOM      3  C   UNL     1      43.907   5.653  12.377  0.00  0.00    +0.000 A 
ATOM      4  C   UNL     1      45.285   5.434  12.302  0.00  0.00    +0.000 A 
ATOM      5  C   UNL     1      45.801   4.699  11.216  0.00  0.00    +0.000 A 
ATOM      6  C   UNL     1      44.978   4.222  10.174  0.00  0.00    +0.000 A 
ATOM      7  C   UNL     1      43.601   4.485  10.276  0.00  0.00    +0.000 A 
ENDROOT
BRANCH   6   8
ATOM      8  C   UNL     1      45.537   3.495   9.011  0.00  0.00    +0.000 A 
ATOM      9  C   UNL     1      46.040   4.159   7.882  0.00  0.00    +0.000 A 
ATOM     10  C   UNL     1      46.586   3.445   6.815  0.00  0.00    +0.000 A 
ATOM     11  C   UNL     1      46.605   2.065   6.890  0.00  0.00    +0.000 A 
ATOM     12  N   UNL     1      46.129   1.373   7.941  0.00  0.00    +0.000 NA
ATOM     13  C   UNL     1      45.617   2.099   8.968  0.00  0.00    +0.000 A 
ENDBRANCH   6   8
BRANCH   4  14
ATOM     14  C   UNL     1      46.209   5.986  13.363  0.00  0.00    +0.000 C 
BRANCH  14  15
ATOM     15  N   UNL     1      46.356   5.024  14.447  0.00  0.00    +0.000 N 
ATOM     16  C   UNL     1      47.490   5.261  15.244  0.00  0.00    +0.000 A 
ATOM     17  C   UNL     1      47.741   4.406  16.314  0.00  0.00    +0.000 A 
ATOM     18  C   UNL     1      48.856   4.628  17.135  0.00  0.00    +0.000 A 
ATOM     19  C   UNL     1      49.685   5.716  16.853  0.00  0.00    +0.000 A 
ATOM     20  C   UNL     1      49.359   6.524  15.783  0.00  0.00    +0.000 A 
ATOM     21  N   UNL     1      48.285   6.319  14.992  0.00  0.00    +0.000 NA
ATOM     22  H   UNL     1      46.377   4.067  14.107  0.00  0.00    +0.000 HD
BRANCH  18  23
ATOM     23  C   UNL     1      49.168   3.731  18.299  0.00  0.00    +0.000 C 
ATOM     24  F   UNL     1      48.246   2.749  18.498  0.00  0.00    +0.000 F 
ATOM     25  F   UNL     1      50.364   3.095  18.153  0.00  0.00    +0.000 F 
ATOM     26  F   UNL     1      49.250   4.412  19.474  0.00  0.00    +0.000 F 
ENDBRANCH  18  23
ENDBRANCH  14  15
ENDBRANCH   4  14
TORSDOF 4
ENDMDL
