MODEL 1
REMARK VINA RESULT:    -8.470      0.000      0.000
REMARK INTER + INTRA:         -13.756
REMARK INTER:                 -12.431
REMARK INTRA:                  -1.325
REMARK UNBOUND:                -1.325
REMARK  Name = 
REMARK  9 active torsions:
REMARK  status: ('A' for Active; 'I' for Inactive)
REMARK    1  A    between atoms: C_1  and  C_2
REMARK    2  A    between atoms: C_3  and  C_4
REMARK    3  A    between atoms: C_9  and  C_10
REMARK    4  A    between atoms: N_12  and  C_13
REMARK    5  A    between atoms: C_13  and  C_14
REMARK    6  A    between atoms: C_17  and  C_18
REMARK    7  A    between atoms: C_18  and  N_19
REMARK    8  A    between atoms: N_19  and  C_20
REMARK    9  A    between atoms: C_20  and  C_21
REMARK                            x       y       z     vdW  Elec       q    Type
REMARK                         _______ _______ _______ _____ _____    ______ ____
ROOT
ATOM      1  C   UNL     1      48.345   6.832  14.221  0.00  0.00    +0.000 C 
ATOM      2  O   UNL     1      48.959   6.389  13.256  0.00  0.00    +0.000 OA
ATOM      3  N   UNL     1      47.275   7.684  14.085  0.00  0.00    +0.000 N 
ATOM      4  H   UNL     1      46.660   7.815  14.876  0.00  0.00    +0.000 HD
ENDROOT
BRANCH   1  10
ATOM      5  C   UNL     1      48.623   4.491  18.659  0.00  0.00    +0.000 A 
ATOM      6  N   UNL     1      47.828   3.424  18.400  0.00  0.00    +0.000 NA
ATOM      7  C   UNL     1      47.249   3.308  17.190  0.00  0.00    +0.000 A 
ATOM      8  C   UNL     1      47.412   4.208  16.148  0.00  0.00    +0.000 A 
ATOM      9  C   UNL     1      48.250   5.312  16.379  0.00  0.00    +0.000 A 
ATOM     10  C   UNL     1      48.662   6.447  15.595  0.00  0.00    +0.000 A 
ATOM     11  C   UNL     1      49.456   7.223  16.427  0.00  0.00    +0.000 A 
ATOM     12  N   UNL     1      49.564   6.602  17.637  0.00  0.00    +0.000 N 
ATOM     13  C   UNL     1      48.833   5.435  17.647  0.00  0.00    +0.000 A 
ATOM     14  H   UNL     1      50.087   6.961  18.423  0.00  0.00    +0.000 HD
BRANCH   5  17
ATOM     15  C   UNL     1      49.350   5.620  22.285  0.00  0.00    +0.000 C 
ATOM     16  C   UNL     1      48.741   5.459  20.931  0.00  0.00    +0.000 C 
ATOM     17  C   UNL     1      49.225   4.634  19.988  0.00  0.00    +0.000 C 
ENDBRANCH   5  17
ENDBRANCH   1  10
BRANCH   3  18
ATOM     18  C   UNL     1      46.796   8.057  12.775  0.00  0.00    +0.000 C 
BRANCH  18  19
ATOM     19  C   UNL     1      45.941   6.962  12.198  0.00  0.00    +0.000 A 
ATOM     20  C   UNL     1      44.891   6.421  12.946  0.00  0.00    +0.000 A 
ATOM     21  C   UNL     1      44.155   5.343  12.450  0.00  0.00    +0.000 A 
ATOM     22  C   UNL     1      44.434   4.792  11.189  0.00  0.00    +0.000 A 
ATOM     23  C   UNL     1      45.484   5.341  10.441  0.00  0.00    +0.000 A 
ATOM     24  C   UNL     1      46.230   6.415  10.941  0.00  0.00    +0.000 A 
BRANCH  22  25
ATOM     25  C   UNL     1      43.682   3.578  10.673  0.00  0.00    +0.000 C 
BRANCH  25  26
ATOM     26  N   UNL     1      44.568   2.429  10.532  0.00  0.00    +0.000 NA
ATOM     27  H   UNL     1      44.335   1.742  11.247  0.00  0.00    +0.000 HD
BRANCH  26  28
ATOM     28  C   UNL     1      44.535   1.812   9.212  0.00  0.00    +0.000 C 
BRANCH  28  29
ATOM     29  C   UNL     1      45.805   2.230   8.443  0.00  0.00    +0.000 C 
ATOM     30  C   UNL     1      45.499   3.306   7.382  0.00  0.00    +0.000 C 
ATOM     31  C   UNL     1      46.753   3.716   6.617  0.00  0.00    +0.000 C 
ATOM     32  C   UNL     1      47.443   2.511   5.987  0.00  0.00    +0.000 C 
ATOM     33  C   UNL     1      47.742   1.432   7.024  0.00  0.00    +0.000 C 
ATOM     34  C   UNL     1      46.486   1.018   7.790  0.00  0.00    +0.000 C 
ENDBRANCH  28  29
ENDBRANCH  26  28
ENDBRANCH  25  26
ENDBRANCH  22  25
ENDBRANCH  18  19
ENDBRANCH   3  18
TORSDOF 8
ENDMDL
MODEL 2
REMARK VINA RESULT:    -7.727      1.320      1.493
REMARK INTER + INTRA:         -12.666
REMARK INTER:                 -11.525
REMARK INTRA:                  -1.141
REMARK UNBOUND:                -1.325
REMARK  Name = 
REMARK  9 active torsions:
REMARK  status: ('A' for Active; 'I' for Inactive)
REMARK    1  A    between atoms: C_1  and  C_2
REMARK    2  A    between atoms: C_3  and  C_4
REMARK    3  A    between atoms: C_9  and  C_10
REMARK    4  A    between atoms: N_12  and  C_13
REMARK    5  A    between atoms: C_13  and  C_14
REMARK    6  A    between atoms: C_17  and  C_18
REMARK    7  A    between atoms: C_18  and  N_19
REMARK    8  A    between atoms: N_19  and  C_20
REMARK    9  A    between atoms: C_20  and  C_21
REMARK                            x       y       z     vdW  Elec       q    Type
REMARK                         _______ _______ _______ _____ _____    ______ ____
ROOT
ATOM      1  C   UNL     1      48.789   7.309  14.060  0.00  0.00    +0.000 C 
ATOM      2  O   UNL     1      49.355   7.341  12.972  0.00  0.00    +0.000 OA
ATOM      3  N   UNL     1      47.467   7.653  14.213  0.00  0.00    +0.000 N 
ATOM      4  H   UNL     1      46.992   7.374  15.059  0.00  0.00    +0.000 HD
ENDROOT
BRANCH   1  10
ATOM      5  C   UNL     1      49.980   4.984  18.353  0.00  0.00    +0.000 A 
ATOM      6  N   UNL     1      48.889   4.191  18.490  0.00  0.00    +0.000 NA
ATOM      7  C   UNL     1      47.910   4.248  17.566  0.00  0.00    +0.000 A 
ATOM      8  C   UNL     1      47.929   5.064  16.446  0.00  0.00    +0.000 A 
ATOM      9  C   UNL     1      49.059   5.880  16.265  0.00  0.00    +0.000 A 
ATOM     10  C   UNL     1      49.456   6.847  15.276  0.00  0.00    +0.000 A 
ATOM     11  C   UNL     1      50.671   7.361  15.705  0.00  0.00    +0.000 A 
ATOM     12  N   UNL     1      51.030   6.735  16.863  0.00  0.00    +0.000 N 
ATOM     13  C   UNL     1      50.064   5.828  17.240  0.00  0.00    +0.000 A 
ATOM     14  H   UNL     1      51.874   6.927  17.383  0.00  0.00    +0.000 HD
BRANCH   5  17
ATOM     15  C   UNL     1      53.162   4.071  20.352  0.00  0.00    +0.000 C 
ATOM     16  C   UNL     1      52.090   4.124  19.314  0.00  0.00    +0.000 C 
ATOM     17  C   UNL     1      51.030   4.946  19.376  0.00  0.00    +0.000 C 
ENDBRANCH   5  17
ENDBRANCH   1  10
BRANCH   3  18
ATOM     18  C   UNL     1      46.669   8.025  13.069  0.00  0.00    +0.000 C 
BRANCH  18  19
ATOM     19  C   UNL     1      45.798   6.876  12.641  0.00  0.00    +0.000 A 
ATOM     20  C   UNL     1      45.971   5.611  13.210  0.00  0.00    +0.000 A 
ATOM     21  C   UNL     1      45.228   4.522  12.748  0.00  0.00    +0.000 A 
ATOM     22  C   UNL     1      44.281   4.673  11.723  0.00  0.00    +0.000 A 
ATOM     23  C   UNL     1      44.106   5.944  11.159  0.00  0.00    +0.000 A 
ATOM     24  C   UNL     1      44.858   7.034  11.613  0.00  0.00    +0.000 A 
BRANCH  22  25
ATOM     25  C   UNL     1      43.517   3.482  11.171  0.00  0.00    +0.000 C 
BRANCH  25  26
ATOM     26  N   UNL     1      43.814   3.273   9.760  0.00  0.00    +0.000 NA
ATOM     27  H   UNL     1      44.355   4.064   9.414  0.00  0.00    +0.000 HD
BRANCH  26  28
ATOM     28  C   UNL     1      44.512   2.025   9.477  0.00  0.00    +0.000 C 
BRANCH  28  29
ATOM     29  C   UNL     1      45.765   2.345   8.635  0.00  0.00    +0.000 C 
ATOM     30  C   UNL     1      45.481   3.440   7.587  0.00  0.00    +0.000 C 
ATOM     31  C   UNL     1      46.716   3.753   6.750  0.00  0.00    +0.000 C 
ATOM     32  C   UNL     1      47.275   2.499   6.087  0.00  0.00    +0.000 C 
ATOM     33  C   UNL     1      47.550   1.401   7.110  0.00  0.00    +0.000 C 
ATOM     34  C   UNL     1      46.313   1.084   7.950  0.00  0.00    +0.000 C 
ENDBRANCH  28  29
ENDBRANCH  26  28
ENDBRANCH  25  26
ENDBRANCH  22  25
ENDBRANCH  18  19
ENDBRANCH   3  18
TORSDOF 8
ENDMDL
MODEL 3
REMARK VINA RESULT:    -7.085      2.609      3.018
REMARK INTER + INTRA:         -11.724
REMARK INTER:                 -10.779
REMARK INTRA:                  -0.946
REMARK UNBOUND:                -1.325
REMARK  Name = 
REMARK  9 active torsions:
REMARK  status: ('A' for Active; 'I' for Inactive)
REMARK    1  A    between atoms: C_1  and  C_2
REMARK    2  A    between atoms: C_3  and  C_4
REMARK    3  A    between atoms: C_9  and  C_10
REMARK    4  A    between atoms: N_12  and  C_13
REMARK    5  A    between atoms: C_13  and  C_14
REMARK    6  A    between atoms: C_17  and  C_18
REMARK    7  A    between atoms: C_18  and  N_19
REMARK    8  A    between atoms: N_19  and  C_20
REMARK    9  A    between atoms: C_20  and  C_21
REMARK                            x       y       z     vdW  Elec       q    Type
REMARK                         _______ _______ _______ _____ _____    ______ ____
ROOT
ATOM      1  C   UNL     1      48.910   7.556  15.354  0.00  0.00    +0.000 C 
ATOM      2  O   UNL     1      49.701   6.620  15.421  0.00  0.00    +0.000 OA
ATOM      3  N   UNL     1      48.302   7.926  14.179  0.00  0.00    +0.000 N 
ATOM      4  H   UNL     1      47.489   8.522  14.224  0.00  0.00    +0.000 HD
ENDROOT
BRANCH   1  10
ATOM      5  C   UNL     1      47.588   8.987  19.987  0.00  0.00    +0.000 A 
ATOM      6  N   UNL     1      47.687   7.796  20.627  0.00  0.00    +0.000 NA
ATOM      7  C   UNL     1      48.051   6.700  19.933  0.00  0.00    +0.000 A 
ATOM      8  C   UNL     1      48.356   6.688  18.581  0.00  0.00    +0.000 A 
ATOM      9  C   UNL     1      48.285   7.913  17.896  0.00  0.00    +0.000 A 
ATOM     10  C   UNL     1      48.503   8.320  16.533  0.00  0.00    +0.000 A 
ATOM     11  C   UNL     1      48.203   9.673  16.481  0.00  0.00    +0.000 A 
ATOM     12  N   UNL     1      47.856  10.095  17.732  0.00  0.00    +0.000 N 
ATOM     13  C   UNL     1      47.887   9.044  18.621  0.00  0.00    +0.000 A 
ATOM     14  H   UNL     1      47.591  11.041  17.966  0.00  0.00    +0.000 HD
BRANCH   5  17
ATOM     15  C   UNL     1      47.409  12.548  21.482  0.00  0.00    +0.000 C 
ATOM     16  C   UNL     1      47.831  11.336  20.720  0.00  0.00    +0.000 C 
ATOM     17  C   UNL     1      47.159  10.173  20.735  0.00  0.00    +0.000 C 
ENDBRANCH   5  17
ENDBRANCH   1  10
BRANCH   3  18
ATOM     18  C   UNL     1      48.541   7.182  12.964  0.00  0.00    +0.000 C 
BRANCH  18  19
ATOM     19  C   UNL     1      47.343   6.341  12.620  0.00  0.00    +0.000 A 
ATOM     20  C   UNL     1      46.857   5.400  13.533  0.00  0.00    +0.000 A 
ATOM     21  C   UNL     1      45.805   4.553  13.181  0.00  0.00    +0.000 A 
ATOM     22  C   UNL     1      45.197   4.638  11.918  0.00  0.00    +0.000 A 
ATOM     23  C   UNL     1      45.683   5.587  11.008  0.00  0.00    +0.000 A 
ATOM     24  C   UNL     1      46.745   6.429  11.356  0.00  0.00    +0.000 A 
BRANCH  22  25
ATOM     25  C   UNL     1      44.096   3.678  11.504  0.00  0.00    +0.000 C 
BRANCH  25  26
ATOM     26  N   UNL     1      44.649   2.457  10.931  0.00  0.00    +0.000 NA
ATOM     27  H   UNL     1      44.300   1.657  11.455  0.00  0.00    +0.000 HD
BRANCH  26  28
ATOM     28  C   UNL     1      44.368   2.288   9.510  0.00  0.00    +0.000 C 
BRANCH  28  29
ATOM     29  C   UNL     1      45.685   2.467   8.726  0.00  0.00    +0.000 C 
ATOM     30  C   UNL     1      45.556   3.553   7.640  0.00  0.00    +0.000 C 
ATOM     31  C   UNL     1      46.855   3.726   6.859  0.00  0.00    +0.000 C 
ATOM     32  C   UNL     1      47.325   2.408   6.257  0.00  0.00    +0.000 C 
ATOM     33  C   UNL     1      47.446   1.319   7.318  0.00  0.00    +0.000 C 
ATOM     34  C   UNL     1      46.145   1.141   8.101  0.00  0.00    +0.000 C 
ENDBRANCH  28  29
ENDBRANCH  26  28
ENDBRANCH  25  26
ENDBRANCH  22  25
ENDBRANCH  18  19
ENDBRANCH   3  18
TORSDOF 8
ENDMDL
MODEL 4
REMARK VINA RESULT:    -7.041      3.035      3.778
REMARK INTER + INTRA:         -11.659
REMARK INTER:                 -10.845
REMARK INTRA:                  -0.814
REMARK UNBOUND:                -1.325
REMARK  Name = 
REMARK  9 active torsions:
REMARK  status: ('A' for Active; 'I' for Inactive)
REMARK    1  A    between atoms: C_1  and  C_2
REMARK    2  A    between atoms: C_3  and  C_4
REMARK    3  A    between atoms: C_9  and  C_10
REMARK    4  A    between atoms: N_12  and  C_13
REMARK    5  A    between atoms: C_13  and  C_14
REMARK    6  A    between atoms: C_17  and  C_18
REMARK    7  A    between atoms: C_18  and  N_19
REMARK    8  A    between atoms: N_19  and  C_20
REMARK    9  A    between atoms: C_20  and  C_21
REMARK                            x       y       z     vdW  Elec       q    Type
REMARK                         _______ _______ _______ _____ _____    ______ ____
ROOT
ATOM      1  C   UNL     1      48.034   4.304  16.471  0.00  0.00    +0.000 C 
ATOM      2  O   UNL     1      47.116   4.567  17.241  0.00  0.00    +0.000 OA
ATOM      3  N   UNL     1      48.096   4.814  15.196  0.00  0.00    +0.000 N 
ATOM      4  H   UNL     1      48.976   4.774  14.703  0.00  0.00    +0.000 HD
ENDROOT
BRANCH   1  10
ATOM      5  C   UNL     1      52.461   2.626  18.157  0.00  0.00    +0.000 A 
ATOM      6  N   UNL     1      53.015   3.801  18.543  0.00  0.00    +0.000 NA
ATOM      7  C   UNL     1      52.323   4.945  18.377  0.00  0.00    +0.000 A 
ATOM      8  C   UNL     1      51.047   5.024  17.841  0.00  0.00    +0.000 A 
ATOM      9  C   UNL     1      50.437   3.819  17.454  0.00  0.00    +0.000 A 
ATOM     10  C   UNL     1      49.171   3.473  16.864  0.00  0.00    +0.000 A 
ATOM     11  C   UNL     1      49.199   2.101  16.665  0.00  0.00    +0.000 A 
ATOM     12  N   UNL     1      50.386   1.613  17.130  0.00  0.00    +0.000 N 
ATOM     13  C   UNL     1      51.171   2.636  17.612  0.00  0.00    +0.000 A 
ATOM     14  H   UNL     1      50.659   0.641  17.102  0.00  0.00    +0.000 HD
BRANCH   5  17
ATOM     15  C   UNL     1      54.540  -0.546  17.406  0.00  0.00    +0.000 C 
ATOM     16  C   UNL     1      53.763   0.721  17.269  0.00  0.00    +0.000 C 
ATOM     17  C   UNL     1      53.228   1.385  18.306  0.00  0.00    +0.000 C 
ENDBRANCH   5  17
ENDBRANCH   1  10
BRANCH   3  18
ATOM     18  C   UNL     1      47.087   5.733  14.725  0.00  0.00    +0.000 C 
BRANCH  18  19
ATOM     19  C   UNL     1      46.213   5.070  13.696  0.00  0.00    +0.000 A 
ATOM     20  C   UNL     1      45.197   5.793  13.063  0.00  0.00    +0.000 A 
ATOM     21  C   UNL     1      44.325   5.157  12.178  0.00  0.00    +0.000 A 
ATOM     22  C   UNL     1      44.457   3.789  11.886  0.00  0.00    +0.000 A 
ATOM     23  C   UNL     1      45.481   3.070  12.517  0.00  0.00    +0.000 A 
ATOM     24  C   UNL     1      46.349   3.704  13.414  0.00  0.00    +0.000 A 
BRANCH  22  25
ATOM     25  C   UNL     1      43.474   3.077  10.975  0.00  0.00    +0.000 C 
BRANCH  25  26
ATOM     26  N   UNL     1      43.996   2.966   9.619  0.00  0.00    +0.000 NA
ATOM     27  H   UNL     1      44.464   3.836   9.371  0.00  0.00    +0.000 HD
BRANCH  26  28
ATOM     28  C   UNL     1      44.898   1.838   9.420  0.00  0.00    +0.000 C 
BRANCH  28  29
ATOM     29  C   UNL     1      46.039   2.282   8.481  0.00  0.00    +0.000 C 
ATOM     30  C   UNL     1      45.561   3.342   7.468  0.00  0.00    +0.000 C 
ATOM     31  C   UNL     1      46.686   3.778   6.535  0.00  0.00    +0.000 C 
ATOM     32  C   UNL     1      47.312   2.587   5.820  0.00  0.00    +0.000 C 
ATOM     33  C   UNL     1      47.780   1.523   6.809  0.00  0.00    +0.000 C 
ATOM     34  C   UNL     1      46.654   1.083   7.744  0.00  0.00    +0.000 C 
ENDBRANCH  28  29
ENDBRANCH  26  28
ENDBRANCH  25  26
ENDBRANCH  22  25
ENDBRANCH  18  19
ENDBRANCH   3  18
TORSDOF 8
ENDMDL
MODEL 5
REMARK VINA RESULT:    -6.581      3.688      9.649
REMARK INTER + INTRA:         -10.984
REMARK INTER:                  -8.785
REMARK INTRA:                  -2.199
REMARK UNBOUND:                -1.325
REMARK  Name = 
REMARK  9 active torsions:
REMARK  status: ('A' for Active; 'I' for Inactive)
REMARK    1  A    between atoms: C_1  and  C_2
REMARK    2  A    between atoms: C_3  and  C_4
REMARK    3  A    between atoms: C_9  and  C_10
REMARK    4  A    between atoms: N_12  and  C_13
REMARK    5  A    between atoms: C_13  and  C_14
REMARK    6  A    between atoms: C_17  and  C_18
REMARK    7  A    between atoms: C_18  and  N_19
REMARK    8  A    between atoms: N_19  and  C_20
REMARK    9  A    between atoms: C_20  and  C_21
REMARK                            x       y       z     vdW  Elec       q    Type
REMARK                         _______ _______ _______ _____ _____    ______ ____
ROOT
ATOM      1  C   UNL     1      46.747   4.330  14.204  0.00  0.00    +0.000 C 
ATOM      2  O   UNL     1      47.290   3.383  13.643  0.00  0.00    +0.000 OA
ATOM      3  N   UNL     1      46.856   4.546  15.557  0.00  0.00    +0.000 N 
ATOM      4  H   UNL     1      46.609   5.455  15.920  0.00  0.00    +0.000 HD
ENDROOT
BRANCH   1  10
ATOM      5  C   UNL     1      45.220   8.535  11.914  0.00  0.00    +0.000 A 
ATOM      6  N   UNL     1      46.322   9.302  12.095  0.00  0.00    +0.000 NA
ATOM      7  C   UNL     1      47.378   8.797  12.762  0.00  0.00    +0.000 A 
ATOM      8  C   UNL     1      47.441   7.515  13.284  0.00  0.00    +0.000 A 
ATOM      9  C   UNL     1      46.321   6.687  13.091  0.00  0.00    +0.000 A 
ATOM     10  C   UNL     1      45.985   5.340  13.472  0.00  0.00    +0.000 A 
ATOM     11  C   UNL     1      44.688   5.127  13.031  0.00  0.00    +0.000 A 
ATOM     12  N   UNL     1      44.251   6.249  12.389  0.00  0.00    +0.000 N 
ATOM     13  C   UNL     1      45.220   7.226  12.413  0.00  0.00    +0.000 A 
ATOM     14  H   UNL     1      43.336   6.355  11.975  0.00  0.00    +0.000 HD
BRANCH   5  17
ATOM     15  C   UNL     1      42.965  10.712   9.650  0.00  0.00    +0.000 C 
ATOM     16  C   UNL     1      44.140  10.126  10.360  0.00  0.00    +0.000 C 
ATOM     17  C   UNL     1      44.058   9.096  11.217  0.00  0.00    +0.000 C 
ENDBRANCH   5  17
ENDBRANCH   1  10
BRANCH   3  18
ATOM     18  C   UNL     1      47.669   3.678  16.375  0.00  0.00    +0.000 C 
BRANCH  18  19
ATOM     19  C   UNL     1      47.887   4.289  17.732  0.00  0.00    +0.000 A 
ATOM     20  C   UNL     1      46.992   5.242  18.228  0.00  0.00    +0.000 A 
ATOM     21  C   UNL     1      47.242   5.878  19.445  0.00  0.00    +0.000 A 
ATOM     22  C   UNL     1      48.379   5.565  20.207  0.00  0.00    +0.000 A 
ATOM     23  C   UNL     1      49.270   4.605  19.710  0.00  0.00    +0.000 A 
ATOM     24  C   UNL     1      49.026   3.974  18.484  0.00  0.00    +0.000 A 
BRANCH  22  25
ATOM     25  C   UNL     1      48.691   6.299  21.499  0.00  0.00    +0.000 C 
BRANCH  25  26
ATOM     26  N   UNL     1      48.564   7.741  21.329  0.00  0.00    +0.000 NA
ATOM     27  H   UNL     1      48.237   8.151  22.203  0.00  0.00    +0.000 HD
BRANCH  26  28
ATOM     28  C   UNL     1      49.790   8.399  20.895  0.00  0.00    +0.000 C 
BRANCH  28  29
ATOM     29  C   UNL     1      49.577   8.937  19.464  0.00  0.00    +0.000 C 
ATOM     30  C   UNL     1      48.089   9.226  19.182  0.00  0.00    +0.000 C 
ATOM     31  C   UNL     1      47.876   9.752  17.766  0.00  0.00    +0.000 C 
ATOM     32  C   UNL     1      48.453   8.801  16.724  0.00  0.00    +0.000 C 
ATOM     33  C   UNL     1      49.923   8.496  16.997  0.00  0.00    +0.000 C 
ATOM     34  C   UNL     1      50.139   7.967  18.415  0.00  0.00    +0.000 C 
ENDBRANCH  28  29
ENDBRANCH  26  28
ENDBRANCH  25  26
ENDBRANCH  22  25
ENDBRANCH  18  19
ENDBRANCH   3  18
TORSDOF 8
ENDMDL
MODEL 6
REMARK VINA RESULT:    -6.512      3.489      9.478
REMARK INTER + INTRA:         -10.883
REMARK INTER:                  -8.746
REMARK INTRA:                  -2.137
REMARK UNBOUND:                -1.325
REMARK  Name = 
REMARK  9 active torsions:
REMARK  status: ('A' for Active; 'I' for Inactive)
REMARK    1  A    between atoms: C_1  and  C_2
REMARK    2  A    between atoms: C_3  and  C_4
REMARK    3  A    between atoms: C_9  and  C_10
REMARK    4  A    between atoms: N_12  and  C_13
REMARK    5  A    between atoms: C_13  and  C_14
REMARK    6  A    between atoms: C_17  and  C_18
REMARK    7  A    between atoms: C_18  and  N_19
REMARK    8  A    between atoms: N_19  and  C_20
REMARK    9  A    between atoms: C_20  and  C_21
REMARK                            x       y       z     vdW  Elec       q    Type
REMARK                         _______ _______ _______ _____ _____    ______ ____
ROOT
ATOM      1  C   UNL     1      47.138   3.919  15.054  0.00  0.00    +0.000 C 
ATOM      2  O   UNL     1      47.641   2.915  14.561  0.00  0.00    +0.000 OA
ATOM      3  N   UNL     1      46.970   4.070  16.410  0.00  0.00    +0.000 N 
ATOM      4  H   UNL     1      46.790   4.995  16.773  0.00  0.00    +0.000 HD
ENDROOT
BRANCH   1  10
ATOM      5  C   UNL     1      44.713   7.051  11.960  0.00  0.00    +0.000 A 
ATOM      6  N   UNL     1      43.651   6.273  11.641  0.00  0.00    +0.000 NA
ATOM      7  C   UNL     1      43.557   5.034  12.161  0.00  0.00    +0.000 A 
ATOM      8  C   UNL     1      44.476   4.473  13.033  0.00  0.00    +0.000 A 
ATOM      9  C   UNL     1      45.577   5.266  13.402  0.00  0.00    +0.000 A 
ATOM     10  C   UNL     1      46.727   5.065  14.245  0.00  0.00    +0.000 A 
ATOM     11  C   UNL     1      47.487   6.220  14.141  0.00  0.00    +0.000 A 
ATOM     12  N   UNL     1      46.844   7.098  13.318  0.00  0.00    +0.000 N 
ATOM     13  C   UNL     1      45.677   6.546  12.842  0.00  0.00    +0.000 A 
ATOM     14  H   UNL     1      47.189   8.016  13.075  0.00  0.00    +0.000 HD
BRANCH   5  17
ATOM     15  C   UNL     1      44.887  10.885  11.494  0.00  0.00    +0.000 C 
ATOM     16  C   UNL     1      44.774   9.520  12.086  0.00  0.00    +0.000 C 
ATOM     17  C   UNL     1      44.833   8.387  11.367  0.00  0.00    +0.000 C 
ENDBRANCH   5  17
ENDBRANCH   1  10
BRANCH   3  18
ATOM     18  C   UNL     1      47.432   3.052  17.323  0.00  0.00    +0.000 C 
BRANCH  18  19
ATOM     19  C   UNL     1      48.684   3.506  18.024  0.00  0.00    +0.000 A 
ATOM     20  C   UNL     1      48.601   4.222  19.221  0.00  0.00    +0.000 A 
ATOM     21  C   UNL     1      49.755   4.725  19.824  0.00  0.00    +0.000 A 
ATOM     22  C   UNL     1      51.022   4.507  19.259  0.00  0.00    +0.000 A 
ATOM     23  C   UNL     1      51.102   3.783  18.062  0.00  0.00    +0.000 A 
ATOM     24  C   UNL     1      49.944   3.288  17.450  0.00  0.00    +0.000 A 
BRANCH  22  25
ATOM     25  C   UNL     1      52.275   5.106  19.874  0.00  0.00    +0.000 C 
BRANCH  25  26
ATOM     26  N   UNL     1      52.116   6.536  20.106  0.00  0.00    +0.000 NA
ATOM     27  H   UNL     1      52.741   6.821  20.859  0.00  0.00    +0.000 HD
BRANCH  26  28
ATOM     28  C   UNL     1      52.346   7.359  18.924  0.00  0.00    +0.000 C 
BRANCH  28  29
ATOM     29  C   UNL     1      51.037   8.102  18.584  0.00  0.00    +0.000 C 
ATOM     30  C   UNL     1      50.109   8.210  19.810  0.00  0.00    +0.000 C 
ATOM     31  C   UNL     1      48.813   8.939  19.473  0.00  0.00    +0.000 C 
ATOM     32  C   UNL     1      48.091   8.284  18.301  0.00  0.00    +0.000 C 
ATOM     33  C   UNL     1      49.001   8.160  17.083  0.00  0.00    +0.000 C 
ATOM     34  C   UNL     1      50.301   7.427  17.417  0.00  0.00    +0.000 C 
ENDBRANCH  28  29
ENDBRANCH  26  28
ENDBRANCH  25  26
ENDBRANCH  22  25
ENDBRANCH  18  19
ENDBRANCH   3  18
TORSDOF 8
ENDMDL
MODEL 7
REMARK VINA RESULT:    -6.438      2.388      8.484
REMARK INTER + INTRA:         -10.775
REMARK INTER:                  -8.860
REMARK INTRA:                  -1.915
REMARK UNBOUND:                -1.325
REMARK  Name = 
REMARK  9 active torsions:
REMARK  status: ('A' for Active; 'I' for Inactive)
REMARK    1  A    between atoms: C_1  and  C_2
REMARK    2  A    between atoms: C_3  and  C_4
REMARK    3  A    between atoms: C_9  and  C_10
REMARK    4  A    between atoms: N_12  and  C_13
REMARK    5  A    between atoms: C_13  and  C_14
REMARK    6  A    between atoms: C_17  and  C_18
REMARK    7  A    between atoms: C_18  and  N_19
REMARK    8  A    between atoms: N_19  and  C_20
REMARK    9  A    between atoms: C_20  and  C_21
REMARK                            x       y       z     vdW  Elec       q    Type
REMARK                         _______ _______ _______ _____ _____    ______ ____
ROOT
ATOM      1  C   UNL     1      46.363   8.553  12.788  0.00  0.00    +0.000 C 
ATOM      2  O   UNL     1      45.633   9.512  13.018  0.00  0.00    +0.000 OA
ATOM      3  N   UNL     1      47.709   8.568  13.066  0.00  0.00    +0.000 N 
ATOM      4  H   UNL     1      48.205   7.689  13.095  0.00  0.00    +0.000 HD
ENDROOT
BRANCH   1  10
ATOM      5  C   UNL     1      45.327   3.707  11.949  0.00  0.00    +0.000 A 
ATOM      6  N   UNL     1      46.019   3.149  12.971  0.00  0.00    +0.000 NA
ATOM      7  C   UNL     1      46.713   3.941  13.811  0.00  0.00    +0.000 A 
ATOM      8  C   UNL     1      46.771   5.324  13.725  0.00  0.00    +0.000 A 
ATOM      9  C   UNL     1      46.043   5.933  12.688  0.00  0.00    +0.000 A 
ATOM     10  C   UNL     1      45.852   7.292  12.254  0.00  0.00    +0.000 A 
ATOM     11  C   UNL     1      45.064   7.225  11.115  0.00  0.00    +0.000 A 
ATOM     12  N   UNL     1      44.752   5.920  10.870  0.00  0.00    +0.000 N 
ATOM     13  C   UNL     1      45.340   5.100  11.808  0.00  0.00    +0.000 A 
ATOM     14  H   UNL     1      44.187   5.598  10.097  0.00  0.00    +0.000 HD
BRANCH   5  17
ATOM     15  C   UNL     1      44.329   1.648   8.832  0.00  0.00    +0.000 C 
ATOM     16  C   UNL     1      45.063   2.521   9.795  0.00  0.00    +0.000 C 
ATOM     17  C   UNL     1      44.600   2.842  11.015  0.00  0.00    +0.000 C 
ENDBRANCH   5  17
ENDBRANCH   1  10
BRANCH   3  18
ATOM     18  C   UNL     1      48.315   9.718  13.694  0.00  0.00    +0.000 C 
BRANCH  18  19
ATOM     19  C   UNL     1      49.038   9.310  14.948  0.00  0.00    +0.000 A 
ATOM     20  C   UNL     1      50.390   8.958  14.899  0.00  0.00    +0.000 A 
ATOM     21  C   UNL     1      51.039   8.490  16.043  0.00  0.00    +0.000 A 
ATOM     22  C   UNL     1      50.362   8.382  17.269  0.00  0.00    +0.000 A 
ATOM     23  C   UNL     1      49.009   8.742  17.315  0.00  0.00    +0.000 A 
ATOM     24  C   UNL     1      48.353   9.200  16.166  0.00  0.00    +0.000 A 
BRANCH  22  25
ATOM     25  C   UNL     1      51.044   7.812  18.500  0.00  0.00    +0.000 C 
BRANCH  25  26
ATOM     26  N   UNL     1      50.407   6.573  18.929  0.00  0.00    +0.000 NA
ATOM     27  H   UNL     1      49.400   6.656  18.802  0.00  0.00    +0.000 HD
BRANCH  26  28
ATOM     28  C   UNL     1      50.902   5.384  18.246  0.00  0.00    +0.000 C 
BRANCH  28  29
ATOM     29  C   UNL     1      49.717   4.700  17.533  0.00  0.00    +0.000 C 
ATOM     30  C   UNL     1      48.371   5.065  18.191  0.00  0.00    +0.000 C 
ATOM     31  C   UNL     1      47.199   4.384  17.491  0.00  0.00    +0.000 C 
ATOM     32  C   UNL     1      47.384   2.872  17.433  0.00  0.00    +0.000 C 
ATOM     33  C   UNL     1      48.718   2.495  16.796  0.00  0.00    +0.000 C 
ATOM     34  C   UNL     1      49.895   3.174  17.496  0.00  0.00    +0.000 C 
ENDBRANCH  28  29
ENDBRANCH  26  28
ENDBRANCH  25  26
ENDBRANCH  22  25
ENDBRANCH  18  19
ENDBRANCH   3  18
TORSDOF 8
ENDMDL
MODEL 8
REMARK VINA RESULT:    -6.299      2.929      4.129
REMARK INTER + INTRA:         -10.571
REMARK INTER:                  -9.175
REMARK INTRA:                  -1.396
REMARK UNBOUND:                -1.325
REMARK  Name = 
REMARK  9 active torsions:
REMARK  status: ('A' for Active; 'I' for Inactive)
REMARK    1  A    between atoms: C_1  and  C_2
REMARK    2  A    between atoms: C_3  and  C_4
REMARK    3  A    between atoms: C_9  and  C_10
REMARK    4  A    between atoms: N_12  and  C_13
REMARK    5  A    between atoms: C_13  and  C_14
REMARK    6  A    between atoms: C_17  and  C_18
REMARK    7  A    between atoms: C_18  and  N_19
REMARK    8  A    between atoms: N_19  and  C_20
REMARK    9  A    between atoms: C_20  and  C_21
REMARK                            x       y       z     vdW  Elec       q    Type
REMARK                         _______ _______ _______ _____ _____    ______ ____
ROOT
ATOM      1  C   UNL     1      49.366   7.854  15.062  0.00  0.00    +0.000 C 
ATOM      2  O   UNL     1      50.150   6.968  14.738  0.00  0.00    +0.000 OA
ATOM      3  N   UNL     1      48.342   8.268  14.245  0.00  0.00    +0.000 N 
ATOM      4  H   UNL     1      47.590   8.807  14.650  0.00  0.00    +0.000 HD
ENDROOT
BRANCH   1  10
ATOM      5  C   UNL     1      50.316  10.957  18.901  0.00  0.00    +0.000 A 
ATOM      6  N   UNL     1      51.074  11.879  18.261  0.00  0.00    +0.000 NA
ATOM      7  C   UNL     1      51.341  11.724  16.950  0.00  0.00    +0.000 A 
ATOM      8  C   UNL     1      50.880  10.674  16.171  0.00  0.00    +0.000 A 
ATOM      9  C   UNL     1      50.070   9.714  16.801  0.00  0.00    +0.000 A 
ATOM     10  C   UNL     1      49.419   8.505  16.371  0.00  0.00    +0.000 A 
ATOM     11  C   UNL     1      48.817   7.968  17.499  0.00  0.00    +0.000 A 
ATOM     12  N   UNL     1      49.044   8.799  18.557  0.00  0.00    +0.000 N 
ATOM     13  C   UNL     1      49.813   9.873  18.169  0.00  0.00    +0.000 A 
ATOM     14  H   UNL     1      48.714   8.637  19.497  0.00  0.00    +0.000 HD
BRANCH   5  17
ATOM     15  C   UNL     1      48.737  11.966  22.283  0.00  0.00    +0.000 C 
ATOM     16  C   UNL     1      49.011  11.798  20.825  0.00  0.00    +0.000 C 
ATOM     17  C   UNL     1      50.054  11.108  20.336  0.00  0.00    +0.000 C 
ENDBRANCH   5  17
ENDBRANCH   1  10
BRANCH   3  18
ATOM     18  C   UNL     1      48.119   7.630  12.969  0.00  0.00    +0.000 C 
BRANCH  18  19
ATOM     19  C   UNL     1      46.943   6.695  13.049  0.00  0.00    +0.000 A 
ATOM     20  C   UNL     1      47.136   5.347  13.363  0.00  0.00    +0.000 A 
ATOM     21  C   UNL     1      46.060   4.458  13.346  0.00  0.00    +0.000 A 
ATOM     22  C   UNL     1      44.762   4.896  13.035  0.00  0.00    +0.000 A 
ATOM     23  C   UNL     1      44.572   6.249  12.726  0.00  0.00    +0.000 A 
ATOM     24  C   UNL     1      45.652   7.139  12.732  0.00  0.00    +0.000 A 
BRANCH  22  25
ATOM     25  C   UNL     1      43.599   3.923  12.951  0.00  0.00    +0.000 C 
BRANCH  25  26
ATOM     26  N   UNL     1      44.010   2.661  12.349  0.00  0.00    +0.000 NA
ATOM     27  H   UNL     1      43.662   1.892  12.920  0.00  0.00    +0.000 HD
BRANCH  26  28
ATOM     28  C   UNL     1      43.579   2.494  10.966  0.00  0.00    +0.000 C 
BRANCH  28  29
ATOM     29  C   UNL     1      44.769   2.818  10.039  0.00  0.00    +0.000 C 
ATOM     30  C   UNL     1      44.611   4.201   9.375  0.00  0.00    +0.000 C 
ATOM     31  C   UNL     1      45.784   4.520   8.454  0.00  0.00    +0.000 C 
ATOM     32  C   UNL     1      45.984   3.432   7.405  0.00  0.00    +0.000 C 
ATOM     33  C   UNL     1      46.129   2.056   8.047  0.00  0.00    +0.000 C 
ATOM     34  C   UNL     1      44.954   1.732   8.969  0.00  0.00    +0.000 C 
ENDBRANCH  28  29
ENDBRANCH  26  28
ENDBRANCH  25  26
ENDBRANCH  22  25
ENDBRANCH  18  19
ENDBRANCH   3  18
TORSDOF 8
ENDMDL
MODEL 9
REMARK VINA RESULT:    -6.144      2.317      9.270
REMARK INTER + INTRA:         -10.343
REMARK INTER:                  -8.058
REMARK INTRA:                  -2.286
REMARK UNBOUND:                -1.325
REMARK  Name = 
REMARK  9 active torsions:
REMARK  status: ('A' for Active; 'I' for Inactive)
REMARK    1  A    between atoms: C_1  and  C_2
REMARK    2  A    between atoms: C_3  and  C_4
REMARK    3  A    between atoms: C_9  and  C_10
REMARK    4  A    between atoms: N_12  and  C_13
REMARK    5  A    between atoms: C_13  and  C_14
REMARK    6  A    between atoms: C_17  and  C_18
REMARK    7  A    between atoms: C_18  and  N_19
REMARK    8  A    between atoms: N_19  and  C_20
REMARK    9  A    between atoms: C_20  and  C_21
REMARK                            x       y       z     vdW  Elec       q    Type
REMARK                         _______ _______ _______ _____ _____    ______ ____
ROOT
ATOM      1  C   UNL     1      48.401   8.229  14.785  0.00  0.00    +0.000 C 
ATOM      2  O   UNL     1      49.619   8.307  14.663  0.00  0.00    +0.000 OA
ATOM      3  N   UNL     1      47.707   8.941  15.735  0.00  0.00    +0.000 N 
ATOM      4  H   UNL     1      46.707   9.035  15.631  0.00  0.00    +0.000 HD
ENDROOT
BRANCH   1  10
ATOM      5  C   UNL     1      44.992   6.612  11.465  0.00  0.00    +0.000 A 
ATOM      6  N   UNL     1      44.401   7.792  11.157  0.00  0.00    +0.000 NA
ATOM      7  C   UNL     1      44.825   8.921  11.757  0.00  0.00    +0.000 A 
ATOM      8  C   UNL     1      45.856   8.984  12.681  0.00  0.00    +0.000 A 
ATOM      9  C   UNL     1      46.504   7.779  13.003  0.00  0.00    +0.000 A 
ATOM     10  C   UNL     1      47.576   7.417  13.892  0.00  0.00    +0.000 A 
ATOM     11  C   UNL     1      47.704   6.039  13.801  0.00  0.00    +0.000 A 
ATOM     12  N   UNL     1      46.800   5.572  12.892  0.00  0.00    +0.000 N 
ATOM     13  C   UNL     1      46.044   6.606  12.389  0.00  0.00    +0.000 A 
ATOM     14  H   UNL     1      46.687   4.600  12.641  0.00  0.00    +0.000 HD
BRANCH   5  17
ATOM     15  C   UNL     1      44.601   3.569   9.112  0.00  0.00    +0.000 C 
ATOM     16  C   UNL     1      45.089   4.820   9.764  0.00  0.00    +0.000 C 
ATOM     17  C   UNL     1      44.507   5.378  10.838  0.00  0.00    +0.000 C 
ENDBRANCH   5  17
ENDBRANCH   1  10
BRANCH   3  18
ATOM     18  C   UNL     1      48.396   9.861  16.609  0.00  0.00    +0.000 C 
BRANCH  18  19
ATOM     19  C   UNL     1      48.554   9.262  17.980  0.00  0.00    +0.000 A 
ATOM     20  C   UNL     1      49.796   8.775  18.398  0.00  0.00    +0.000 A 
ATOM     21  C   UNL     1      49.923   8.135  19.632  0.00  0.00    +0.000 A 
ATOM     22  C   UNL     1      48.821   7.984  20.489  0.00  0.00    +0.000 A 
ATOM     23  C   UNL     1      47.579   8.480  20.069  0.00  0.00    +0.000 A 
ATOM     24  C   UNL     1      47.447   9.111  18.827  0.00  0.00    +0.000 A 
BRANCH  22  25
ATOM     25  C   UNL     1      48.939   7.233  21.803  0.00  0.00    +0.000 C 
BRANCH  25  26
ATOM     26  N   UNL     1      49.464   5.889  21.596  0.00  0.00    +0.000 NA
ATOM     27  H   UNL     1      49.977   5.602  22.428  0.00  0.00    +0.000 HD
BRANCH  26  28
ATOM     28  C   UNL     1      48.447   4.897  21.266  0.00  0.00    +0.000 C 
BRANCH  28  29
ATOM     29  C   UNL     1      48.654   4.450  19.804  0.00  0.00    +0.000 C 
ATOM     30  C   UNL     1      50.113   4.655  19.349  0.00  0.00    +0.000 C 
ATOM     31  C   UNL     1      50.319   4.220  17.902  0.00  0.00    +0.000 C 
ATOM     32  C   UNL     1      49.351   4.929  16.962  0.00  0.00    +0.000 C 
ATOM     33  C   UNL     1      47.903   4.744  17.406  0.00  0.00    +0.000 C 
ATOM     34  C   UNL     1      47.694   5.183  18.856  0.00  0.00    +0.000 C 
ENDBRANCH  28  29
ENDBRANCH  26  28
ENDBRANCH  25  26
ENDBRANCH  22  25
ENDBRANCH  18  19
ENDBRANCH   3  18
TORSDOF 8
ENDMDL
