MODEL 1
REMARK VINA RESULT:    -7.896      0.000      0.000
REMARK INTER + INTRA:         -12.523
REMARK INTER:                 -11.358
REMARK INTRA:                  -1.165
REMARK UNBOUND:                -1.165
REMARK  Name = 
REMARK  10 active torsions:
REMARK  status: ('A' for Active; 'I' for Inactive)
REMARK    1  A    between atoms: C_1  and  C_2
REMARK    2  A    between atoms: C_6  and  C_7
REMARK    3  A    between atoms: C_7  and  N_8
REMARK    4  A    between atoms: N_8  and  C_9
REMARK    5  A    between atoms: N_8  and  C_10
REMARK    6  A    between atoms: C_10  and  C_11
REMARK    7  A    between atoms: C_14  and  C_15
REMARK    8  A    between atoms: C_15  and  N_16
REMARK    9  A    between atoms: C_17  and  C_19
REMARK   10  A    between atoms: C_26  and  O_27
REMARK                            x       y       z     vdW  Elec       q    Type
REMARK                         _______ _______ _______ _____ _____    ______ ____
ROOT
ATOM      1  C   UNL     1      45.929   4.690  12.858  0.00  0.00    +0.000 A 
ATOM      2  C   UNL     1      46.367   4.359  14.148  0.00  0.00    +0.000 A 
ATOM      3  C   UNL     1      47.365   5.104  14.776  0.00  0.00    +0.000 A 
ATOM      4  C   UNL     1      47.953   6.205  14.134  0.00  0.00    +0.000 A 
ATOM      5  C   UNL     1      47.518   6.535  12.846  0.00  0.00    +0.000 A 
ATOM      6  C   UNL     1      46.515   5.790  12.216  0.00  0.00    +0.000 A 
ENDROOT
BRANCH   1   7
ATOM      7  C   UNL     1      44.872   3.853  12.160  0.00  0.00    +0.000 C 
BRANCH   7   8
ATOM      8  N   UNL     1      44.267   4.503  10.981  0.00  0.00    +0.000 NA
ATOM      9  C   UNL     1      43.082   5.263  11.399  0.00  0.00    +0.000 C 
BRANCH   8  10
ATOM     10  C   UNL     1      43.908   3.499   9.958  0.00  0.00    +0.000 C 
BRANCH  10  16
ATOM     11  C   UNL     1      46.833   0.107   7.640  0.00  0.00    +0.000 C 
ATOM     12  C   UNL     1      46.422   1.535   7.841  0.00  0.00    +0.000 A 
ATOM     13  C   UNL     1      47.036   2.571   7.127  0.00  0.00    +0.000 A 
ATOM     14  C   UNL     1      46.664   3.897   7.349  0.00  0.00    +0.000 A 
ATOM     15  C   UNL     1      45.670   4.201   8.278  0.00  0.00    +0.000 A 
ATOM     16  C   UNL     1      45.030   3.179   8.991  0.00  0.00    +0.000 A 
ATOM     17  C   UNL     1      45.417   1.848   8.765  0.00  0.00    +0.000 A 
ENDBRANCH  10  16
ENDBRANCH   8  10
ENDBRANCH   7   8
ENDBRANCH   1   7
BRANCH   4  18
ATOM     18  C   UNL     1      49.065   6.979  14.797  0.00  0.00    +0.000 C 
BRANCH  18  19
ATOM     19  N   UNL     1      48.703   7.356  16.140  0.00  0.00    +0.000 N 
ATOM     20  C   UNL     1      49.250   6.746  17.241  0.00  0.00    +0.000 C 
ATOM     21  O   UNL     1      50.197   5.971  17.171  0.00  0.00    +0.000 OA
ATOM     22  H   UNL     1      47.873   7.924  16.250  0.00  0.00    +0.000 HD
BRANCH  20  23
ATOM     23  C   UNL     1      48.656   7.130  18.525  0.00  0.00    +0.000 A 
ATOM     24  C   UNL     1      48.198   8.418  18.742  0.00  0.00    +0.000 A 
ATOM     25  S   UNL     1      47.468   8.623  20.272  0.00  0.00    +0.000 S 
ATOM     26  C   UNL     1      47.806   7.014  20.707  0.00  0.00    +0.000 A 
ATOM     27  N   UNL     1      47.442   6.539  21.911  0.00  0.00    +0.000 NA
ATOM     28  C   UNL     1      47.813   5.269  22.100  0.00  0.00    +0.000 A 
ATOM     29  N   UNL     1      48.493   4.483  21.254  0.00  0.00    +0.000 NA
ATOM     30  C   UNL     1      48.820   5.017  20.074  0.00  0.00    +0.000 A 
ATOM     31  C   UNL     1      48.473   6.316  19.711  0.00  0.00    +0.000 A 
BRANCH  30  32
ATOM     32  O   UNL     1      49.512   4.171  19.258  0.00  0.00    +0.000 OA
ATOM     33  H   UNL     1      50.087   3.720  19.904  0.00  0.00    +0.000 HD
ENDBRANCH  30  32
ENDBRANCH  20  23
ENDBRANCH  18  19
ENDBRANCH   4  18
TORSDOF 8
ENDMDL
MODEL 2
REMARK VINA RESULT:    -7.871      2.844      3.204
REMARK INTER + INTRA:         -12.487
REMARK INTER:                 -11.187
REMARK INTRA:                  -1.299
REMARK UNBOUND:                -1.165
REMARK  Name = 
REMARK  10 active torsions:
REMARK  status: ('A' for Active; 'I' for Inactive)
REMARK    1  A    between atoms: C_1  and  C_2
REMARK    2  A    between atoms: C_6  and  C_7
REMARK    3  A    between atoms: C_7  and  N_8
REMARK    4  A    between atoms: N_8  and  C_9
REMARK    5  A    between atoms: N_8  and  C_10
REMARK    6  A    between atoms: C_10  and  C_11
REMARK    7  A    between atoms: C_14  and  C_15
REMARK    8  A    between atoms: C_15  and  N_16
REMARK    9  A    between atoms: C_17  and  C_19
REMARK   10  A    between atoms: C_26  and  O_27
REMARK                            x       y       z     vdW  Elec       q    Type
REMARK                         _______ _______ _______ _____ _____    ______ ____
ROOT
ATOM      1  C   UNL     1      45.955   5.084  12.623  0.00  0.00    +0.000 A 
ATOM      2  C   UNL     1      46.681   5.018  13.822  0.00  0.00    +0.000 A 
ATOM      3  C   UNL     1      47.712   5.921  14.082  0.00  0.00    +0.000 A 
ATOM      4  C   UNL     1      48.047   6.918  13.154  0.00  0.00    +0.000 A 
ATOM      5  C   UNL     1      47.324   6.984  11.958  0.00  0.00    +0.000 A 
ATOM      6  C   UNL     1      46.287   6.081  11.696  0.00  0.00    +0.000 A 
ENDROOT
BRANCH   1   7
ATOM      7  C   UNL     1      44.861   4.076  12.324  0.00  0.00    +0.000 C 
BRANCH   7   8
ATOM      8  N   UNL     1      44.035   4.410  11.148  0.00  0.00    +0.000 NA
ATOM      9  C   UNL     1      42.734   4.923  11.597  0.00  0.00    +0.000 C 
BRANCH   8  10
ATOM     10  C   UNL     1      43.858   3.228  10.280  0.00  0.00    +0.000 C 
BRANCH  10  16
ATOM     11  C   UNL     1      46.909   0.303   7.529  0.00  0.00    +0.000 C 
ATOM     12  C   UNL     1      46.374   1.666   7.854  0.00  0.00    +0.000 A 
ATOM     13  C   UNL     1      46.819   2.800   7.165  0.00  0.00    +0.000 A 
ATOM     14  C   UNL     1      46.335   4.065   7.501  0.00  0.00    +0.000 A 
ATOM     15  C   UNL     1      45.395   4.208   8.521  0.00  0.00    +0.000 A 
ATOM     16  C   UNL     1      44.922   3.084   9.212  0.00  0.00    +0.000 A 
ATOM     17  C   UNL     1      45.422   1.817   8.870  0.00  0.00    +0.000 A 
ENDBRANCH  10  16
ENDBRANCH   8  10
ENDBRANCH   7   8
ENDBRANCH   1   7
BRANCH   4  18
ATOM     18  C   UNL     1      49.194   7.862  13.418  0.00  0.00    +0.000 C 
BRANCH  18  19
ATOM     19  N   UNL     1      50.223   7.220  14.195  0.00  0.00    +0.000 N 
ATOM     20  C   UNL     1      50.461   7.552  15.505  0.00  0.00    +0.000 C 
ATOM     21  O   UNL     1      49.718   8.280  16.153  0.00  0.00    +0.000 OA
ATOM     22  H   UNL     1      50.913   6.680  13.688  0.00  0.00    +0.000 HD
BRANCH  20  23
ATOM     23  C   UNL     1      51.646   6.927  16.101  0.00  0.00    +0.000 A 
ATOM     24  C   UNL     1      52.907   7.466  15.913  0.00  0.00    +0.000 A 
ATOM     25  S   UNL     1      54.128   6.630  16.765  0.00  0.00    +0.000 S 
ATOM     26  C   UNL     1      53.012   5.489  17.350  0.00  0.00    +0.000 A 
ATOM     27  N   UNL     1      53.414   4.484  18.148  0.00  0.00    +0.000 NA
ATOM     28  C   UNL     1      52.416   3.662  18.488  0.00  0.00    +0.000 A 
ATOM     29  N   UNL     1      51.133   3.736  18.109  0.00  0.00    +0.000 NA
ATOM     30  C   UNL     1      50.802   4.760  17.318  0.00  0.00    +0.000 A 
ATOM     31  C   UNL     1      51.719   5.723  16.906  0.00  0.00    +0.000 A 
BRANCH  30  32
ATOM     32  O   UNL     1      49.485   4.780  16.963  0.00  0.00    +0.000 OA
ATOM     33  H   UNL     1      49.060   4.585  17.818  0.00  0.00    +0.000 HD
ENDBRANCH  30  32
ENDBRANCH  20  23
ENDBRANCH  18  19
ENDBRANCH   4  18
TORSDOF 8
ENDMDL
MODEL 3
REMARK VINA RESULT:    -7.813      3.523      9.129
REMARK INTER + INTRA:         -12.404
REMARK INTER:                 -10.491
REMARK INTRA:                  -1.913
REMARK UNBOUND:                -1.165
REMARK  Name = 
REMARK  10 active torsions:
REMARK  status: ('A' for Active; 'I' for Inactive)
REMARK    1  A    between atoms: C_1  and  C_2
REMARK    2  A    between atoms: C_6  and  C_7
REMARK    3  A    between atoms: C_7  and  N_8
REMARK    4  A    between atoms: N_8  and  C_9
REMARK    5  A    between atoms: N_8  and  C_10
REMARK    6  A    between atoms: C_10  and  C_11
REMARK    7  A    between atoms: C_14  and  C_15
REMARK    8  A    between atoms: C_15  and  N_16
REMARK    9  A    between atoms: C_17  and  C_19
REMARK   10  A    between atoms: C_26  and  O_27
REMARK                            x       y       z     vdW  Elec       q    Type
REMARK                         _______ _______ _______ _____ _____    ______ ____
ROOT
ATOM      1  C   UNL     1      48.851   7.979  16.294  0.00  0.00    +0.000 A 
ATOM      2  C   UNL     1      49.137   6.879  15.473  0.00  0.00    +0.000 A 
ATOM      3  C   UNL     1      48.757   6.873  14.130  0.00  0.00    +0.000 A 
ATOM      4  C   UNL     1      48.084   7.968  13.567  0.00  0.00    +0.000 A 
ATOM      5  C   UNL     1      47.797   9.065  14.387  0.00  0.00    +0.000 A 
ATOM      6  C   UNL     1      48.179   9.073  15.733  0.00  0.00    +0.000 A 
ENDROOT
BRANCH   1   7
ATOM      7  C   UNL     1      49.227   7.966  17.765  0.00  0.00    +0.000 C 
BRANCH   7   8
ATOM      8  N   UNL     1      48.142   7.525  18.663  0.00  0.00    +0.000 NA
ATOM      9  C   UNL     1      47.863   8.583  19.643  0.00  0.00    +0.000 C 
BRANCH   8  10
ATOM     10  C   UNL     1      48.507   6.267  19.344  0.00  0.00    +0.000 C 
BRANCH  10  16
ATOM     11  C   UNL     1      50.759   2.255  17.279  0.00  0.00    +0.000 C 
ATOM     12  C   UNL     1      49.524   3.081  17.480  0.00  0.00    +0.000 A 
ATOM     13  C   UNL     1      48.310   2.723  16.882  0.00  0.00    +0.000 A 
ATOM     14  C   UNL     1      47.178   3.520  17.053  0.00  0.00    +0.000 A 
ATOM     15  C   UNL     1      47.245   4.677  17.830  0.00  0.00    +0.000 A 
ATOM     16  C   UNL     1      48.445   5.044  18.452  0.00  0.00    +0.000 A 
ATOM     17  C   UNL     1      49.580   4.238  18.267  0.00  0.00    +0.000 A 
ENDBRANCH  10  16
ENDBRANCH   8  10
ENDBRANCH   7   8
ENDBRANCH   1   7
BRANCH   4  18
ATOM     18  C   UNL     1      47.634   7.939  12.128  0.00  0.00    +0.000 C 
BRANCH  18  19
ATOM     19  N   UNL     1      46.915   6.725  11.836  0.00  0.00    +0.000 N 
ATOM     20  C   UNL     1      45.543   6.669  11.847  0.00  0.00    +0.000 C 
ATOM     21  O   UNL     1      44.838   7.668  11.932  0.00  0.00    +0.000 OA
ATOM     22  H   UNL     1      47.445   5.862  11.844  0.00  0.00    +0.000 HD
BRANCH  20  23
ATOM     23  C   UNL     1      44.972   5.328  11.693  0.00  0.00    +0.000 A 
ATOM     24  C   UNL     1      44.388   4.675  12.765  0.00  0.00    +0.000 A 
ATOM     25  S   UNL     1      43.712   3.164  12.343  0.00  0.00    +0.000 S 
ATOM     26  C   UNL     1      44.243   3.317  10.735  0.00  0.00    +0.000 A 
ATOM     27  N   UNL     1      43.989   2.350   9.835  0.00  0.00    +0.000 NA
ATOM     28  C   UNL     1      44.505   2.616   8.630  0.00  0.00    +0.000 A 
ATOM     29  N   UNL     1      45.225   3.687   8.269  0.00  0.00    +0.000 NA
ATOM     30  C   UNL     1      45.436   4.610   9.211  0.00  0.00    +0.000 A 
ATOM     31  C   UNL     1      44.935   4.497  10.505  0.00  0.00    +0.000 A 
BRANCH  30  32
ATOM     32  O   UNL     1      46.178   5.673   8.786  0.00  0.00    +0.000 OA
ATOM     33  H   UNL     1      45.997   5.654   7.828  0.00  0.00    +0.000 HD
ENDBRANCH  30  32
ENDBRANCH  20  23
ENDBRANCH  18  19
ENDBRANCH   4  18
TORSDOF 8
ENDMDL
MODEL 4
REMARK VINA RESULT:    -7.570      2.381      2.874
REMARK INTER + INTRA:         -12.054
REMARK INTER:                 -11.636
REMARK INTRA:                  -0.418
REMARK UNBOUND:                -1.165
REMARK  Name = 
REMARK  10 active torsions:
REMARK  status: ('A' for Active; 'I' for Inactive)
REMARK    1  A    between atoms: C_1  and  C_2
REMARK    2  A    between atoms: C_6  and  C_7
REMARK    3  A    between atoms: C_7  and  N_8
REMARK    4  A    between atoms: N_8  and  C_9
REMARK    5  A    between atoms: N_8  and  C_10
REMARK    6  A    between atoms: C_10  and  C_11
REMARK    7  A    between atoms: C_14  and  C_15
REMARK    8  A    between atoms: C_15  and  N_16
REMARK    9  A    between atoms: C_17  and  C_19
REMARK   10  A    between atoms: C_26  and  O_27
REMARK                            x       y       z     vdW  Elec       q    Type
REMARK                         _______ _______ _______ _____ _____    ______ ____
ROOT
ATOM      1  C   UNL     1      45.506   6.388  11.148  0.00  0.00    +0.000 A 
ATOM      2  C   UNL     1      44.818   7.211  12.053  0.00  0.00    +0.000 A 
ATOM      3  C   UNL     1      45.512   7.982  12.985  0.00  0.00    +0.000 A 
ATOM      4  C   UNL     1      46.913   7.957  13.040  0.00  0.00    +0.000 A 
ATOM      5  C   UNL     1      47.600   7.136  12.139  0.00  0.00    +0.000 A 
ATOM      6  C   UNL     1      46.906   6.364  11.201  0.00  0.00    +0.000 A 
ENDROOT
BRANCH   1   7
ATOM      7  C   UNL     1      44.748   5.519  10.161  0.00  0.00    +0.000 C 
BRANCH   7   8
ATOM      8  N   UNL     1      44.202   4.278  10.744  0.00  0.00    +0.000 NA
ATOM      9  C   UNL     1      45.185   3.703  11.672  0.00  0.00    +0.000 C 
BRANCH   8  10
ATOM     10  C   UNL     1      43.859   3.309   9.683  0.00  0.00    +0.000 C 
BRANCH  10  16
ATOM     11  C   UNL     1      46.916  -0.164   7.678  0.00  0.00    +0.000 C 
ATOM     12  C   UNL     1      46.478   1.267   7.779  0.00  0.00    +0.000 A 
ATOM     13  C   UNL     1      47.103   2.269   7.029  0.00  0.00    +0.000 A 
ATOM     14  C   UNL     1      46.705   3.599   7.158  0.00  0.00    +0.000 A 
ATOM     15  C   UNL     1      45.672   3.941   8.031  0.00  0.00    +0.000 A 
ATOM     16  C   UNL     1      45.020   2.951   8.778  0.00  0.00    +0.000 A 
ATOM     17  C   UNL     1      45.435   1.616   8.645  0.00  0.00    +0.000 A 
ENDBRANCH  10  16
ENDBRANCH   8  10
ENDBRANCH   7   8
ENDBRANCH   1   7
BRANCH   4  18
ATOM     18  C   UNL     1      47.658   8.756  14.081  0.00  0.00    +0.000 C 
BRANCH  18  19
ATOM     19  N   UNL     1      48.034   7.926  15.197  0.00  0.00    +0.000 N 
ATOM     20  C   UNL     1      49.253   7.298  15.261  0.00  0.00    +0.000 C 
ATOM     21  O   UNL     1      50.164   7.532  14.474  0.00  0.00    +0.000 OA
ATOM     22  H   UNL     1      47.295   7.636  15.825  0.00  0.00    +0.000 HD
BRANCH  20  23
ATOM     23  C   UNL     1      49.415   6.363  16.378  0.00  0.00    +0.000 A 
ATOM     24  C   UNL     1      50.465   6.493  17.270  0.00  0.00    +0.000 A 
ATOM     25  S   UNL     1      50.414   5.353  18.540  0.00  0.00    +0.000 S 
ATOM     26  C   UNL     1      49.025   4.616  17.892  0.00  0.00    +0.000 A 
ATOM     27  N   UNL     1      48.461   3.560  18.504  0.00  0.00    +0.000 NA
ATOM     28  C   UNL     1      47.399   3.086  17.844  0.00  0.00    +0.000 A 
ATOM     29  N   UNL     1      46.893   3.531  16.686  0.00  0.00    +0.000 NA
ATOM     30  C   UNL     1      47.500   4.584  16.134  0.00  0.00    +0.000 A 
ATOM     31  C   UNL     1      48.595   5.216  16.717  0.00  0.00    +0.000 A 
BRANCH  30  32
ATOM     32  O   UNL     1      46.942   4.989  14.957  0.00  0.00    +0.000 OA
ATOM     33  H   UNL     1      46.227   5.567  15.280  0.00  0.00    +0.000 HD
ENDBRANCH  30  32
ENDBRANCH  20  23
ENDBRANCH  18  19
ENDBRANCH   4  18
TORSDOF 8
ENDMDL
MODEL 5
REMARK VINA RESULT:    -7.413      3.501      8.457
REMARK INTER + INTRA:         -11.829
REMARK INTER:                  -9.556
REMARK INTRA:                  -2.273
REMARK UNBOUND:                -1.165
REMARK  Name = 
REMARK  10 active torsions:
REMARK  status: ('A' for Active; 'I' for Inactive)
REMARK    1  A    between atoms: C_1  and  C_2
REMARK    2  A    between atoms: C_6  and  C_7
REMARK    3  A    between atoms: C_7  and  N_8
REMARK    4  A    between atoms: N_8  and  C_9
REMARK    5  A    between atoms: N_8  and  C_10
REMARK    6  A    between atoms: C_10  and  C_11
REMARK    7  A    between atoms: C_14  and  C_15
REMARK    8  A    between atoms: C_15  and  N_16
REMARK    9  A    between atoms: C_17  and  C_19
REMARK   10  A    between atoms: C_26  and  O_27
REMARK                            x       y       z     vdW  Elec       q    Type
REMARK                         _______ _______ _______ _____ _____    ______ ____
ROOT
ATOM      1  C   UNL     1      49.751   7.408  18.115  0.00  0.00    +0.000 A 
ATOM      2  C   UNL     1      50.702   6.778  17.298  0.00  0.00    +0.000 A 
ATOM      3  C   UNL     1      50.632   6.885  15.909  0.00  0.00    +0.000 A 
ATOM      4  C   UNL     1      49.613   7.627  15.294  0.00  0.00    +0.000 A 
ATOM      5  C   UNL     1      48.664   8.256  16.108  0.00  0.00    +0.000 A 
ATOM      6  C   UNL     1      48.734   8.151  17.502  0.00  0.00    +0.000 A 
ENDROOT
BRANCH   1   7
ATOM      7  C   UNL     1      49.804   7.257  19.624  0.00  0.00    +0.000 C 
BRANCH   7   8
ATOM      8  N   UNL     1      48.531   6.829  20.234  0.00  0.00    +0.000 NA
ATOM      9  C   UNL     1      48.389   7.457  21.554  0.00  0.00    +0.000 C 
BRANCH   8  10
ATOM     10  C   UNL     1      48.475   5.357  20.349  0.00  0.00    +0.000 C 
BRANCH  10  16
ATOM     11  C   UNL     1      50.303   2.037  17.022  0.00  0.00    +0.000 C 
ATOM     12  C   UNL     1      49.231   3.007  17.423  0.00  0.00    +0.000 A 
ATOM     13  C   UNL     1      48.121   3.236  16.603  0.00  0.00    +0.000 A 
ATOM     14  C   UNL     1      47.149   4.165  16.975  0.00  0.00    +0.000 A 
ATOM     15  C   UNL     1      47.272   4.867  18.174  0.00  0.00    +0.000 A 
ATOM     16  C   UNL     1      48.367   4.640  19.018  0.00  0.00    +0.000 A 
ATOM     17  C   UNL     1      49.343   3.708  18.630  0.00  0.00    +0.000 A 
ENDBRANCH  10  16
ENDBRANCH   8  10
ENDBRANCH   7   8
ENDBRANCH   1   7
BRANCH   4  18
ATOM     18  C   UNL     1      49.514   7.702  13.791  0.00  0.00    +0.000 C 
BRANCH  18  19
ATOM     19  N   UNL     1      48.150   7.539  13.355  0.00  0.00    +0.000 N 
ATOM     20  C   UNL     1      47.614   6.305  13.082  0.00  0.00    +0.000 C 
ATOM     21  O   UNL     1      48.188   5.256  13.352  0.00  0.00    +0.000 OA
ATOM     22  H   UNL     1      47.666   8.370  13.038  0.00  0.00    +0.000 HD
BRANCH  20  23
ATOM     23  C   UNL     1      46.271   6.325  12.493  0.00  0.00    +0.000 A 
ATOM     24  C   UNL     1      45.737   7.493  11.977  0.00  0.00    +0.000 A 
ATOM     25  S   UNL     1      44.201   7.271  11.264  0.00  0.00    +0.000 S 
ATOM     26  C   UNL     1      44.184   5.625  11.689  0.00  0.00    +0.000 A 
ATOM     27  N   UNL     1      43.135   4.846  11.371  0.00  0.00    +0.000 NA
ATOM     28  C   UNL     1      43.272   3.589  11.808  0.00  0.00    +0.000 A 
ATOM     29  N   UNL     1      44.291   3.076  12.510  0.00  0.00    +0.000 NA
ATOM     30  C   UNL     1      45.301   3.904  12.789  0.00  0.00    +0.000 A 
ATOM     31  C   UNL     1      45.326   5.232  12.372  0.00  0.00    +0.000 A 
BRANCH  30  32
ATOM     32  O   UNL     1      46.306   3.326  13.507  0.00  0.00    +0.000 OA
ATOM     33  H   UNL     1      45.827   2.598  13.944  0.00  0.00    +0.000 HD
ENDBRANCH  30  32
ENDBRANCH  20  23
ENDBRANCH  18  19
ENDBRANCH   4  18
TORSDOF 8
ENDMDL
MODEL 6
REMARK VINA RESULT:    -6.915      3.211      9.293
REMARK INTER + INTRA:         -11.113
REMARK INTER:                  -8.888
REMARK INTRA:                  -2.225
REMARK UNBOUND:                -1.165
REMARK  Name = 
REMARK  10 active torsions:
REMARK  status: ('A' for Active; 'I' for Inactive)
REMARK    1  A    between atoms: C_1  and  C_2
REMARK    2  A    between atoms: C_6  and  C_7
REMARK    3  A    between atoms: C_7  and  N_8
REMARK    4  A    between atoms: N_8  and  C_9
REMARK    5  A    between atoms: N_8  and  C_10
REMARK    6  A    between atoms: C_10  and  C_11
REMARK    7  A    between atoms: C_14  and  C_15
REMARK    8  A    between atoms: C_15  and  N_16
REMARK    9  A    between atoms: C_17  and  C_19
REMARK   10  A    between atoms: C_26  and  O_27
REMARK                            x       y       z     vdW  Elec       q    Type
REMARK                         _______ _______ _______ _____ _____    ______ ____
ROOT
ATOM      1  C   UNL     1      49.746   5.967  19.539  0.00  0.00    +0.000 A 
ATOM      2  C   UNL     1      50.230   4.968  18.682  0.00  0.00    +0.000 A 
ATOM      3  C   UNL     1      49.358   4.239  17.872  0.00  0.00    +0.000 A 
ATOM      4  C   UNL     1      47.978   4.490  17.892  0.00  0.00    +0.000 A 
ATOM      5  C   UNL     1      47.494   5.486  18.747  0.00  0.00    +0.000 A 
ATOM      6  C   UNL     1      48.368   6.219  19.559  0.00  0.00    +0.000 A 
ENDROOT
BRANCH   1   7
ATOM      7  C   UNL     1      50.690   6.730  20.450  0.00  0.00    +0.000 C 
BRANCH   7   8
ATOM      8  N   UNL     1      51.665   7.579  19.737  0.00  0.00    +0.000 NA
ATOM      9  C   UNL     1      52.876   7.720  20.556  0.00  0.00    +0.000 C 
BRANCH   8  10
ATOM     10  C   UNL     1      51.082   8.903  19.436  0.00  0.00    +0.000 C 
BRANCH  10  16
ATOM     11  C   UNL     1      50.319   7.679  14.604  0.00  0.00    +0.000 C 
ATOM     12  C   UNL     1      49.817   8.298  15.874  0.00  0.00    +0.000 A 
ATOM     13  C   UNL     1      48.538   8.863  15.946  0.00  0.00    +0.000 A 
ATOM     14  C   UNL     1      48.097   9.463  17.125  0.00  0.00    +0.000 A 
ATOM     15  C   UNL     1      48.926   9.497  18.247  0.00  0.00    +0.000 A 
ATOM     16  C   UNL     1      50.202   8.921  18.203  0.00  0.00    +0.000 A 
ATOM     17  C   UNL     1      50.638   8.326  17.008  0.00  0.00    +0.000 A 
ENDBRANCH  10  16
ENDBRANCH   8  10
ENDBRANCH   7   8
ENDBRANCH   1   7
BRANCH   4  18
ATOM     18  C   UNL     1      47.034   3.668  17.050  0.00  0.00    +0.000 C 
BRANCH  18  19
ATOM     19  N   UNL     1      46.634   4.390  15.869  0.00  0.00    +0.000 N 
ATOM     20  C   UNL     1      47.013   3.996  14.610  0.00  0.00    +0.000 C 
ATOM     21  O   UNL     1      47.562   2.923  14.386  0.00  0.00    +0.000 OA
ATOM     22  H   UNL     1      46.256   5.320  16.003  0.00  0.00    +0.000 HD
BRANCH  20  23
ATOM     23  C   UNL     1      46.663   4.927  13.533  0.00  0.00    +0.000 A 
ATOM     24  C   UNL     1      47.119   6.234  13.545  0.00  0.00    +0.000 A 
ATOM     25  S   UNL     1      46.665   7.116  12.155  0.00  0.00    +0.000 S 
ATOM     26  C   UNL     1      45.792   5.795  11.537  0.00  0.00    +0.000 A 
ATOM     27  N   UNL     1      45.149   5.888  10.360  0.00  0.00    +0.000 NA
ATOM     28  C   UNL     1      44.488   4.771  10.040  0.00  0.00    +0.000 A 
ATOM     29  N   UNL     1      44.400   3.642  10.757  0.00  0.00    +0.000 NA
ATOM     30  C   UNL     1      45.066   3.615  11.915  0.00  0.00    +0.000 A 
ATOM     31  C   UNL     1      45.830   4.686  12.370  0.00  0.00    +0.000 A 
BRANCH  30  32
ATOM     32  O   UNL     1      44.935   2.443  12.600  0.00  0.00    +0.000 OA
ATOM     33  H   UNL     1      45.864   2.151  12.644  0.00  0.00    +0.000 HD
ENDBRANCH  30  32
ENDBRANCH  20  23
ENDBRANCH  18  19
ENDBRANCH   4  18
TORSDOF 8
ENDMDL
MODEL 7
REMARK VINA RESULT:    -6.730      2.350      3.089
REMARK INTER + INTRA:         -10.845
REMARK INTER:                 -10.839
REMARK INTRA:                  -0.006
REMARK UNBOUND:                -1.165
REMARK  Name = 
REMARK  10 active torsions:
REMARK  status: ('A' for Active; 'I' for Inactive)
REMARK    1  A    between atoms: C_1  and  C_2
REMARK    2  A    between atoms: C_6  and  C_7
REMARK    3  A    between atoms: C_7  and  N_8
REMARK    4  A    between atoms: N_8  and  C_9
REMARK    5  A    between atoms: N_8  and  C_10
REMARK    6  A    between atoms: C_10  and  C_11
REMARK    7  A    between atoms: C_14  and  C_15
REMARK    8  A    between atoms: C_15  and  N_16
REMARK    9  A    between atoms: C_17  and  C_19
REMARK   10  A    between atoms: C_26  and  O_27
REMARK                            x       y       z     vdW  Elec       q    Type
REMARK                         _______ _______ _______ _____ _____    ______ ____
ROOT
ATOM      1  C   UNL     1      46.106   6.550  11.548  0.00  0.00    +0.000 A 
ATOM      2  C   UNL     1      47.416   6.393  12.026  0.00  0.00    +0.000 A 
ATOM      3  C   UNL     1      47.941   7.274  12.971  0.00  0.00    +0.000 A 
ATOM      4  C   UNL     1      47.173   8.337  13.469  0.00  0.00    +0.000 A 
ATOM      5  C   UNL     1      45.867   8.496  12.992  0.00  0.00    +0.000 A 
ATOM      6  C   UNL     1      45.338   7.611  12.046  0.00  0.00    +0.000 A 
ENDROOT
BRANCH   1   7
ATOM      7  C   UNL     1      45.550   5.615  10.489  0.00  0.00    +0.000 C 
BRANCH   7   8
ATOM      8  N   UNL     1      44.599   4.613  11.007  0.00  0.00    +0.000 NA
ATOM      9  C   UNL     1      45.263   3.797  12.032  0.00  0.00    +0.000 C 
BRANCH   8  10
ATOM     10  C   UNL     1      44.090   3.761   9.912  0.00  0.00    +0.000 C 
BRANCH  10  16
ATOM     11  C   UNL     1      46.774   0.101   7.714  0.00  0.00    +0.000 C 
ATOM     12  C   UNL     1      46.429   1.556   7.833  0.00  0.00    +0.000 A 
ATOM     13  C   UNL     1      47.051   2.514   7.025  0.00  0.00    +0.000 A 
ATOM     14  C   UNL     1      46.742   3.867   7.170  0.00  0.00    +0.000 A 
ATOM     15  C   UNL     1      45.802   4.274   8.117  0.00  0.00    +0.000 A 
ATOM     16  C   UNL     1      45.154   3.330   8.924  0.00  0.00    +0.000 A 
ATOM     17  C   UNL     1      45.479   1.971   8.774  0.00  0.00    +0.000 A 
ENDBRANCH  10  16
ENDBRANCH   8  10
ENDBRANCH   7   8
ENDBRANCH   1   7
BRANCH   4  18
ATOM     18  C   UNL     1      47.761   9.316  14.455  0.00  0.00    +0.000 C 
BRANCH  18  19
ATOM     19  N   UNL     1      47.563   8.866  15.809  0.00  0.00    +0.000 N 
ATOM     20  C   UNL     1      48.035   9.572  16.888  0.00  0.00    +0.000 C 
ATOM     21  O   UNL     1      48.497  10.703  16.793  0.00  0.00    +0.000 OA
ATOM     22  H   UNL     1      47.266   7.907  15.937  0.00  0.00    +0.000 HD
BRANCH  20  23
ATOM     23  C   UNL     1      47.895   8.898  18.183  0.00  0.00    +0.000 A 
ATOM     24  C   UNL     1      48.229   7.563  18.330  0.00  0.00    +0.000 A 
ATOM     25  S   UNL     1      48.072   7.005  19.937  0.00  0.00    +0.000 S 
ATOM     26  C   UNL     1      47.491   8.515  20.460  0.00  0.00    +0.000 A 
ATOM     27  N   UNL     1      47.160   8.714  21.748  0.00  0.00    +0.000 NA
ATOM     28  C   UNL     1      46.692   9.944  21.979  0.00  0.00    +0.000 A 
ATOM     29  N   UNL     1      46.514  10.930  21.088  0.00  0.00    +0.000 NA
ATOM     30  C   UNL     1      46.867  10.667  19.827  0.00  0.00    +0.000 A 
ATOM     31  C   UNL     1      47.405   9.444  19.433  0.00  0.00    +0.000 A 
BRANCH  30  32
ATOM     32  O   UNL     1      46.660  11.706  18.968  0.00  0.00    +0.000 OA
ATOM     33  H   UNL     1      47.119  11.381  18.172  0.00  0.00    +0.000 HD
ENDBRANCH  30  32
ENDBRANCH  20  23
ENDBRANCH  18  19
ENDBRANCH   4  18
TORSDOF 8
ENDMDL
MODEL 8
REMARK VINA RESULT:    -6.689      3.969      9.433
REMARK INTER + INTRA:         -10.787
REMARK INTER:                  -9.248
REMARK INTRA:                  -1.538
REMARK UNBOUND:                -1.165
REMARK  Name = 
REMARK  10 active torsions:
REMARK  status: ('A' for Active; 'I' for Inactive)
REMARK    1  A    between atoms: C_1  and  C_2
REMARK    2  A    between atoms: C_6  and  C_7
REMARK    3  A    between atoms: C_7  and  N_8
REMARK    4  A    between atoms: N_8  and  C_9
REMARK    5  A    between atoms: N_8  and  C_10
REMARK    6  A    between atoms: C_10  and  C_11
REMARK    7  A    between atoms: C_14  and  C_15
REMARK    8  A    between atoms: C_15  and  N_16
REMARK    9  A    between atoms: C_17  and  C_19
REMARK   10  A    between atoms: C_26  and  O_27
REMARK                            x       y       z     vdW  Elec       q    Type
REMARK                         _______ _______ _______ _____ _____    ______ ____
ROOT
ATOM      1  C   UNL     1      50.338   8.397  14.783  0.00  0.00    +0.000 A 
ATOM      2  C   UNL     1      50.216   7.769  13.535  0.00  0.00    +0.000 A 
ATOM      3  C   UNL     1      49.020   7.829  12.820  0.00  0.00    +0.000 A 
ATOM      4  C   UNL     1      47.911   8.522  13.329  0.00  0.00    +0.000 A 
ATOM      5  C   UNL     1      48.031   9.148  14.575  0.00  0.00    +0.000 A 
ATOM      6  C   UNL     1      49.232   9.090  15.292  0.00  0.00    +0.000 A 
ENDROOT
BRANCH   1   7
ATOM      7  C   UNL     1      51.627   8.295  15.579  0.00  0.00    +0.000 C 
BRANCH   7   8
ATOM      8  N   UNL     1      51.461   7.724  16.930  0.00  0.00    +0.000 NA
ATOM      9  C   UNL     1      52.702   7.911  17.692  0.00  0.00    +0.000 C 
BRANCH   8  10
ATOM     10  C   UNL     1      51.107   6.292  16.852  0.00  0.00    +0.000 C 
BRANCH  10  16
ATOM     11  C   UNL     1      47.316   3.027  17.481  0.00  0.00    +0.000 C 
ATOM     12  C   UNL     1      47.919   4.373  17.752  0.00  0.00    +0.000 A 
ATOM     13  C   UNL     1      47.255   5.316  18.544  0.00  0.00    +0.000 A 
ATOM     14  C   UNL     1      47.815   6.575  18.762  0.00  0.00    +0.000 A 
ATOM     15  C   UNL     1      49.049   6.900  18.198  0.00  0.00    +0.000 A 
ATOM     16  C   UNL     1      49.740   5.965  17.417  0.00  0.00    +0.000 A 
ATOM     17  C   UNL     1      49.163   4.703  17.199  0.00  0.00    +0.000 A 
ENDBRANCH  10  16
ENDBRANCH   8  10
ENDBRANCH   7   8
ENDBRANCH   1   7
BRANCH   4  18
ATOM     18  C   UNL     1      46.604   8.545  12.575  0.00  0.00    +0.000 C 
BRANCH  18  19
ATOM     19  N   UNL     1      46.138   7.208  12.309  0.00  0.00    +0.000 N 
ATOM     20  C   UNL     1      44.933   6.964  11.698  0.00  0.00    +0.000 C 
ATOM     21  O   UNL     1      44.257   7.848  11.184  0.00  0.00    +0.000 OA
ATOM     22  H   UNL     1      46.614   6.451  12.784  0.00  0.00    +0.000 HD
BRANCH  20  23
ATOM     23  C   UNL     1      44.532   5.555  11.650  0.00  0.00    +0.000 A 
ATOM     24  C   UNL     1      43.949   4.943  12.746  0.00  0.00    +0.000 A 
ATOM     25  S   UNL     1      43.483   3.328  12.444  0.00  0.00    +0.000 S 
ATOM     26  C   UNL     1      44.111   3.387  10.865  0.00  0.00    +0.000 A 
ATOM     27  N   UNL     1      44.037   2.314  10.058  0.00  0.00    +0.000 NA
ATOM     28  C   UNL     1      44.607   2.523   8.866  0.00  0.00    +0.000 A 
ATOM     29  N   UNL     1      45.225   3.633   8.441  0.00  0.00    +0.000 NA
ATOM     30  C   UNL     1      45.259   4.662   9.291  0.00  0.00    +0.000 A 
ATOM     31  C   UNL     1      44.678   4.615  10.556  0.00  0.00    +0.000 A 
BRANCH  30  32
ATOM     32  O   UNL     1      45.903   5.760   8.804  0.00  0.00    +0.000 OA
ATOM     33  H   UNL     1      45.326   6.474   9.132  0.00  0.00    +0.000 HD
ENDBRANCH  30  32
ENDBRANCH  20  23
ENDBRANCH  18  19
ENDBRANCH   4  18
TORSDOF 8
ENDMDL
MODEL 9
REMARK VINA RESULT:    -6.672      5.465      9.489
REMARK INTER + INTRA:         -10.762
REMARK INTER:                  -9.026
REMARK INTRA:                  -1.736
REMARK UNBOUND:                -1.165
REMARK  Name = 
REMARK  10 active torsions:
REMARK  status: ('A' for Active; 'I' for Inactive)
REMARK    1  A    between atoms: C_1  and  C_2
REMARK    2  A    between atoms: C_6  and  C_7
REMARK    3  A    between atoms: C_7  and  N_8
REMARK    4  A    between atoms: N_8  and  C_9
REMARK    5  A    between atoms: N_8  and  C_10
REMARK    6  A    between atoms: C_10  and  C_11
REMARK    7  A    between atoms: C_14  and  C_15
REMARK    8  A    between atoms: C_15  and  N_16
REMARK    9  A    between atoms: C_17  and  C_19
REMARK   10  A    between atoms: C_26  and  O_27
REMARK                            x       y       z     vdW  Elec       q    Type
REMARK                         _______ _______ _______ _____ _____    ______ ____
ROOT
ATOM      1  C   UNL     1      50.526   8.928  12.270  0.00  0.00    +0.000 A 
ATOM      2  C   UNL     1      49.814   9.592  13.280  0.00  0.00    +0.000 A 
ATOM      3  C   UNL     1      48.460   9.329  13.490  0.00  0.00    +0.000 A 
ATOM      4  C   UNL     1      47.778   8.392  12.700  0.00  0.00    +0.000 A 
ATOM      5  C   UNL     1      48.487   7.729  11.691  0.00  0.00    +0.000 A 
ATOM      6  C   UNL     1      49.846   7.991  11.481  0.00  0.00    +0.000 A 
ENDROOT
BRANCH   1   7
ATOM      7  C   UNL     1      51.988   9.246  12.016  0.00  0.00    +0.000 C 
BRANCH   7   8
ATOM      8  N   UNL     1      52.250   9.888  10.713  0.00  0.00    +0.000 NA
ATOM      9  C   UNL     1      53.672   9.744  10.378  0.00  0.00    +0.000 C 
BRANCH   8  10
ATOM     10  C   UNL     1      51.864  11.314  10.747  0.00  0.00    +0.000 C 
BRANCH  10  16
ATOM     11  C   UNL     1      46.926  12.059  10.045  0.00  0.00    +0.000 C 
ATOM     12  C   UNL     1      48.322  12.055   9.497  0.00  0.00    +0.000 A 
ATOM     13  C   UNL     1      48.576  12.397   8.164  0.00  0.00    +0.000 A 
ATOM     14  C   UNL     1      49.876  12.358   7.661  0.00  0.00    +0.000 A 
ATOM     15  C   UNL     1      50.937  11.988   8.488  0.00  0.00    +0.000 A 
ATOM     16  C   UNL     1      50.708  11.660   9.830  0.00  0.00    +0.000 A 
ATOM     17  C   UNL     1      49.394  11.694  10.323  0.00  0.00    +0.000 A 
ENDBRANCH  10  16
ENDBRANCH   8  10
ENDBRANCH   7   8
ENDBRANCH   1   7
BRANCH   4  18
ATOM     18  C   UNL     1      46.303   8.144  12.899  0.00  0.00    +0.000 C 
BRANCH  18  19
ATOM     19  N   UNL     1      45.935   6.826  12.448  0.00  0.00    +0.000 N 
ATOM     20  C   UNL     1      44.772   6.589  11.759  0.00  0.00    +0.000 C 
ATOM     21  O   UNL     1      44.059   7.488  11.329  0.00  0.00    +0.000 OA
ATOM     22  H   UNL     1      46.442   6.045  12.847  0.00  0.00    +0.000 HD
BRANCH  20  23
ATOM     23  C   UNL     1      44.467   5.175  11.518  0.00  0.00    +0.000 A 
ATOM     24  C   UNL     1      43.824   4.412  12.478  0.00  0.00    +0.000 A 
ATOM     25  S   UNL     1      43.491   2.820  11.957  0.00  0.00    +0.000 S 
ATOM     26  C   UNL     1      44.257   3.092  10.464  0.00  0.00    +0.000 A 
ATOM     27  N   UNL     1      44.327   2.116   9.541  0.00  0.00    +0.000 NA
ATOM     28  C   UNL     1      44.990   2.489   8.442  0.00  0.00    +0.000 A 
ATOM     29  N   UNL     1      45.574   3.671   8.203  0.00  0.00    +0.000 NA
ATOM     30  C   UNL     1      45.464   4.596   9.160  0.00  0.00    +0.000 A 
ATOM     31  C   UNL     1      44.773   4.375  10.348  0.00  0.00    +0.000 A 
BRANCH  30  32
ATOM     32  O   UNL     1      46.080   5.776   8.861  0.00  0.00    +0.000 OA
ATOM     33  H   UNL     1      46.733   5.831   9.582  0.00  0.00    +0.000 HD
ENDBRANCH  30  32
ENDBRANCH  20  23
ENDBRANCH  18  19
ENDBRANCH   4  18
TORSDOF 8
ENDMDL
