MODEL 1
REMARK VINA RESULT:    -7.734      0.000      0.000
REMARK INTER + INTRA:         -12.642
REMARK INTER:                 -11.125
REMARK INTRA:                  -1.517
REMARK UNBOUND:                -1.517
REMARK  Name = 
REMARK  8 active torsions:
REMARK  status: ('A' for Active; 'I' for Inactive)
REMARK    1  A    between atoms: C_2  and  C_21
REMARK    2  A    between atoms: N_3  and  CA_4
REMARK    3  A    between atoms: CA_4  and  C_5
REMARK    4  A    between atoms: CA_4  and  C_7
REMARK    5  A    between atoms: C_5  and  O_6
REMARK    6  A    between atoms: C_11  and  C_12
REMARK    7  A    between atoms: C_12  and  O_13
REMARK    8  A    between atoms: O_13  and  C_14
REMARK                            x       y       z     vdW  Elec       q    Type
REMARK                         _______ _______ _______ _____ _____    ______ ____
ROOT
ATOM      1  CA  UNL     1      47.384   5.008  14.224  0.00  0.00    +0.000 C 
ENDROOT
BRANCH   1   2
ATOM      2  C   UNL     1      46.383   5.645  13.282  0.00  0.00    +0.000 A 
ATOM      3  C   UNL     1      46.417   7.012  12.962  0.00  0.00    +0.000 A 
ATOM      4  C   UNL     1      45.523   7.559  12.046  0.00  0.00    +0.000 A 
ATOM      5  C   UNL     1      44.583   6.742  11.428  0.00  0.00    +0.000 A 
ATOM      6  C   UNL     1      44.538   5.373  11.719  0.00  0.00    +0.000 A 
ATOM      7  C   UNL     1      45.415   4.839  12.672  0.00  0.00    +0.000 A 
BRANCH   6   8
ATOM      8  C   UNL     1      43.573   4.476  10.991  0.00  0.00    +0.000 C 
BRANCH   8   9
ATOM      9  O   UNL     1      43.674   4.737   9.598  0.00  0.00    +0.000 OA
BRANCH   9  10
ATOM     10  C   UNL     1      44.558   3.861   9.010  0.00  0.00    +0.000 A 
ATOM     11  N   UNL     1      45.377   4.403   8.101  0.00  0.00    +0.000 NA
ATOM     12  C   UNL     1      46.239   3.553   7.512  0.00  0.00    +0.000 A 
ATOM     13  C   UNL     1      46.314   2.211   7.808  0.00  0.00    +0.000 A 
ATOM     14  C   UNL     1      45.438   1.769   8.768  0.00  0.00    +0.000 A 
ATOM     15  N   UNL     1      44.549   2.569   9.383  0.00  0.00    +0.000 NA
ENDBRANCH   9  10
ENDBRANCH   8   9
ENDBRANCH   6   8
ENDBRANCH   1   2
BRANCH   1  18
ATOM     16  O   UNL     1      49.779   6.099  15.457  0.00  0.00    +0.000 OA
ATOM     17  C   UNL     1      48.685   6.218  15.987  0.00  0.00    +0.000 C 
ATOM     18  N   UNL     1      47.500   5.757  15.456  0.00  0.00    +0.000 N 
ATOM     19  H   UNL     1      46.657   5.792  16.008  0.00  0.00    +0.000 HD
BRANCH  17  20
ATOM     20  C   UNL     1      48.477   6.641  17.363  0.00  0.00    +0.000 A 
ATOM     21  C   UNL     1      48.501   7.969  17.741  0.00  0.00    +0.000 A 
ATOM     22  S   UNL     1      48.902   8.133  19.404  0.00  0.00    +0.000 S 
ATOM     23  C   UNL     1      48.869   6.443  19.638  0.00  0.00    +0.000 A 
ATOM     24  N   UNL     1      49.273   5.852  20.794  0.00  0.00    +0.000 NA
ATOM     25  C   UNL     1      49.123   4.567  20.812  0.00  0.00    +0.000 A 
ATOM     26  N   UNL     1      48.553   3.825  19.807  0.00  0.00    +0.000 N 
ATOM     27  C   UNL     1      48.124   4.379  18.626  0.00  0.00    +0.000 A 
ATOM     28  O   UNL     1      47.554   3.715  17.769  0.00  0.00    +0.000 OA
ATOM     29  C   UNL     1      48.402   5.795  18.517  0.00  0.00    +0.000 A 
ATOM     30  H   UNL     1      48.378   2.837  19.923  0.00  0.00    +0.000 HD
ENDBRANCH  17  20
ENDBRANCH   1  18
BRANCH   1  31
ATOM     31  C   UNL     1      47.014   3.550  14.583  0.00  0.00    +0.000 C 
BRANCH  31  32
ATOM     32  O   UNL     1      48.128   2.858  15.167  0.00  0.00    +0.000 OA
ATOM     33  H   UNL     1      48.431   2.211  14.502  0.00  0.00    +0.000 HD
ENDBRANCH  31  32
ENDBRANCH   1  31
TORSDOF 8
ENDMDL
MODEL 2
REMARK VINA RESULT:    -7.459      1.841      2.751
REMARK INTER + INTRA:         -12.246
REMARK INTER:                 -11.540
REMARK INTRA:                  -0.706
REMARK UNBOUND:                -1.517
REMARK  Name = 
REMARK  8 active torsions:
REMARK  status: ('A' for Active; 'I' for Inactive)
REMARK    1  A    between atoms: C_2  and  C_21
REMARK    2  A    between atoms: N_3  and  CA_4
REMARK    3  A    between atoms: CA_4  and  C_5
REMARK    4  A    between atoms: CA_4  and  C_7
REMARK    5  A    between atoms: C_5  and  O_6
REMARK    6  A    between atoms: C_11  and  C_12
REMARK    7  A    between atoms: C_12  and  O_13
REMARK    8  A    between atoms: O_13  and  C_14
REMARK                            x       y       z     vdW  Elec       q    Type
REMARK                         _______ _______ _______ _____ _____    ______ ____
ROOT
ATOM      1  CA  UNL     1      46.472   7.474  12.486  0.00  0.00    +0.000 C 
ENDROOT
BRANCH   1   2
ATOM      2  C   UNL     1      45.528   6.319  12.224  0.00  0.00    +0.000 A 
ATOM      3  C   UNL     1      44.674   5.808  13.216  0.00  0.00    +0.000 A 
ATOM      4  C   UNL     1      43.772   4.787  12.932  0.00  0.00    +0.000 A 
ATOM      5  C   UNL     1      43.703   4.267  11.645  0.00  0.00    +0.000 A 
ATOM      6  C   UNL     1      44.532   4.770  10.635  0.00  0.00    +0.000 A 
ATOM      7  C   UNL     1      45.465   5.769  10.939  0.00  0.00    +0.000 A 
BRANCH   6   8
ATOM      8  C   UNL     1      44.400   4.261   9.224  0.00  0.00    +0.000 C 
BRANCH   8   9
ATOM      9  O   UNL     1      44.544   2.848   9.237  0.00  0.00    +0.000 OA
BRANCH   9  10
ATOM     10  C   UNL     1      45.574   2.464   8.408  0.00  0.00    +0.000 A 
ATOM     11  N   UNL     1      46.090   3.439   7.651  0.00  0.00    +0.000 NA
ATOM     12  C   UNL     1      47.091   3.074   6.829  0.00  0.00    +0.000 A 
ATOM     13  C   UNL     1      47.589   1.794   6.753  0.00  0.00    +0.000 A 
ATOM     14  C   UNL     1      46.996   0.879   7.588  0.00  0.00    +0.000 A 
ATOM     15  N   UNL     1      45.987   1.184   8.422  0.00  0.00    +0.000 NA
ENDBRANCH   9  10
ENDBRANCH   8   9
ENDBRANCH   6   8
ENDBRANCH   1   2
BRANCH   1  18
ATOM     16  O   UNL     1      48.796   5.889  13.218  0.00  0.00    +0.000 OA
ATOM     17  C   UNL     1      48.196   6.554  14.050  0.00  0.00    +0.000 C 
ATOM     18  N   UNL     1      47.108   7.354  13.781  0.00  0.00    +0.000 N 
ATOM     19  H   UNL     1      46.599   7.780  14.540  0.00  0.00    +0.000 HD
BRANCH  17  20
ATOM     20  C   UNL     1      48.372   6.429  15.488  0.00  0.00    +0.000 A 
ATOM     21  C   UNL     1      48.903   7.444  16.261  0.00  0.00    +0.000 A 
ATOM     22  S   UNL     1      49.603   6.824  17.702  0.00  0.00    +0.000 S 
ATOM     23  C   UNL     1      49.044   5.248  17.365  0.00  0.00    +0.000 A 
ATOM     24  N   UNL     1      49.411   4.164  18.099  0.00  0.00    +0.000 NA
ATOM     25  C   UNL     1      48.843   3.060  17.733  0.00  0.00    +0.000 A 
ATOM     26  N   UNL     1      47.900   2.948  16.742  0.00  0.00    +0.000 N 
ATOM     27  C   UNL     1      47.494   4.016  15.980  0.00  0.00    +0.000 A 
ATOM     28  O   UNL     1      46.601   3.914  15.147  0.00  0.00    +0.000 OA
ATOM     29  C   UNL     1      48.209   5.240  16.270  0.00  0.00    +0.000 A 
ATOM     30  H   UNL     1      47.426   2.074  16.569  0.00  0.00    +0.000 HD
ENDBRANCH  17  20
ENDBRANCH   1  18
BRANCH   1  31
ATOM     31  C   UNL     1      47.584   7.583  11.416  0.00  0.00    +0.000 C 
BRANCH  31  32
ATOM     32  O   UNL     1      48.489   8.658  11.711  0.00  0.00    +0.000 OA
ATOM     33  H   UNL     1      48.296   8.937  12.626  0.00  0.00    +0.000 HD
ENDBRANCH  31  32
ENDBRANCH   1  31
TORSDOF 8
ENDMDL
MODEL 3
REMARK VINA RESULT:    -7.192      4.354      6.316
REMARK INTER + INTRA:         -11.862
REMARK INTER:                 -10.904
REMARK INTRA:                  -0.958
REMARK UNBOUND:                -1.517
REMARK  Name = 
REMARK  8 active torsions:
REMARK  status: ('A' for Active; 'I' for Inactive)
REMARK    1  A    between atoms: C_2  and  C_21
REMARK    2  A    between atoms: N_3  and  CA_4
REMARK    3  A    between atoms: CA_4  and  C_5
REMARK    4  A    between atoms: CA_4  and  C_7
REMARK    5  A    between atoms: C_5  and  O_6
REMARK    6  A    between atoms: C_11  and  C_12
REMARK    7  A    between atoms: C_12  and  O_13
REMARK    8  A    between atoms: O_13  and  C_14
REMARK                            x       y       z     vdW  Elec       q    Type
REMARK                         _______ _______ _______ _____ _____    ______ ____
ROOT
ATOM      1  CA  UNL     1      47.621   6.673  12.160  0.00  0.00    +0.000 C 
ENDROOT
BRANCH   1   2
ATOM      2  C   UNL     1      46.364   5.828  12.125  0.00  0.00    +0.000 A 
ATOM      3  C   UNL     1      45.631   5.524  13.284  0.00  0.00    +0.000 A 
ATOM      4  C   UNL     1      44.446   4.797  13.216  0.00  0.00    +0.000 A 
ATOM      5  C   UNL     1      43.971   4.368  11.983  0.00  0.00    +0.000 A 
ATOM      6  C   UNL     1      44.675   4.670  10.811  0.00  0.00    +0.000 A 
ATOM      7  C   UNL     1      45.887   5.367  10.892  0.00  0.00    +0.000 A 
BRANCH   6   8
ATOM      8  C   UNL     1      44.118   4.274   9.470  0.00  0.00    +0.000 C 
BRANCH   8   9
ATOM      9  O   UNL     1      44.340   2.884   9.280  0.00  0.00    +0.000 OA
BRANCH   9  10
ATOM     10  C   UNL     1      45.371   2.681   8.389  0.00  0.00    +0.000 A 
ATOM     11  N   UNL     1      45.947   1.475   8.450  0.00  0.00    +0.000 NA
ATOM     12  C   UNL     1      46.963   1.269   7.591  0.00  0.00    +0.000 A 
ATOM     13  C   UNL     1      47.400   2.207   6.685  0.00  0.00    +0.000 A 
ATOM     14  C   UNL     1      46.724   3.402   6.700  0.00  0.00    +0.000 A 
ATOM     15  N   UNL     1      45.710   3.667   7.541  0.00  0.00    +0.000 NA
ENDBRANCH   9  10
ENDBRANCH   8   9
ENDBRANCH   6   8
ENDBRANCH   1   2
BRANCH   1  18
ATOM     16  O   UNL     1      46.688   8.773  13.939  0.00  0.00    +0.000 OA
ATOM     17  C   UNL     1      46.868   8.986  12.749  0.00  0.00    +0.000 C 
ATOM     18  N   UNL     1      47.335   8.057  11.846  0.00  0.00    +0.000 N 
ATOM     19  H   UNL     1      47.346   8.276  10.862  0.00  0.00    +0.000 HD
BRANCH  17  20
ATOM     20  C   UNL     1      46.395  10.165  12.042  0.00  0.00    +0.000 A 
ATOM     21  C   UNL     1      47.161  11.308  11.911  0.00  0.00    +0.000 A 
ATOM     22  S   UNL     1      46.173  12.692  11.665  0.00  0.00    +0.000 S 
ATOM     23  C   UNL     1      44.761  11.739  11.565  0.00  0.00    +0.000 A 
ATOM     24  N   UNL     1      43.513  12.275  11.519  0.00  0.00    +0.000 NA
ATOM     25  C   UNL     1      42.566  11.403  11.386  0.00  0.00    +0.000 A 
ATOM     26  N   UNL     1      42.755  10.051  11.237  0.00  0.00    +0.000 N 
ATOM     27  C   UNL     1      43.997   9.466  11.270  0.00  0.00    +0.000 A 
ATOM     28  O   UNL     1      44.154   8.269  11.065  0.00  0.00    +0.000 OA
ATOM     29  C   UNL     1      45.068  10.397  11.554  0.00  0.00    +0.000 A 
ATOM     30  H   UNL     1      41.980   9.435  11.042  0.00  0.00    +0.000 HD
ENDBRANCH  17  20
ENDBRANCH   1  18
BRANCH   1  31
ATOM     31  C   UNL     1      48.325   6.630  13.536  0.00  0.00    +0.000 C 
BRANCH  31  32
ATOM     32  O   UNL     1      49.733   6.876  13.409  0.00  0.00    +0.000 OA
ATOM     33  H   UNL     1      49.829   7.815  13.162  0.00  0.00    +0.000 HD
ENDBRANCH  31  32
ENDBRANCH   1  31
TORSDOF 8
ENDMDL
MODEL 4
REMARK VINA RESULT:    -7.166      2.508      3.034
REMARK INTER + INTRA:         -11.825
REMARK INTER:                 -10.288
REMARK INTRA:                  -1.537
REMARK UNBOUND:                -1.517
REMARK  Name = 
REMARK  8 active torsions:
REMARK  status: ('A' for Active; 'I' for Inactive)
REMARK    1  A    between atoms: C_2  and  C_21
REMARK    2  A    between atoms: N_3  and  CA_4
REMARK    3  A    between atoms: CA_4  and  C_5
REMARK    4  A    between atoms: CA_4  and  C_7
REMARK    5  A    between atoms: C_5  and  O_6
REMARK    6  A    between atoms: C_11  and  C_12
REMARK    7  A    between atoms: C_12  and  O_13
REMARK    8  A    between atoms: O_13  and  C_14
REMARK                            x       y       z     vdW  Elec       q    Type
REMARK                         _______ _______ _______ _____ _____    ______ ____
ROOT
ATOM      1  CA  UNL     1      46.996   4.743  13.813  0.00  0.00    +0.000 C 
ENDROOT
BRANCH   1   2
ATOM      2  C   UNL     1      45.747   4.819  12.959  0.00  0.00    +0.000 A 
ATOM      3  C   UNL     1      44.858   5.905  13.023  0.00  0.00    +0.000 A 
ATOM      4  C   UNL     1      43.751   5.978  12.182  0.00  0.00    +0.000 A 
ATOM      5  C   UNL     1      43.519   4.968  11.257  0.00  0.00    +0.000 A 
ATOM      6  C   UNL     1      44.398   3.882  11.164  0.00  0.00    +0.000 A 
ATOM      7  C   UNL     1      45.487   3.795  12.040  0.00  0.00    +0.000 A 
BRANCH   6   8
ATOM      8  C   UNL     1      44.190   2.829  10.108  0.00  0.00    +0.000 C 
BRANCH   8   9
ATOM      9  O   UNL     1      44.339   3.432   8.831  0.00  0.00    +0.000 OA
BRANCH   9  10
ATOM     10  C   UNL     1      45.415   2.887   8.167  0.00  0.00    +0.000 A 
ATOM     11  N   UNL     1      46.021   3.704   7.298  0.00  0.00    +0.000 NA
ATOM     12  C   UNL     1      47.068   3.178   6.635  0.00  0.00    +0.000 A 
ATOM     13  C   UNL     1      47.526   1.894   6.822  0.00  0.00    +0.000 A 
ATOM     14  C   UNL     1      46.838   1.152   7.751  0.00  0.00    +0.000 A 
ATOM     15  N   UNL     1      45.780   1.621   8.435  0.00  0.00    +0.000 NA
ENDBRANCH   9  10
ENDBRANCH   8   9
ENDBRANCH   6   8
ENDBRANCH   1   2
BRANCH   1  18
ATOM     16  O   UNL     1      49.055   6.427  12.642  0.00  0.00    +0.000 OA
ATOM     17  C   UNL     1      48.437   6.782  13.635  0.00  0.00    +0.000 C 
ATOM     18  N   UNL     1      47.428   6.059  14.232  0.00  0.00    +0.000 N 
ATOM     19  H   UNL     1      47.047   6.366  15.114  0.00  0.00    +0.000 HD
BRANCH  17  20
ATOM     20  C   UNL     1      48.818   7.896  14.489  0.00  0.00    +0.000 A 
ATOM     21  C   UNL     1      48.396   9.190  14.250  0.00  0.00    +0.000 A 
ATOM     22  S   UNL     1      49.479  10.331  14.941  0.00  0.00    +0.000 S 
ATOM     23  C   UNL     1      50.393   9.099  15.689  0.00  0.00    +0.000 A 
ATOM     24  N   UNL     1      51.571   9.338  16.322  0.00  0.00    +0.000 NA
ATOM     25  C   UNL     1      52.094   8.295  16.881  0.00  0.00    +0.000 A 
ATOM     26  N   UNL     1      51.520   7.048  16.915  0.00  0.00    +0.000 N 
ATOM     27  C   UNL     1      50.328   6.762  16.296  0.00  0.00    +0.000 A 
ATOM     28  O   UNL     1      49.795   5.664  16.396  0.00  0.00    +0.000 OA
ATOM     29  C   UNL     1      49.783   7.873  15.546  0.00  0.00    +0.000 A 
ATOM     30  H   UNL     1      51.934   6.298  17.449  0.00  0.00    +0.000 HD
ENDBRANCH  17  20
ENDBRANCH   1  18
BRANCH   1  31
ATOM     31  C   UNL     1      46.794   3.879  15.080  0.00  0.00    +0.000 C 
BRANCH  31  32
ATOM     32  O   UNL     1      48.045   3.373  15.570  0.00  0.00    +0.000 OA
ATOM     33  H   UNL     1      48.662   3.380  14.813  0.00  0.00    +0.000 HD
ENDBRANCH  31  32
ENDBRANCH   1  31
TORSDOF 8
ENDMDL
MODEL 5
REMARK VINA RESULT:    -7.011      1.829      2.997
REMARK INTER + INTRA:         -11.603
REMARK INTER:                 -10.375
REMARK INTRA:                  -1.228
REMARK UNBOUND:                -1.517
REMARK  Name = 
REMARK  8 active torsions:
REMARK  status: ('A' for Active; 'I' for Inactive)
REMARK    1  A    between atoms: C_2  and  C_21
REMARK    2  A    between atoms: N_3  and  CA_4
REMARK    3  A    between atoms: CA_4  and  C_5
REMARK    4  A    between atoms: CA_4  and  C_7
REMARK    5  A    between atoms: C_5  and  O_6
REMARK    6  A    between atoms: C_11  and  C_12
REMARK    7  A    between atoms: C_12  and  O_13
REMARK    8  A    between atoms: O_13  and  C_14
REMARK                            x       y       z     vdW  Elec       q    Type
REMARK                         _______ _______ _______ _____ _____    ______ ____
ROOT
ATOM      1  CA  UNL     1      47.592   5.159  14.439  0.00  0.00    +0.000 C 
ENDROOT
BRANCH   1   2
ATOM      2  C   UNL     1      46.662   5.645  13.346  0.00  0.00    +0.000 A 
ATOM      3  C   UNL     1      46.662   6.975  12.896  0.00  0.00    +0.000 A 
ATOM      4  C   UNL     1      45.841   7.380  11.847  0.00  0.00    +0.000 A 
ATOM      5  C   UNL     1      45.011   6.455  11.225  0.00  0.00    +0.000 A 
ATOM      6  C   UNL     1      45.003   5.119  11.646  0.00  0.00    +0.000 A 
ATOM      7  C   UNL     1      45.803   4.729  12.727  0.00  0.00    +0.000 A 
BRANCH   6   8
ATOM      8  C   UNL     1      44.163   4.103  10.920  0.00  0.00    +0.000 C 
BRANCH   8   9
ATOM      9  O   UNL     1      44.108   4.458   9.545  0.00  0.00    +0.000 OA
BRANCH   9  10
ATOM     10  C   UNL     1      45.010   3.710   8.822  0.00  0.00    +0.000 A 
ATOM     11  N   UNL     1      45.755   4.401   7.951  0.00  0.00    +0.000 NA
ATOM     12  C   UNL     1      46.633   3.679   7.231  0.00  0.00    +0.000 A 
ATOM     13  C   UNL     1      46.794   2.319   7.362  0.00  0.00    +0.000 A 
ATOM     14  C   UNL     1      45.989   1.717   8.297  0.00  0.00    +0.000 A 
ATOM     15  N   UNL     1      45.089   2.385   9.038  0.00  0.00    +0.000 NA
ENDBRANCH   9  10
ENDBRANCH   8   9
ENDBRANCH   6   8
ENDBRANCH   1   2
BRANCH   1  18
ATOM     16  O   UNL     1      49.738   5.262  16.396  0.00  0.00    +0.000 OA
ATOM     17  C   UNL     1      48.935   6.178  16.289  0.00  0.00    +0.000 C 
ATOM     18  N   UNL     1      47.911   6.220  15.370  0.00  0.00    +0.000 N 
ATOM     19  H   UNL     1      47.222   6.956  15.422  0.00  0.00    +0.000 HD
BRANCH  17  20
ATOM     20  C   UNL     1      48.774   7.249  17.258  0.00  0.00    +0.000 A 
ATOM     21  C   UNL     1      48.082   7.080  18.442  0.00  0.00    +0.000 A 
ATOM     22  S   UNL     1      47.482   8.579  19.030  0.00  0.00    +0.000 S 
ATOM     23  C   UNL     1      48.289   9.449  17.804  0.00  0.00    +0.000 A 
ATOM     24  N   UNL     1      48.096  10.778  17.596  0.00  0.00    +0.000 NA
ATOM     25  C   UNL     1      48.835  11.281  16.661  0.00  0.00    +0.000 A 
ATOM     26  N   UNL     1      49.790  10.593  15.954  0.00  0.00    +0.000 N 
ATOM     27  C   UNL     1      50.024   9.252  16.134  0.00  0.00    +0.000 A 
ATOM     28  O   UNL     1      50.926   8.668  15.546  0.00  0.00    +0.000 OA
ATOM     29  C   UNL     1      49.120   8.627  17.077  0.00  0.00    +0.000 A 
ATOM     30  H   UNL     1      50.399  11.066  15.303  0.00  0.00    +0.000 HD
ENDBRANCH  17  20
ENDBRANCH   1  18
BRANCH   1  31
ATOM     31  C   UNL     1      46.995   3.980  15.242  0.00  0.00    +0.000 C 
BRANCH  31  32
ATOM     32  O   UNL     1      47.896   2.863  15.275  0.00  0.00    +0.000 OA
ATOM     33  H   UNL     1      48.171   2.701  14.352  0.00  0.00    +0.000 HD
ENDBRANCH  31  32
ENDBRANCH   1  31
TORSDOF 8
ENDMDL
MODEL 6
REMARK VINA RESULT:    -6.828      1.990      2.840
REMARK INTER + INTRA:         -11.339
REMARK INTER:                 -11.007
REMARK INTRA:                  -0.332
REMARK UNBOUND:                -1.517
REMARK  Name = 
REMARK  8 active torsions:
REMARK  status: ('A' for Active; 'I' for Inactive)
REMARK    1  A    between atoms: C_2  and  C_21
REMARK    2  A    between atoms: N_3  and  CA_4
REMARK    3  A    between atoms: CA_4  and  C_5
REMARK    4  A    between atoms: CA_4  and  C_7
REMARK    5  A    between atoms: C_5  and  O_6
REMARK    6  A    between atoms: C_11  and  C_12
REMARK    7  A    between atoms: C_12  and  O_13
REMARK    8  A    between atoms: O_13  and  C_14
REMARK                            x       y       z     vdW  Elec       q    Type
REMARK                         _______ _______ _______ _____ _____    ______ ____
ROOT
ATOM      1  CA  UNL     1      46.738   5.862  13.372  0.00  0.00    +0.000 C 
ENDROOT
BRANCH   1   2
ATOM      2  C   UNL     1      45.581   4.979  12.954  0.00  0.00    +0.000 A 
ATOM      3  C   UNL     1      44.328   5.033  13.587  0.00  0.00    +0.000 A 
ATOM      4  C   UNL     1      43.264   4.254  13.143  0.00  0.00    +0.000 A 
ATOM      5  C   UNL     1      43.434   3.413  12.049  0.00  0.00    +0.000 A 
ATOM      6  C   UNL     1      44.669   3.352  11.392  0.00  0.00    +0.000 A 
ATOM      7  C   UNL     1      45.746   4.109  11.870  0.00  0.00    +0.000 A 
BRANCH   6   8
ATOM      8  C   UNL     1      44.829   2.501  10.160  0.00  0.00    +0.000 C 
BRANCH   8   9
ATOM      9  O   UNL     1      44.792   3.345   9.018  0.00  0.00    +0.000 OA
BRANCH   9  10
ATOM     10  C   UNL     1      45.692   2.909   8.072  0.00  0.00    +0.000 A 
ATOM     11  N   UNL     1      46.153   1.666   8.254  0.00  0.00    +0.000 NA
ATOM     12  C   UNL     1      47.041   1.232   7.341  0.00  0.00    +0.000 A 
ATOM     13  C   UNL     1      47.462   1.983   6.267  0.00  0.00    +0.000 A 
ATOM     14  C   UNL     1      46.911   3.236   6.171  0.00  0.00    +0.000 A 
ATOM     15  N   UNL     1      46.027   3.725   7.058  0.00  0.00    +0.000 NA
ENDBRANCH   9  10
ENDBRANCH   8   9
ENDBRANCH   6   8
ENDBRANCH   1   2
BRANCH   1  18
ATOM     16  O   UNL     1      47.291   3.198  14.395  0.00  0.00    +0.000 OA
ATOM     17  C   UNL     1      47.456   4.190  15.090  0.00  0.00    +0.000 C 
ATOM     18  N   UNL     1      47.247   5.486  14.674  0.00  0.00    +0.000 N 
ATOM     19  H   UNL     1      47.294   6.240  15.341  0.00  0.00    +0.000 HD
BRANCH  17  20
ATOM     20  C   UNL     1      47.663   4.162  16.529  0.00  0.00    +0.000 A 
ATOM     21  C   UNL     1      46.856   4.860  17.407  0.00  0.00    +0.000 A 
ATOM     22  S   UNL     1      47.683   5.198  18.875  0.00  0.00    +0.000 S 
ATOM     23  C   UNL     1      49.033   4.271  18.395  0.00  0.00    +0.000 A 
ATOM     24  N   UNL     1      50.194   4.243  19.100  0.00  0.00    +0.000 NA
ATOM     25  C   UNL     1      51.088   3.440  18.619  0.00  0.00    +0.000 A 
ATOM     26  N   UNL     1      50.907   2.620  17.533  0.00  0.00    +0.000 N 
ATOM     27  C   UNL     1      49.749   2.609  16.794  0.00  0.00    +0.000 A 
ATOM     28  O   UNL     1      49.578   1.822  15.872  0.00  0.00    +0.000 OA
ATOM     29  C   UNL     1      48.779   3.594  17.224  0.00  0.00    +0.000 A 
ATOM     30  H   UNL     1      51.610   1.947  17.265  0.00  0.00    +0.000 HD
ENDBRANCH  17  20
ENDBRANCH   1  18
BRANCH   1  31
ATOM     31  C   UNL     1      47.913   5.813  12.367  0.00  0.00    +0.000 C 
BRANCH  31  32
ATOM     32  O   UNL     1      49.115   6.345  12.944  0.00  0.00    +0.000 OA
ATOM     33  H   UNL     1      49.810   6.258  12.264  0.00  0.00    +0.000 HD
ENDBRANCH  31  32
ENDBRANCH   1  31
TORSDOF 8
ENDMDL
MODEL 7
REMARK VINA RESULT:    -6.750      3.246      7.410
REMARK INTER + INTRA:         -11.227
REMARK INTER:                 -10.457
REMARK INTRA:                  -0.770
REMARK UNBOUND:                -1.517
REMARK  Name = 
REMARK  8 active torsions:
REMARK  status: ('A' for Active; 'I' for Inactive)
REMARK    1  A    between atoms: C_2  and  C_21
REMARK    2  A    between atoms: N_3  and  CA_4
REMARK    3  A    between atoms: CA_4  and  C_5
REMARK    4  A    between atoms: CA_4  and  C_7
REMARK    5  A    between atoms: C_5  and  O_6
REMARK    6  A    between atoms: C_11  and  C_12
REMARK    7  A    between atoms: C_12  and  O_13
REMARK    8  A    between atoms: O_13  and  C_14
REMARK                            x       y       z     vdW  Elec       q    Type
REMARK                         _______ _______ _______ _____ _____    ______ ____
ROOT
ATOM      1  CA  UNL     1      47.586   4.684  16.731  0.00  0.00    +0.000 C 
ENDROOT
BRANCH   1   2
ATOM      2  C   UNL     1      49.002   5.220  16.780  0.00  0.00    +0.000 A 
ATOM      3  C   UNL     1      50.031   4.560  17.472  0.00  0.00    +0.000 A 
ATOM      4  C   UNL     1      51.336   5.041  17.450  0.00  0.00    +0.000 A 
ATOM      5  C   UNL     1      51.635   6.189  16.725  0.00  0.00    +0.000 A 
ATOM      6  C   UNL     1      50.631   6.857  16.015  0.00  0.00    +0.000 A 
ATOM      7  C   UNL     1      49.312   6.389  16.076  0.00  0.00    +0.000 A 
BRANCH   6   8
ATOM      8  C   UNL     1      50.971   8.054  15.167  0.00  0.00    +0.000 C 
BRANCH   8   9
ATOM      9  O   UNL     1      49.879   8.961  15.205  0.00  0.00    +0.000 OA
BRANCH   9  10
ATOM     10  C   UNL     1      49.497   9.302  13.927  0.00  0.00    +0.000 A 
ATOM     11  N   UNL     1      50.165   8.682  12.947  0.00  0.00    +0.000 NA
ATOM     12  C   UNL     1      49.806   9.015  11.694  0.00  0.00    +0.000 A 
ATOM     13  C   UNL     1      48.813   9.919  11.397  0.00  0.00    +0.000 A 
ATOM     14  C   UNL     1      48.183  10.480  12.480  0.00  0.00    +0.000 A 
ATOM     15  N   UNL     1      48.505  10.193  13.753  0.00  0.00    +0.000 NA
ENDBRANCH   9  10
ENDBRANCH   8   9
ENDBRANCH   6   8
ENDBRANCH   1   2
BRANCH   1  18
ATOM     16  O   UNL     1      47.378   3.133  14.281  0.00  0.00    +0.000 OA
ATOM     17  C   UNL     1      46.899   4.255  14.362  0.00  0.00    +0.000 C 
ATOM     18  N   UNL     1      46.929   5.042  15.492  0.00  0.00    +0.000 N 
ATOM     19  H   UNL     1      46.615   5.999  15.444  0.00  0.00    +0.000 HD
BRANCH  17  20
ATOM     20  C   UNL     1      46.441   5.040  13.227  0.00  0.00    +0.000 A 
ATOM     21  C   UNL     1      47.106   6.170  12.791  0.00  0.00    +0.000 A 
ATOM     22  S   UNL     1      46.045   7.225  11.946  0.00  0.00    +0.000 S 
ATOM     23  C   UNL     1      44.768   6.096  12.021  0.00  0.00    +0.000 A 
ATOM     24  N   UNL     1      43.499   6.393  11.632  0.00  0.00    +0.000 NA
ATOM     25  C   UNL     1      42.676   5.397  11.705  0.00  0.00    +0.000 A 
ATOM     26  N   UNL     1      43.015   4.119  12.074  0.00  0.00    +0.000 N 
ATOM     27  C   UNL     1      44.284   3.771  12.468  0.00  0.00    +0.000 A 
ATOM     28  O   UNL     1      44.587   2.613  12.726  0.00  0.00    +0.000 OA
ATOM     29  C   UNL     1      45.199   4.891  12.529  0.00  0.00    +0.000 A 
ATOM     30  H   UNL     1      42.346   3.365  12.019  0.00  0.00    +0.000 HD
ENDBRANCH  17  20
ENDBRANCH   1  18
BRANCH   1  31
ATOM     31  C   UNL     1      47.531   3.144  16.874  0.00  0.00    +0.000 C 
BRANCH  31  32
ATOM     32  O   UNL     1      46.483   2.741  17.768  0.00  0.00    +0.000 OA
ATOM     33  H   UNL     1      46.592   1.781  17.907  0.00  0.00    +0.000 HD
ENDBRANCH  31  32
ENDBRANCH   1  31
TORSDOF 8
ENDMDL
MODEL 8
REMARK VINA RESULT:    -6.658      5.174      7.825
REMARK INTER + INTRA:         -11.095
REMARK INTER:                  -9.438
REMARK INTRA:                  -1.657
REMARK UNBOUND:                -1.517
REMARK  Name = 
REMARK  8 active torsions:
REMARK  status: ('A' for Active; 'I' for Inactive)
REMARK    1  A    between atoms: C_2  and  C_21
REMARK    2  A    between atoms: N_3  and  CA_4
REMARK    3  A    between atoms: CA_4  and  C_5
REMARK    4  A    between atoms: CA_4  and  C_7
REMARK    5  A    between atoms: C_5  and  O_6
REMARK    6  A    between atoms: C_11  and  C_12
REMARK    7  A    between atoms: C_12  and  O_13
REMARK    8  A    between atoms: O_13  and  C_14
REMARK                            x       y       z     vdW  Elec       q    Type
REMARK                         _______ _______ _______ _____ _____    ______ ____
ROOT
ATOM      1  CA  UNL     1      47.559   7.837  12.757  0.00  0.00    +0.000 C 
ENDROOT
BRANCH   1   2
ATOM      2  C   UNL     1      48.500   8.814  12.082  0.00  0.00    +0.000 A 
ATOM      3  C   UNL     1      48.111  10.122  11.750  0.00  0.00    +0.000 A 
ATOM      4  C   UNL     1      49.015  11.019  11.187  0.00  0.00    +0.000 A 
ATOM      5  C   UNL     1      50.327  10.622  10.955  0.00  0.00    +0.000 A 
ATOM      6  C   UNL     1      50.742   9.328  11.291  0.00  0.00    +0.000 A 
ATOM      7  C   UNL     1      49.817   8.419  11.819  0.00  0.00    +0.000 A 
BRANCH   6   8
ATOM      8  C   UNL     1      52.182   8.925  11.112  0.00  0.00    +0.000 C 
BRANCH   8   9
ATOM      9  O   UNL     1      52.518   9.041   9.737  0.00  0.00    +0.000 OA
BRANCH   9  10
ATOM     10  C   UNL     1      52.896   7.817   9.232  0.00  0.00    +0.000 A 
ATOM     11  N   UNL     1      53.323   6.933  10.142  0.00  0.00    +0.000 NA
ATOM     12  C   UNL     1      53.704   5.736   9.659  0.00  0.00    +0.000 A 
ATOM     13  C   UNL     1      53.660   5.400   8.325  0.00  0.00    +0.000 A 
ATOM     14  C   UNL     1      53.189   6.379   7.485  0.00  0.00    +0.000 A 
ATOM     15  N   UNL     1      52.803   7.594   7.910  0.00  0.00    +0.000 NA
ENDBRANCH   9  10
ENDBRANCH   8   9
ENDBRANCH   6   8
ENDBRANCH   1   2
BRANCH   1  18
ATOM     16  O   UNL     1      44.995   7.659  11.399  0.00  0.00    +0.000 OA
ATOM     17  C   UNL     1      45.850   6.798  11.250  0.00  0.00    +0.000 C 
ATOM     18  N   UNL     1      47.098   6.823  11.832  0.00  0.00    +0.000 N 
ATOM     19  H   UNL     1      47.704   6.020  11.753  0.00  0.00    +0.000 HD
BRANCH  17  20
ATOM     20  C   UNL     1      45.616   5.499  10.641  0.00  0.00    +0.000 A 
ATOM     21  C   UNL     1      45.741   5.285   9.282  0.00  0.00    +0.000 A 
ATOM     22  S   UNL     1      44.794   3.943   8.776  0.00  0.00    +0.000 S 
ATOM     23  C   UNL     1      44.369   3.563  10.384  0.00  0.00    +0.000 A 
ATOM     24  N   UNL     1      43.444   2.617  10.697  0.00  0.00    +0.000 NA
ATOM     25  C   UNL     1      43.292   2.424  11.968  0.00  0.00    +0.000 A 
ATOM     26  N   UNL     1      44.020   3.045  12.952  0.00  0.00    +0.000 N 
ATOM     27  C   UNL     1      44.969   4.000  12.684  0.00  0.00    +0.000 A 
ATOM     28  O   UNL     1      45.659   4.494  13.567  0.00  0.00    +0.000 OA
ATOM     29  C   UNL     1      45.068   4.340  11.280  0.00  0.00    +0.000 A 
ATOM     30  H   UNL     1      43.920   2.780  13.921  0.00  0.00    +0.000 HD
ENDBRANCH  17  20
ENDBRANCH   1  18
BRANCH   1  31
ATOM     31  C   UNL     1      48.213   7.123  13.963  0.00  0.00    +0.000 C 
BRANCH  31  32
ATOM     32  O   UNL     1      48.276   5.703  13.757  0.00  0.00    +0.000 OA
ATOM     33  H   UNL     1      47.874   5.291  14.546  0.00  0.00    +0.000 HD
ENDBRANCH  31  32
ENDBRANCH   1  31
TORSDOF 8
ENDMDL
MODEL 9
REMARK VINA RESULT:    -6.453      2.938      4.032
REMARK INTER + INTRA:         -10.799
REMARK INTER:                  -9.766
REMARK INTRA:                  -1.033
REMARK UNBOUND:                -1.517
REMARK  Name = 
REMARK  8 active torsions:
REMARK  status: ('A' for Active; 'I' for Inactive)
REMARK    1  A    between atoms: C_2  and  C_21
REMARK    2  A    between atoms: N_3  and  CA_4
REMARK    3  A    between atoms: CA_4  and  C_5
REMARK    4  A    between atoms: CA_4  and  C_7
REMARK    5  A    between atoms: C_5  and  O_6
REMARK    6  A    between atoms: C_11  and  C_12
REMARK    7  A    between atoms: C_12  and  O_13
REMARK    8  A    between atoms: O_13  and  C_14
REMARK                            x       y       z     vdW  Elec       q    Type
REMARK                         _______ _______ _______ _____ _____    ______ ____
ROOT
ATOM      1  CA  UNL     1      47.411   5.310  13.561  0.00  0.00    +0.000 C 
ENDROOT
BRANCH   1   2
ATOM      2  C   UNL     1      46.239   5.783  12.725  0.00  0.00    +0.000 A 
ATOM      3  C   UNL     1      45.741   7.094  12.806  0.00  0.00    +0.000 A 
ATOM      4  C   UNL     1      44.703   7.520  11.983  0.00  0.00    +0.000 A 
ATOM      5  C   UNL     1      44.152   6.642  11.057  0.00  0.00    +0.000 A 
ATOM      6  C   UNL     1      44.641   5.335  10.947  0.00  0.00    +0.000 A 
ATOM      7  C   UNL     1      45.658   4.902  11.807  0.00  0.00    +0.000 A 
BRANCH   6   8
ATOM      8  C   UNL     1      44.097   4.411   9.890  0.00  0.00    +0.000 C 
BRANCH   8   9
ATOM      9  O   UNL     1      44.764   3.161   9.995  0.00  0.00    +0.000 OA
BRANCH   9  10
ATOM     10  C   UNL     1      45.484   2.905   8.849  0.00  0.00    +0.000 A 
ATOM     11  N   UNL     1      45.918   1.646   8.718  0.00  0.00    +0.000 NA
ATOM     12  C   UNL     1      46.631   1.387   7.607  0.00  0.00    +0.000 A 
ATOM     13  C   UNL     1      46.906   2.324   6.638  0.00  0.00    +0.000 A 
ATOM     14  C   UNL     1      46.397   3.578   6.869  0.00  0.00    +0.000 A 
ATOM     15  N   UNL     1      45.685   3.897   7.964  0.00  0.00    +0.000 NA
ENDBRANCH   9  10
ENDBRANCH   8   9
ENDBRANCH   6   8
ENDBRANCH   1   2
BRANCH   1  18
ATOM     16  O   UNL     1      49.475   6.919  12.297  0.00  0.00    +0.000 OA
ATOM     17  C   UNL     1      49.136   7.120  13.454  0.00  0.00    +0.000 C 
ATOM     18  N   UNL     1      48.149   6.424  14.115  0.00  0.00    +0.000 N 
ATOM     19  H   UNL     1      48.007   6.572  15.103  0.00  0.00    +0.000 HD
BRANCH  17  20
ATOM     20  C   UNL     1      49.871   7.949  14.396  0.00  0.00    +0.000 A 
ATOM     21  C   UNL     1      50.737   7.416  15.332  0.00  0.00    +0.000 A 
ATOM     22  S   UNL     1      50.918   8.469  16.678  0.00  0.00    +0.000 S 
ATOM     23  C   UNL     1      49.985   9.684  15.928  0.00  0.00    +0.000 A 
ATOM     24  N   UNL     1      49.592  10.814  16.573  0.00  0.00    +0.000 NA
ATOM     25  C   UNL     1      48.940  11.650  15.830  0.00  0.00    +0.000 A 
ATOM     26  N   UNL     1      48.696  11.488  14.489  0.00  0.00    +0.000 N 
ATOM     27  C   UNL     1      49.080  10.367  13.794  0.00  0.00    +0.000 A 
ATOM     28  O   UNL     1      48.918  10.269  12.584  0.00  0.00    +0.000 OA
ATOM     29  C   UNL     1      49.691   9.351  14.625  0.00  0.00    +0.000 A 
ATOM     30  H   UNL     1      48.265  12.220  13.945  0.00  0.00    +0.000 HD
ENDBRANCH  17  20
ENDBRANCH   1  18
BRANCH   1  31
ATOM     31  C   UNL     1      46.973   4.396  14.730  0.00  0.00    +0.000 C 
BRANCH  31  32
ATOM     32  O   UNL     1      47.405   3.043  14.524  0.00  0.00    +0.000 OA
ATOM     33  H   UNL     1      46.721   2.614  13.976  0.00  0.00    +0.000 HD
ENDBRANCH  31  32
ENDBRANCH   1  31
TORSDOF 8
ENDMDL
