MODEL 1
REMARK VINA RESULT:    -9.522      0.000      0.000
REMARK INTER + INTRA:         -13.705
REMARK INTER:                 -12.862
REMARK INTRA:                  -0.843
REMARK UNBOUND:                -0.843
REMARK  Name = 
REMARK  6 active torsions:
REMARK  status: ('A' for Active; 'I' for Inactive)
REMARK    1  A    between atoms: C_2  and  C_3
REMARK    2  A    between atoms: C_2  and  C_19
REMARK    3  A    between atoms: C_3  and  C_4
REMARK    4  A    between atoms: C_4  and  C_5
REMARK    5  A    between atoms: C_9  and  C_10
REMARK    6  A    between atoms: C_10  and  N_11
REMARK                            x       y       z     vdW  Elec       q    Type
REMARK                         _______ _______ _______ _____ _____    ______ ____
ROOT
ATOM      1  C   UNL     1      46.939   3.899  14.328  0.00  0.00    +0.000 C 
ENDROOT
BRANCH   1   2
ATOM      2  C   UNL     1      46.350   4.571  13.109  0.00  0.00    +0.000 A 
ATOM      3  C   UNL     1      46.682   5.876  12.724  0.00  0.00    +0.000 A 
ATOM      4  C   UNL     1      46.175   6.419  11.544  0.00  0.00    +0.000 A 
ATOM      5  C   UNL     1      45.356   5.655  10.714  0.00  0.00    +0.000 A 
ATOM      6  C   UNL     1      45.039   4.335  11.056  0.00  0.00    +0.000 A 
ATOM      7  C   UNL     1      45.516   3.815  12.269  0.00  0.00    +0.000 A 
BRANCH   6   8
ATOM      8  C   UNL     1      44.252   3.457  10.109  0.00  0.00    +0.000 C 
BRANCH   8   9
ATOM      9  N   UNL     1      44.997   2.251   9.782  0.00  0.00    +0.000 N 
ATOM     10  C   UNL     1      45.668   2.348   8.547  0.00  0.00    +0.000 A 
ATOM     11  C   UNL     1      46.405   1.254   8.101  0.00  0.00    +0.000 A 
ATOM     12  C   UNL     1      47.083   1.331   6.885  0.00  0.00    +0.000 A 
ATOM     13  C   UNL     1      47.015   2.502   6.144  0.00  0.00    +0.000 A 
ATOM     14  C   UNL     1      46.279   3.549   6.660  0.00  0.00    +0.000 A 
ATOM     15  N   UNL     1      45.616   3.495   7.835  0.00  0.00    +0.000 NA
ATOM     16  H   UNL     1      44.397   1.431   9.768  0.00  0.00    +0.000 HD
ENDBRANCH   8   9
ENDBRANCH   6   8
ENDBRANCH   1   2
BRANCH   1  17
ATOM     17  C   UNL     1      47.009   4.746  15.596  0.00  0.00    +0.000 C 
BRANCH  17  19
ATOM     18  N   UNL     1      46.775   3.167  17.505  0.00  0.00    +0.000 NA
ATOM     19  C   UNL     1      47.492   4.001  16.829  0.00  0.00    +0.000 C 
ATOM     20  H   UNL     1      45.856   2.997  17.097  0.00  0.00    +0.000 HD
BRANCH  19  21
ATOM     21  C   UNL     1      48.840   4.238  17.340  0.00  0.00    +0.000 A 
ATOM     22  C   UNL     1      49.227   5.430  17.931  0.00  0.00    +0.000 A 
ATOM     23  S   UNL     1      50.817   5.377  18.562  0.00  0.00    +0.000 S 
ATOM     24  C   UNL     1      51.037   3.774  18.031  0.00  0.00    +0.000 A 
ATOM     25  N   UNL     1      52.192   3.100  18.283  0.00  0.00    +0.000 NA
ATOM     26  C   UNL     1      52.201   1.889  17.837  0.00  0.00    +0.000 A 
ATOM     27  N   UNL     1      51.178   1.297  17.141  0.00  0.00    +0.000 N 
ATOM     28  C   UNL     1      50.056   1.988  16.734  0.00  0.00    +0.000 A 
ATOM     29  O   UNL     1      49.330   1.527  15.859  0.00  0.00    +0.000 OA
ATOM     30  C   UNL     1      49.938   3.306  17.334  0.00  0.00    +0.000 A 
ATOM     31  H   UNL     1      51.290   0.382  16.734  0.00  0.00    +0.000 HD
ENDBRANCH  19  21
ENDBRANCH  17  19
ENDBRANCH   1  17
TORSDOF 6
ENDMDL
MODEL 2
REMARK VINA RESULT:    -9.085      2.254      3.233
REMARK INTER + INTRA:         -13.114
REMARK INTER:                 -11.862
REMARK INTRA:                  -1.252
REMARK UNBOUND:                -0.843
REMARK  Name = 
REMARK  6 active torsions:
REMARK  status: ('A' for Active; 'I' for Inactive)
REMARK    1  A    between atoms: C_2  and  C_3
REMARK    2  A    between atoms: C_2  and  C_19
REMARK    3  A    between atoms: C_3  and  C_4
REMARK    4  A    between atoms: C_4  and  C_5
REMARK    5  A    between atoms: C_9  and  C_10
REMARK    6  A    between atoms: C_10  and  N_11
REMARK                            x       y       z     vdW  Elec       q    Type
REMARK                         _______ _______ _______ _____ _____    ______ ____
ROOT
ATOM      1  C   UNL     1      46.436   7.155  11.932  0.00  0.00    +0.000 C 
ENDROOT
BRANCH   1   2
ATOM      2  C   UNL     1      45.363   6.092  11.988  0.00  0.00    +0.000 A 
ATOM      3  C   UNL     1      44.333   6.098  12.937  0.00  0.00    +0.000 A 
ATOM      4  C   UNL     1      43.320   5.142  12.892  0.00  0.00    +0.000 A 
ATOM      5  C   UNL     1      43.303   4.184  11.879  0.00  0.00    +0.000 A 
ATOM      6  C   UNL     1      44.299   4.178  10.895  0.00  0.00    +0.000 A 
ATOM      7  C   UNL     1      45.339   5.116  10.978  0.00  0.00    +0.000 A 
BRANCH   6   8
ATOM      8  C   UNL     1      44.227   3.223   9.725  0.00  0.00    +0.000 C 
BRANCH   8   9
ATOM      9  N   UNL     1      44.777   3.834   8.524  0.00  0.00    +0.000 N 
ATOM     10  C   UNL     1      45.719   3.007   7.881  0.00  0.00    +0.000 A 
ATOM     11  C   UNL     1      46.340   3.478   6.726  0.00  0.00    +0.000 A 
ATOM     12  C   UNL     1      47.269   2.673   6.069  0.00  0.00    +0.000 A 
ATOM     13  C   UNL     1      47.554   1.413   6.574  0.00  0.00    +0.000 A 
ATOM     14  C   UNL     1      46.885   1.010   7.713  0.00  0.00    +0.000 A 
ATOM     15  N   UNL     1      45.981   1.774   8.364  0.00  0.00    +0.000 NA
ATOM     16  H   UNL     1      45.208   4.733   8.724  0.00  0.00    +0.000 HD
ENDBRANCH   8   9
ENDBRANCH   6   8
ENDBRANCH   1   2
BRANCH   1  17
ATOM     17  C   UNL     1      47.019   7.593  13.273  0.00  0.00    +0.000 C 
BRANCH  17  19
ATOM     18  N   UNL     1      49.222   6.529  12.821  0.00  0.00    +0.000 NA
ATOM     19  C   UNL     1      48.312   6.894  13.660  0.00  0.00    +0.000 C 
ATOM     20  H   UNL     1      49.028   6.811  11.861  0.00  0.00    +0.000 HD
BRANCH  19  21
ATOM     21  C   UNL     1      48.568   6.561  15.060  0.00  0.00    +0.000 A 
ATOM     22  C   UNL     1      49.317   7.365  15.905  0.00  0.00    +0.000 A 
ATOM     23  S   UNL     1      49.334   6.800  17.520  0.00  0.00    +0.000 S 
ATOM     24  C   UNL     1      48.371   5.454  17.122  0.00  0.00    +0.000 A 
ATOM     25  N   UNL     1      47.979   4.562  18.072  0.00  0.00    +0.000 NA
ATOM     26  C   UNL     1      47.237   3.607  17.621  0.00  0.00    +0.000 A 
ATOM     27  N   UNL     1      46.872   3.445  16.309  0.00  0.00    +0.000 N 
ATOM     28  C   UNL     1      47.369   4.235  15.294  0.00  0.00    +0.000 A 
ATOM     29  O   UNL     1      47.279   3.869  14.126  0.00  0.00    +0.000 OA
ATOM     30  C   UNL     1      48.089   5.403  15.769  0.00  0.00    +0.000 A 
ATOM     31  H   UNL     1      46.373   2.621  16.008  0.00  0.00    +0.000 HD
ENDBRANCH  19  21
ENDBRANCH  17  19
ENDBRANCH   1  17
TORSDOF 6
ENDMDL
MODEL 3
REMARK VINA RESULT:    -8.697      1.558      2.235
REMARK INTER + INTRA:         -12.590
REMARK INTER:                 -11.748
REMARK INTRA:                  -0.843
REMARK UNBOUND:                -0.843
REMARK  Name = 
REMARK  6 active torsions:
REMARK  status: ('A' for Active; 'I' for Inactive)
REMARK    1  A    between atoms: C_2  and  C_3
REMARK    2  A    between atoms: C_2  and  C_19
REMARK    3  A    between atoms: C_3  and  C_4
REMARK    4  A    between atoms: C_4  and  C_5
REMARK    5  A    between atoms: C_9  and  C_10
REMARK    6  A    between atoms: C_10  and  N_11
REMARK                            x       y       z     vdW  Elec       q    Type
REMARK                         _______ _______ _______ _____ _____    ______ ____
ROOT
ATOM      1  C   UNL     1      46.895   3.753  14.181  0.00  0.00    +0.000 C 
ENDROOT
BRANCH   1   2
ATOM      2  C   UNL     1      46.072   4.536  13.184  0.00  0.00    +0.000 A 
ATOM      3  C   UNL     1      45.982   5.933  13.202  0.00  0.00    +0.000 A 
ATOM      4  C   UNL     1      45.277   6.613  12.209  0.00  0.00    +0.000 A 
ATOM      5  C   UNL     1      44.679   5.908  11.165  0.00  0.00    +0.000 A 
ATOM      6  C   UNL     1      44.786   4.513  11.102  0.00  0.00    +0.000 A 
ATOM      7  C   UNL     1      45.457   3.837  12.132  0.00  0.00    +0.000 A 
BRANCH   6   8
ATOM      8  C   UNL     1      44.247   3.747   9.915  0.00  0.00    +0.000 C 
BRANCH   8   9
ATOM      9  N   UNL     1      44.840   4.229   8.676  0.00  0.00    +0.000 N 
ATOM     10  C   UNL     1      45.651   3.260   8.053  0.00  0.00    +0.000 A 
ATOM     11  C   UNL     1      46.297   3.597   6.866  0.00  0.00    +0.000 A 
ATOM     12  C   UNL     1      47.099   2.651   6.228  0.00  0.00    +0.000 A 
ATOM     13  C   UNL     1      47.234   1.388   6.786  0.00  0.00    +0.000 A 
ATOM     14  C   UNL     1      46.549   1.125   7.956  0.00  0.00    +0.000 A 
ATOM     15  N   UNL     1      45.767   2.026   8.588  0.00  0.00    +0.000 NA
ATOM     16  H   UNL     1      45.386   5.073   8.824  0.00  0.00    +0.000 HD
ENDBRANCH   8   9
ENDBRANCH   6   8
ENDBRANCH   1   2
BRANCH   1  17
ATOM     17  C   UNL     1      47.284   4.490  15.460  0.00  0.00    +0.000 C 
BRANCH  17  19
ATOM     18  N   UNL     1      46.557   3.127  17.410  0.00  0.00    +0.000 NA
ATOM     19  C   UNL     1      47.504   3.593  16.666  0.00  0.00    +0.000 C 
ATOM     20  H   UNL     1      45.624   3.364  17.077  0.00  0.00    +0.000 HD
BRANCH  19  21
ATOM     21  C   UNL     1      48.862   3.235  17.068  0.00  0.00    +0.000 A 
ATOM     22  C   UNL     1      49.422   1.991  16.828  0.00  0.00    +0.000 A 
ATOM     23  S   UNL     1      51.069   1.900  17.281  0.00  0.00    +0.000 S 
ATOM     24  C   UNL     1      51.065   3.509  17.838  0.00  0.00    +0.000 A 
ATOM     25  N   UNL     1      52.193   4.086  18.333  0.00  0.00    +0.000 NA
ATOM     26  C   UNL     1      52.038   5.316  18.697  0.00  0.00    +0.000 A 
ATOM     27  N   UNL     1      50.858   6.012  18.637  0.00  0.00    +0.000 N 
ATOM     28  C   UNL     1      49.662   5.423  18.287  0.00  0.00    +0.000 A 
ATOM     29  O   UNL     1      48.599   5.978  18.549  0.00  0.00    +0.000 OA
ATOM     30  C   UNL     1      49.813   4.087  17.735  0.00  0.00    +0.000 A 
ATOM     31  H   UNL     1      50.782   6.938  19.031  0.00  0.00    +0.000 HD
ENDBRANCH  19  21
ENDBRANCH  17  19
ENDBRANCH   1  17
TORSDOF 6
ENDMDL
MODEL 4
REMARK VINA RESULT:    -8.092      2.525      3.454
REMARK INTER + INTRA:         -11.774
REMARK INTER:                 -10.557
REMARK INTRA:                  -1.217
REMARK UNBOUND:                -0.843
REMARK  Name = 
REMARK  6 active torsions:
REMARK  status: ('A' for Active; 'I' for Inactive)
REMARK    1  A    between atoms: C_2  and  C_3
REMARK    2  A    between atoms: C_2  and  C_19
REMARK    3  A    between atoms: C_3  and  C_4
REMARK    4  A    between atoms: C_4  and  C_5
REMARK    5  A    between atoms: C_9  and  C_10
REMARK    6  A    between atoms: C_10  and  N_11
REMARK                            x       y       z     vdW  Elec       q    Type
REMARK                         _______ _______ _______ _____ _____    ______ ____
ROOT
ATOM      1  C   UNL     1      46.207   7.514  12.078  0.00  0.00    +0.000 C 
ENDROOT
BRANCH   1   2
ATOM      2  C   UNL     1      45.273   6.329  11.979  0.00  0.00    +0.000 A 
ATOM      3  C   UNL     1      44.411   5.950  13.015  0.00  0.00    +0.000 A 
ATOM      4  C   UNL     1      43.508   4.901  12.841  0.00  0.00    +0.000 A 
ATOM      5  C   UNL     1      43.432   4.237  11.618  0.00  0.00    +0.000 A 
ATOM      6  C   UNL     1      44.255   4.620  10.553  0.00  0.00    +0.000 A 
ATOM      7  C   UNL     1      45.192   5.645  10.755  0.00  0.00    +0.000 A 
BRANCH   6   8
ATOM      8  C   UNL     1      44.099   3.990   9.187  0.00  0.00    +0.000 C 
BRANCH   8   9
ATOM      9  N   UNL     1      44.638   2.639   9.176  0.00  0.00    +0.000 N 
ATOM     10  C   UNL     1      45.688   2.483   8.249  0.00  0.00    +0.000 A 
ATOM     11  C   UNL     1      46.283   1.230   8.122  0.00  0.00    +0.000 A 
ATOM     12  C   UNL     1      47.329   1.056   7.216  0.00  0.00    +0.000 A 
ATOM     13  C   UNL     1      47.761   2.137   6.462  0.00  0.00    +0.000 A 
ATOM     14  C   UNL     1      47.133   3.351   6.657  0.00  0.00    +0.000 A 
ATOM     15  N   UNL     1      46.120   3.541   7.529  0.00  0.00    +0.000 NA
ATOM     16  H   UNL     1      43.918   1.949   8.979  0.00  0.00    +0.000 HD
ENDBRANCH   8   9
ENDBRANCH   6   8
ENDBRANCH   1   2
BRANCH   1  17
ATOM     17  C   UNL     1      46.975   7.656  13.389  0.00  0.00    +0.000 C 
BRANCH  17  19
ATOM     18  N   UNL     1      48.957   6.262  12.822  0.00  0.00    +0.000 NA
ATOM     19  C   UNL     1      48.006   6.568  13.640  0.00  0.00    +0.000 C 
ATOM     20  H   UNL     1      49.000   6.867  12.003  0.00  0.00    +0.000 HD
BRANCH  19  21
ATOM     21  C   UNL     1      47.934   5.765  14.859  0.00  0.00    +0.000 A 
ATOM     22  C   UNL     1      47.251   4.562  14.934  0.00  0.00    +0.000 A 
ATOM     23  S   UNL     1      47.453   3.773  16.439  0.00  0.00    +0.000 S 
ATOM     24  C   UNL     1      48.428   5.034  17.036  0.00  0.00    +0.000 A 
ATOM     25  N   UNL     1      48.975   4.974  18.281  0.00  0.00    +0.000 NA
ATOM     26  C   UNL     1      49.706   5.995  18.583  0.00  0.00    +0.000 A 
ATOM     27  N   UNL     1      49.921   7.079  17.771  0.00  0.00    +0.000 N 
ATOM     28  C   UNL     1      49.268   7.250  16.568  0.00  0.00    +0.000 A 
ATOM     29  O   UNL     1      49.237   8.354  16.034  0.00  0.00    +0.000 OA
ATOM     30  C   UNL     1      48.551   6.066  16.124  0.00  0.00    +0.000 A 
ATOM     31  H   UNL     1      50.421   7.887  18.107  0.00  0.00    +0.000 HD
ENDBRANCH  19  21
ENDBRANCH  17  19
ENDBRANCH   1  17
TORSDOF 6
ENDMDL
MODEL 5
REMARK VINA RESULT:    -8.070      1.446      2.334
REMARK INTER + INTRA:         -11.744
REMARK INTER:                 -10.859
REMARK INTRA:                  -0.885
REMARK UNBOUND:                -0.843
REMARK  Name = 
REMARK  6 active torsions:
REMARK  status: ('A' for Active; 'I' for Inactive)
REMARK    1  A    between atoms: C_2  and  C_3
REMARK    2  A    between atoms: C_2  and  C_19
REMARK    3  A    between atoms: C_3  and  C_4
REMARK    4  A    between atoms: C_4  and  C_5
REMARK    5  A    between atoms: C_9  and  C_10
REMARK    6  A    between atoms: C_10  and  N_11
REMARK                            x       y       z     vdW  Elec       q    Type
REMARK                         _______ _______ _______ _____ _____    ______ ____
ROOT
ATOM      1  C   UNL     1      48.484   5.857  15.397  0.00  0.00    +0.000 C 
ENDROOT
BRANCH   1   2
ATOM      2  C   UNL     1      48.188   6.453  14.040  0.00  0.00    +0.000 A 
ATOM      3  C   UNL     1      49.146   7.137  13.282  0.00  0.00    +0.000 A 
ATOM      4  C   UNL     1      48.845   7.593  11.999  0.00  0.00    +0.000 A 
ATOM      5  C   UNL     1      47.592   7.343  11.442  0.00  0.00    +0.000 A 
ATOM      6  C   UNL     1      46.627   6.629  12.162  0.00  0.00    +0.000 A 
ATOM      7  C   UNL     1      46.926   6.216  13.470  0.00  0.00    +0.000 A 
BRANCH   6   8
ATOM      8  C   UNL     1      45.310   6.247  11.527  0.00  0.00    +0.000 C 
BRANCH   8   9
ATOM      9  N   UNL     1      45.472   6.015  10.099  0.00  0.00    +0.000 N 
ATOM     10  C   UNL     1      45.216   4.677   9.737  0.00  0.00    +0.000 A 
ATOM     11  C   UNL     1      45.354   4.312   8.400  0.00  0.00    +0.000 A 
ATOM     12  C   UNL     1      45.097   2.995   8.018  0.00  0.00    +0.000 A 
ATOM     13  C   UNL     1      44.704   2.074   8.978  0.00  0.00    +0.000 A 
ATOM     14  C   UNL     1      44.572   2.517  10.280  0.00  0.00    +0.000 A 
ATOM     15  N   UNL     1      44.814   3.787  10.670  0.00  0.00    +0.000 NA
ATOM     16  H   UNL     1      46.402   6.271   9.780  0.00  0.00    +0.000 HD
ENDBRANCH   8   9
ENDBRANCH   6   8
ENDBRANCH   1   2
BRANCH   1  17
ATOM     17  C   UNL     1      47.489   4.819  15.907  0.00  0.00    +0.000 C 
BRANCH  17  19
ATOM     18  N   UNL     1      46.970   3.701  18.069  0.00  0.00    +0.000 NA
ATOM     19  C   UNL     1      47.832   4.226  17.264  0.00  0.00    +0.000 C 
ATOM     20  H   UNL     1      46.028   3.658  17.684  0.00  0.00    +0.000 HD
BRANCH  19  21
ATOM     21  C   UNL     1      49.211   4.263  17.746  0.00  0.00    +0.000 A 
ATOM     22  C   UNL     1      49.730   5.316  18.481  0.00  0.00    +0.000 A 
ATOM     23  S   UNL     1      51.324   5.027  19.030  0.00  0.00    +0.000 S 
ATOM     24  C   UNL     1      51.371   3.503  18.272  0.00  0.00    +0.000 A 
ATOM     25  N   UNL     1      52.462   2.696  18.378  0.00  0.00    +0.000 NA
ATOM     26  C   UNL     1      52.340   1.565  17.767  0.00  0.00    +0.000 A 
ATOM     27  N   UNL     1      51.244   1.177  17.040  0.00  0.00    +0.000 N 
ATOM     28  C   UNL     1      50.184   2.020  16.781  0.00  0.00    +0.000 A 
ATOM     29  O   UNL     1      49.391   1.757  15.882  0.00  0.00    +0.000 OA
ATOM     30  C   UNL     1      50.212   3.243  17.564  0.00  0.00    +0.000 A 
ATOM     31  H   UNL     1      51.254   0.322  16.505  0.00  0.00    +0.000 HD
ENDBRANCH  19  21
ENDBRANCH  17  19
ENDBRANCH   1  17
TORSDOF 6
ENDMDL
MODEL 6
REMARK VINA RESULT:    -7.849      2.179      3.082
REMARK INTER + INTRA:         -11.445
REMARK INTER:                 -10.339
REMARK INTRA:                  -1.106
REMARK UNBOUND:                -0.843
REMARK  Name = 
REMARK  6 active torsions:
REMARK  status: ('A' for Active; 'I' for Inactive)
REMARK    1  A    between atoms: C_2  and  C_3
REMARK    2  A    between atoms: C_2  and  C_19
REMARK    3  A    between atoms: C_3  and  C_4
REMARK    4  A    between atoms: C_4  and  C_5
REMARK    5  A    between atoms: C_9  and  C_10
REMARK    6  A    between atoms: C_10  and  N_11
REMARK                            x       y       z     vdW  Elec       q    Type
REMARK                         _______ _______ _______ _____ _____    ______ ____
ROOT
ATOM      1  C   UNL     1      46.987   3.811  14.117  0.00  0.00    +0.000 C 
ENDROOT
BRANCH   1   2
ATOM      2  C   UNL     1      46.202   4.691  13.171  0.00  0.00    +0.000 A 
ATOM      3  C   UNL     1      46.223   6.090  13.238  0.00  0.00    +0.000 A 
ATOM      4  C   UNL     1      45.549   6.857  12.288  0.00  0.00    +0.000 A 
ATOM      5  C   UNL     1      44.872   6.238  11.239  0.00  0.00    +0.000 A 
ATOM      6  C   UNL     1      44.866   4.842  11.126  0.00  0.00    +0.000 A 
ATOM      7  C   UNL     1      45.508   4.080  12.114  0.00  0.00    +0.000 A 
BRANCH   6   8
ATOM      8  C   UNL     1      44.239   4.164   9.929  0.00  0.00    +0.000 C 
BRANCH   8   9
ATOM      9  N   UNL     1      44.927   4.538   8.703  0.00  0.00    +0.000 N 
ATOM     10  C   UNL     1      45.644   3.465   8.137  0.00  0.00    +0.000 A 
ATOM     11  C   UNL     1      46.366   3.690   6.967  0.00  0.00    +0.000 A 
ATOM     12  C   UNL     1      47.077   2.641   6.386  0.00  0.00    +0.000 A 
ATOM     13  C   UNL     1      47.046   1.388   6.982  0.00  0.00    +0.000 A 
ATOM     14  C   UNL     1      46.294   1.239   8.129  0.00  0.00    +0.000 A 
ATOM     15  N   UNL     1      45.598   2.242   8.708  0.00  0.00    +0.000 NA
ATOM     16  H   UNL     1      45.561   5.318   8.851  0.00  0.00    +0.000 HD
ENDBRANCH   8   9
ENDBRANCH   6   8
ENDBRANCH   1   2
BRANCH   1  17
ATOM     17  C   UNL     1      46.859   4.139  15.602  0.00  0.00    +0.000 C 
BRANCH  17  19
ATOM     18  N   UNL     1      48.990   3.363  16.627  0.00  0.00    +0.000 NA
ATOM     19  C   UNL     1      48.182   4.325  16.326  0.00  0.00    +0.000 C 
ATOM     20  H   UNL     1      48.690   2.455  16.275  0.00  0.00    +0.000 HD
BRANCH  19  21
ATOM     21  C   UNL     1      48.593   5.658  16.759  0.00  0.00    +0.000 A 
ATOM     22  C   UNL     1      48.962   6.662  15.878  0.00  0.00    +0.000 A 
ATOM     23  S   UNL     1      49.258   8.157  16.655  0.00  0.00    +0.000 S 
ATOM     24  C   UNL     1      48.933   7.491  18.188  0.00  0.00    +0.000 A 
ATOM     25  N   UNL     1      48.975   8.257  19.312  0.00  0.00    +0.000 NA
ATOM     26  C   UNL     1      48.686   7.616  20.395  0.00  0.00    +0.000 A 
ATOM     27  N   UNL     1      48.385   6.280  20.464  0.00  0.00    +0.000 N 
ATOM     28  C   UNL     1      48.479   5.438  19.376  0.00  0.00    +0.000 A 
ATOM     29  O   UNL     1      48.518   4.222  19.537  0.00  0.00    +0.000 OA
ATOM     30  C   UNL     1      48.660   6.138  18.116  0.00  0.00    +0.000 A 
ATOM     31  H   UNL     1      48.267   5.821  21.354  0.00  0.00    +0.000 HD
ENDBRANCH  19  21
ENDBRANCH  17  19
ENDBRANCH   1  17
TORSDOF 6
ENDMDL
MODEL 7
REMARK VINA RESULT:    -7.828      2.999      4.818
REMARK INTER + INTRA:         -11.416
REMARK INTER:                 -10.619
REMARK INTRA:                  -0.798
REMARK UNBOUND:                -0.843
REMARK  Name = 
REMARK  6 active torsions:
REMARK  status: ('A' for Active; 'I' for Inactive)
REMARK    1  A    between atoms: C_2  and  C_3
REMARK    2  A    between atoms: C_2  and  C_19
REMARK    3  A    between atoms: C_3  and  C_4
REMARK    4  A    between atoms: C_4  and  C_5
REMARK    5  A    between atoms: C_9  and  C_10
REMARK    6  A    between atoms: C_10  and  N_11
REMARK                            x       y       z     vdW  Elec       q    Type
REMARK                         _______ _______ _______ _____ _____    ______ ____
ROOT
ATOM      1  C   UNL     1      46.968   3.756  14.248  0.00  0.00    +0.000 C 
ENDROOT
BRANCH   1   2
ATOM      2  C   UNL     1      46.123   4.241  13.093  0.00  0.00    +0.000 A 
ATOM      3  C   UNL     1      45.273   3.400  12.365  0.00  0.00    +0.000 A 
ATOM      4  C   UNL     1      44.450   3.914  11.363  0.00  0.00    +0.000 A 
ATOM      5  C   UNL     1      44.440   5.283  11.097  0.00  0.00    +0.000 A 
ATOM      6  C   UNL     1      45.252   6.153  11.836  0.00  0.00    +0.000 A 
ATOM      7  C   UNL     1      46.110   5.617  12.808  0.00  0.00    +0.000 A 
BRANCH   6   8
ATOM      8  C   UNL     1      45.163   7.649  11.641  0.00  0.00    +0.000 C 
BRANCH   8   9
ATOM      9  N   UNL     1      43.880   8.020  11.063  0.00  0.00    +0.000 N 
ATOM     10  C   UNL     1      43.703   9.416  10.992  0.00  0.00    +0.000 A 
ATOM     11  C   UNL     1      42.507   9.910  10.475  0.00  0.00    +0.000 A 
ATOM     12  C   UNL     1      42.314  11.288  10.388  0.00  0.00    +0.000 A 
ATOM     13  C   UNL     1      43.321  12.143  10.813  0.00  0.00    +0.000 A 
ATOM     14  C   UNL     1      44.484  11.578  11.296  0.00  0.00    +0.000 A 
ATOM     15  N   UNL     1      44.691  10.247  11.388  0.00  0.00    +0.000 NA
ATOM     16  H   UNL     1      43.104   7.615  11.579  0.00  0.00    +0.000 HD
ENDBRANCH   8   9
ENDBRANCH   6   8
ENDBRANCH   1   2
BRANCH   1  17
ATOM     17  C   UNL     1      47.022   4.668  15.471  0.00  0.00    +0.000 C 
BRANCH  17  19
ATOM     18  N   UNL     1      46.721   3.188  17.449  0.00  0.00    +0.000 NA
ATOM     19  C   UNL     1      47.465   3.981  16.753  0.00  0.00    +0.000 C 
ATOM     20  H   UNL     1      45.812   3.006  17.025  0.00  0.00    +0.000 HD
BRANCH  19  21
ATOM     21  C   UNL     1      48.800   4.233  17.289  0.00  0.00    +0.000 A 
ATOM     22  C   UNL     1      49.162   5.427  17.891  0.00  0.00    +0.000 A 
ATOM     23  S   UNL     1      50.741   5.391  18.550  0.00  0.00    +0.000 S 
ATOM     24  C   UNL     1      50.989   3.792  18.018  0.00  0.00    +0.000 A 
ATOM     25  N   UNL     1      52.148   3.132  18.289  0.00  0.00    +0.000 NA
ATOM     26  C   UNL     1      52.179   1.922  17.839  0.00  0.00    +0.000 A 
ATOM     27  N   UNL     1      51.176   1.321  17.123  0.00  0.00    +0.000 N 
ATOM     28  C   UNL     1      50.053   2.000  16.698  0.00  0.00    +0.000 A 
ATOM     29  O   UNL     1      49.349   1.533  15.808  0.00  0.00    +0.000 OA
ATOM     30  C   UNL     1      49.909   3.314  17.300  0.00  0.00    +0.000 A 
ATOM     31  H   UNL     1      51.306   0.408  16.715  0.00  0.00    +0.000 HD
ENDBRANCH  19  21
ENDBRANCH  17  19
ENDBRANCH   1  17
TORSDOF 6
ENDMDL
MODEL 8
REMARK VINA RESULT:    -7.826      2.770      3.606
REMARK INTER + INTRA:         -11.414
REMARK INTER:                 -10.435
REMARK INTRA:                  -0.979
REMARK UNBOUND:                -0.843
REMARK  Name = 
REMARK  6 active torsions:
REMARK  status: ('A' for Active; 'I' for Inactive)
REMARK    1  A    between atoms: C_2  and  C_3
REMARK    2  A    between atoms: C_2  and  C_19
REMARK    3  A    between atoms: C_3  and  C_4
REMARK    4  A    between atoms: C_4  and  C_5
REMARK    5  A    between atoms: C_9  and  C_10
REMARK    6  A    between atoms: C_10  and  N_11
REMARK                            x       y       z     vdW  Elec       q    Type
REMARK                         _______ _______ _______ _____ _____    ______ ____
ROOT
ATOM      1  C   UNL     1      46.387   7.545  11.799  0.00  0.00    +0.000 C 
ENDROOT
BRANCH   1   2
ATOM      2  C   UNL     1      45.907   6.127  12.011  0.00  0.00    +0.000 A 
ATOM      3  C   UNL     1      45.807   5.537  13.277  0.00  0.00    +0.000 A 
ATOM      4  C   UNL     1      45.278   4.256  13.425  0.00  0.00    +0.000 A 
ATOM      5  C   UNL     1      44.811   3.557  12.313  0.00  0.00    +0.000 A 
ATOM      6  C   UNL     1      44.863   4.137  11.040  0.00  0.00    +0.000 A 
ATOM      7  C   UNL     1      45.441   5.408  10.898  0.00  0.00    +0.000 A 
BRANCH   6   8
ATOM      8  C   UNL     1      44.251   3.442   9.845  0.00  0.00    +0.000 C 
BRANCH   8   9
ATOM      9  N   UNL     1      44.964   2.210   9.542  0.00  0.00    +0.000 N 
ATOM     10  C   UNL     1      45.759   2.316   8.384  0.00  0.00    +0.000 A 
ATOM     11  C   UNL     1      46.481   1.200   7.968  0.00  0.00    +0.000 A 
ATOM     12  C   UNL     1      47.281   1.285   6.829  0.00  0.00    +0.000 A 
ATOM     13  C   UNL     1      47.346   2.484   6.133  0.00  0.00    +0.000 A 
ATOM     14  C   UNL     1      46.615   3.550   6.618  0.00  0.00    +0.000 A 
ATOM     15  N   UNL     1      45.836   3.489   7.719  0.00  0.00    +0.000 NA
ATOM     16  H   UNL     1      44.327   1.425   9.436  0.00  0.00    +0.000 HD
ENDBRANCH   8   9
ENDBRANCH   6   8
ENDBRANCH   1   2
BRANCH   1  17
ATOM     17  C   UNL     1      47.863   7.805  12.087  0.00  0.00    +0.000 C 
BRANCH  17  19
ATOM     18  N   UNL     1      47.295   8.689  14.343  0.00  0.00    +0.000 NA
ATOM     19  C   UNL     1      48.167   8.208  13.521  0.00  0.00    +0.000 C 
ATOM     20  H   UNL     1      46.350   8.717  13.963  0.00  0.00    +0.000 HD
BRANCH  19  21
ATOM     21  C   UNL     1      49.530   8.095  14.035  0.00  0.00    +0.000 A 
ATOM     22  C   UNL     1      50.591   8.833  13.537  0.00  0.00    +0.000 A 
ATOM     23  S   UNL     1      52.038   8.600  14.420  0.00  0.00    +0.000 S 
ATOM     24  C   UNL     1      51.290   7.484  15.466  0.00  0.00    +0.000 A 
ATOM     25  N   UNL     1      51.973   6.915  16.496  0.00  0.00    +0.000 NA
ATOM     26  C   UNL     1      51.266   6.106  17.212  0.00  0.00    +0.000 A 
ATOM     27  N   UNL     1      49.951   5.793  16.981  0.00  0.00    +0.000 N 
ATOM     28  C   UNL     1      49.267   6.227  15.865  0.00  0.00    +0.000 A 
ATOM     29  O   UNL     1      48.221   5.680  15.530  0.00  0.00    +0.000 OA
ATOM     30  C   UNL     1      49.974   7.249  15.112  0.00  0.00    +0.000 A 
ATOM     31  H   UNL     1      49.487   5.078  17.519  0.00  0.00    +0.000 HD
ENDBRANCH  19  21
ENDBRANCH  17  19
ENDBRANCH   1  17
TORSDOF 6
ENDMDL
MODEL 9
REMARK VINA RESULT:    -7.781      4.986      6.743
REMARK INTER + INTRA:         -11.353
REMARK INTER:                 -10.243
REMARK INTRA:                  -1.111
REMARK UNBOUND:                -0.843
REMARK  Name = 
REMARK  6 active torsions:
REMARK  status: ('A' for Active; 'I' for Inactive)
REMARK    1  A    between atoms: C_2  and  C_3
REMARK    2  A    between atoms: C_2  and  C_19
REMARK    3  A    between atoms: C_3  and  C_4
REMARK    4  A    between atoms: C_4  and  C_5
REMARK    5  A    between atoms: C_9  and  C_10
REMARK    6  A    between atoms: C_10  and  N_11
REMARK                            x       y       z     vdW  Elec       q    Type
REMARK                         _______ _______ _______ _____ _____    ______ ____
ROOT
ATOM      1  C   UNL     1      46.899   6.617  12.008  0.00  0.00    +0.000 C 
ENDROOT
BRANCH   1   2
ATOM      2  C   UNL     1      45.644   5.778  11.938  0.00  0.00    +0.000 A 
ATOM      3  C   UNL     1      44.625   5.848  12.895  0.00  0.00    +0.000 A 
ATOM      4  C   UNL     1      43.450   5.115  12.738  0.00  0.00    +0.000 A 
ATOM      5  C   UNL     1      43.261   4.326  11.605  0.00  0.00    +0.000 A 
ATOM      6  C   UNL     1      44.247   4.267  10.613  0.00  0.00    +0.000 A 
ATOM      7  C   UNL     1      45.445   4.971  10.804  0.00  0.00    +0.000 A 
BRANCH   6   8
ATOM      8  C   UNL     1      44.006   3.512   9.325  0.00  0.00    +0.000 C 
BRANCH   8   9
ATOM      9  N   UNL     1      44.847   2.326   9.255  0.00  0.00    +0.000 N 
ATOM     10  C   UNL     1      45.735   2.358   8.162  0.00  0.00    +0.000 A 
ATOM     11  C   UNL     1      46.587   1.274   7.964  0.00  0.00    +0.000 A 
ATOM     12  C   UNL     1      47.480   1.287   6.893  0.00  0.00    +0.000 A 
ATOM     13  C   UNL     1      47.507   2.386   6.046  0.00  0.00    +0.000 A 
ATOM     14  C   UNL     1      46.645   3.429   6.317  0.00  0.00    +0.000 A 
ATOM     15  N   UNL     1      45.774   3.436   7.349  0.00  0.00    +0.000 NA
ATOM     16  H   UNL     1      44.293   1.476   9.207  0.00  0.00    +0.000 HD
ENDBRANCH   8   9
ENDBRANCH   6   8
ENDBRANCH   1   2
BRANCH   1  17
ATOM     17  C   UNL     1      47.338   7.053  13.403  0.00  0.00    +0.000 C 
BRANCH  17  19
ATOM     18  N   UNL     1      47.464   9.104  14.807  0.00  0.00    +0.000 NA
ATOM     19  C   UNL     1      47.125   8.528  13.702  0.00  0.00    +0.000 C 
ATOM     20  H   UNL     1      47.955   8.488  15.453  0.00  0.00    +0.000 HD
BRANCH  19  21
ATOM     21  C   UNL     1      46.466   9.382  12.717  0.00  0.00    +0.000 A 
ATOM     22  C   UNL     1      45.089   9.485  12.604  0.00  0.00    +0.000 A 
ATOM     23  S   UNL     1      44.599  10.662  11.463  0.00  0.00    +0.000 S 
ATOM     24  C   UNL     1      46.212  11.036  11.069  0.00  0.00    +0.000 A 
ATOM     25  N   UNL     1      46.509  12.008  10.163  0.00  0.00    +0.000 NA
ATOM     26  C   UNL     1      47.775  12.190   9.985  0.00  0.00    +0.000 A 
ATOM     27  N   UNL     1      48.769  11.478  10.607  0.00  0.00    +0.000 N 
ATOM     28  C   UNL     1      48.513  10.390  11.413  0.00  0.00    +0.000 A 
ATOM     29  O   UNL     1      49.411   9.598  11.685  0.00  0.00    +0.000 OA
ATOM     30  C   UNL     1      47.109  10.238  11.754  0.00  0.00    +0.000 A 
ATOM     31  H   UNL     1      49.735  11.604  10.347  0.00  0.00    +0.000 HD
ENDBRANCH  19  21
ENDBRANCH  17  19
ENDBRANCH   1  17
TORSDOF 6
ENDMDL
