MODEL 1
REMARK VINA RESULT:    -8.701      0.000      0.000
REMARK INTER + INTRA:         -12.140
REMARK INTER:                 -11.245
REMARK INTRA:                  -0.895
REMARK UNBOUND:                -0.895
REMARK  Name = 
REMARK  6 active torsions:
REMARK  status: ('A' for Active; 'I' for Inactive)
REMARK    1  A    between atoms: C_1  and  N_2
REMARK    2  A    between atoms: C_4  and  C_5
REMARK    3  A    between atoms: N_7  and  C_8
REMARK    4  A    between atoms: C_8  and  C_9
REMARK    5  A    between atoms: N_13  and  C_14
REMARK    6  A    between atoms: C_14  and  C_15
REMARK                            x       y       z     vdW  Elec       q    Type
REMARK                         _______ _______ _______ _____ _____    ______ ____
ROOT
ATOM      1  C   UNL     1      47.352   8.358  13.634  0.00  0.00    +0.000 C 
ENDROOT
BRANCH   1   2
ATOM      2  C   UNL     1      46.514   7.529  12.712  0.00  0.00    +0.000 A 
ATOM      3  C   UNL     1      46.983   6.329  12.181  0.00  0.00    +0.000 A 
ATOM      4  C   UNL     1      46.163   5.575  11.339  0.00  0.00    +0.000 A 
ATOM      5  C   UNL     1      44.894   6.043  11.019  0.00  0.00    +0.000 A 
ATOM      6  N   UNL     1      44.056   5.416  10.120  0.00  0.00    +0.000 N 
ATOM      7  N   UNL     1      44.428   7.203  11.518  0.00  0.00    +0.000 NA
ATOM      8  C   UNL     1      45.231   7.911  12.350  0.00  0.00    +0.000 A 
ATOM      9  H   UNL     1      43.174   5.917  10.099  0.00  0.00    +0.000 HD
BRANCH   6  10
ATOM     10  C   UNL     1      43.948   3.970  10.080  0.00  0.00    +0.000 C 
BRANCH  10  11
ATOM     11  C   UNL     1      44.921   3.374   9.082  0.00  0.00    +0.000 A 
ATOM     12  C   UNL     1      45.214   1.999   9.128  0.00  0.00    +0.000 A 
ATOM     13  C   UNL     1      46.105   1.439   8.209  0.00  0.00    +0.000 A 
ATOM     14  C   UNL     1      46.692   2.243   7.241  0.00  0.00    +0.000 A 
ATOM     15  F   UNL     1      47.554   1.703   6.369  0.00  0.00    +0.000 F 
ATOM     16  C   UNL     1      46.401   3.598   7.161  0.00  0.00    +0.000 A 
ATOM     17  C   UNL     1      45.509   4.157   8.074  0.00  0.00    +0.000 A 
ENDBRANCH  10  11
ENDBRANCH   6  10
ENDBRANCH   1   2
BRANCH   1  20
ATOM     18  C   UNL     1      48.998   7.107  14.928  0.00  0.00    +0.000 C 
ATOM     19  O   UNL     1      49.778   7.134  13.985  0.00  0.00    +0.000 OA
ATOM     20  N   UNL     1      47.733   7.656  14.843  0.00  0.00    +0.000 N 
ATOM     21  H   UNL     1      47.137   7.695  15.657  0.00  0.00    +0.000 HD
BRANCH  18  25
ATOM     22  C   UNL     1      51.047   6.388  19.423  0.00  0.00    +0.000 C 
ATOM     23  N   UNL     1      50.253   6.188  18.232  0.00  0.00    +0.000 N 
ATOM     24  C   UNL     1      50.244   6.997  17.128  0.00  0.00    +0.000 A 
ATOM     25  C   UNL     1      49.332   6.488  16.210  0.00  0.00    +0.000 A 
ATOM     26  C   UNL     1      48.776   5.294  16.807  0.00  0.00    +0.000 A 
ATOM     27  C   UNL     1      47.865   4.282  16.509  0.00  0.00    +0.000 A 
ATOM     28 CL   UNL     1      47.071   4.210  15.014  0.00  0.00    +0.000 Cl
ATOM     29  N   UNL     1      47.609   3.270  17.359  0.00  0.00    +0.000 NA
ATOM     30  C   UNL     1      48.266   3.273  18.524  0.00  0.00    +0.000 A 
ATOM     31  N   UNL     1      49.166   4.170  18.951  0.00  0.00    +0.000 NA
ATOM     32  C   UNL     1      49.380   5.149  18.054  0.00  0.00    +0.000 A 
ENDBRANCH  18  25
ENDBRANCH   1  20
TORSDOF 5
ENDMDL
MODEL 2
REMARK VINA RESULT:    -8.636      2.291      2.844
REMARK INTER + INTRA:         -12.056
REMARK INTER:                 -11.149
REMARK INTRA:                  -0.906
REMARK UNBOUND:                -0.895
REMARK  Name = 
REMARK  6 active torsions:
REMARK  status: ('A' for Active; 'I' for Inactive)
REMARK    1  A    between atoms: C_1  and  N_2
REMARK    2  A    between atoms: C_4  and  C_5
REMARK    3  A    between atoms: N_7  and  C_8
REMARK    4  A    between atoms: C_8  and  C_9
REMARK    5  A    between atoms: N_13  and  C_14
REMARK    6  A    between atoms: C_14  and  C_15
REMARK                            x       y       z     vdW  Elec       q    Type
REMARK                         _______ _______ _______ _____ _____    ______ ____
ROOT
ATOM      1  C   UNL     1      48.296   6.532  14.089  0.00  0.00    +0.000 C 
ENDROOT
BRANCH   1   2
ATOM      2  C   UNL     1      47.213   5.951  13.233  0.00  0.00    +0.000 A 
ATOM      3  C   UNL     1      46.640   6.675  12.190  0.00  0.00    +0.000 A 
ATOM      4  C   UNL     1      45.646   6.092  11.403  0.00  0.00    +0.000 A 
ATOM      5  C   UNL     1      45.220   4.799  11.684  0.00  0.00    +0.000 A 
ATOM      6  N   UNL     1      44.179   4.180  11.025  0.00  0.00    +0.000 N 
ATOM      7  N   UNL     1      45.759   4.087  12.692  0.00  0.00    +0.000 NA
ATOM      8  C   UNL     1      46.737   4.664  13.433  0.00  0.00    +0.000 A 
ATOM      9  H   UNL     1      44.097   3.230  11.371  0.00  0.00    +0.000 HD
BRANCH   6  10
ATOM     10  C   UNL     1      44.002   4.333   9.593  0.00  0.00    +0.000 C 
BRANCH  10  11
ATOM     11  C   UNL     1      45.036   3.536   8.823  0.00  0.00    +0.000 A 
ATOM     12  C   UNL     1      45.119   2.143   9.000  0.00  0.00    +0.000 A 
ATOM     13  C   UNL     1      46.064   1.399   8.290  0.00  0.00    +0.000 A 
ATOM     14  C   UNL     1      46.916   2.038   7.399  0.00  0.00    +0.000 A 
ATOM     15  F   UNL     1      47.828   1.321   6.729  0.00  0.00    +0.000 F 
ATOM     16  C   UNL     1      46.838   3.408   7.189  0.00  0.00    +0.000 A 
ATOM     17  C   UNL     1      45.892   4.151   7.893  0.00  0.00    +0.000 A 
ENDBRANCH  10  11
ENDBRANCH   6  10
ENDBRANCH   1   2
BRANCH   1  20
ATOM     18  C   UNL     1      49.109   6.282  16.375  0.00  0.00    +0.000 C 
ATOM     19  O   UNL     1      50.263   6.234  15.972  0.00  0.00    +0.000 OA
ATOM     20  N   UNL     1      48.038   6.388  15.507  0.00  0.00    +0.000 N 
ATOM     21  H   UNL     1      47.102   6.509  15.864  0.00  0.00    +0.000 HD
BRANCH  18  25
ATOM     22  C   UNL     1      48.608   4.565  21.035  0.00  0.00    +0.000 C 
ATOM     23  N   UNL     1      48.559   5.439  19.885  0.00  0.00    +0.000 N 
ATOM     24  C   UNL     1      48.930   5.109  18.610  0.00  0.00    +0.000 A 
ATOM     25  C   UNL     1      48.766   6.224  17.795  0.00  0.00    +0.000 A 
ATOM     26  C   UNL     1      48.255   7.277  18.644  0.00  0.00    +0.000 A 
ATOM     27  C   UNL     1      47.848   8.607  18.558  0.00  0.00    +0.000 A 
ATOM     28 CL   UNL     1      47.823   9.438  17.082  0.00  0.00    +0.000 Cl
ATOM     29  N   UNL     1      47.389   9.290  19.624  0.00  0.00    +0.000 NA
ATOM     30  C   UNL     1      47.344   8.638  20.791  0.00  0.00    +0.000 A 
ATOM     31  N   UNL     1      47.700   7.368  21.030  0.00  0.00    +0.000 NA
ATOM     32  C   UNL     1      48.141   6.741  19.925  0.00  0.00    +0.000 A 
ENDBRANCH  18  25
ENDBRANCH   1  20
TORSDOF 5
ENDMDL
MODEL 3
REMARK VINA RESULT:    -8.318      2.745      4.817
REMARK INTER + INTRA:         -11.645
REMARK INTER:                 -10.487
REMARK INTRA:                  -1.158
REMARK UNBOUND:                -0.895
REMARK  Name = 
REMARK  6 active torsions:
REMARK  status: ('A' for Active; 'I' for Inactive)
REMARK    1  A    between atoms: C_1  and  N_2
REMARK    2  A    between atoms: C_4  and  C_5
REMARK    3  A    between atoms: N_7  and  C_8
REMARK    4  A    between atoms: C_8  and  C_9
REMARK    5  A    between atoms: N_13  and  C_14
REMARK    6  A    between atoms: C_14  and  C_15
REMARK                            x       y       z     vdW  Elec       q    Type
REMARK                         _______ _______ _______ _____ _____    ______ ____
ROOT
ATOM      1  C   UNL     1      47.729   5.506  14.810  0.00  0.00    +0.000 C 
ENDROOT
BRANCH   1   2
ATOM      2  C   UNL     1      46.804   4.890  13.807  0.00  0.00    +0.000 A 
ATOM      3  C   UNL     1      46.021   5.672  12.961  0.00  0.00    +0.000 A 
ATOM      4  C   UNL     1      45.185   5.060  12.026  0.00  0.00    +0.000 A 
ATOM      5  C   UNL     1      45.124   3.673  11.965  0.00  0.00    +0.000 A 
ATOM      6  N   UNL     1      44.256   2.985  11.143  0.00  0.00    +0.000 N 
ATOM      7  N   UNL     1      45.869   2.902  12.779  0.00  0.00    +0.000 NA
ATOM      8  C   UNL     1      46.690   3.515  13.667  0.00  0.00    +0.000 A 
ATOM      9  H   UNL     1      44.440   1.991  11.241  0.00  0.00    +0.000 HD
BRANCH   6  10
ATOM     10  C   UNL     1      43.989   3.435   9.790  0.00  0.00    +0.000 C 
BRANCH  10  11
ATOM     11  C   UNL     1      45.091   3.007   8.842  0.00  0.00    +0.000 A 
ATOM     12  C   UNL     1      45.738   3.967   8.043  0.00  0.00    +0.000 A 
ATOM     13  C   UNL     1      46.759   3.582   7.170  0.00  0.00    +0.000 A 
ATOM     14  C   UNL     1      47.143   2.249   7.102  0.00  0.00    +0.000 A 
ATOM     15  F   UNL     1      48.115   1.884   6.255  0.00  0.00    +0.000 F 
ATOM     16  C   UNL     1      46.535   1.287   7.898  0.00  0.00    +0.000 A 
ATOM     17  C   UNL     1      45.520   1.669   8.773  0.00  0.00    +0.000 A 
ENDBRANCH  10  11
ENDBRANCH   6  10
ENDBRANCH   1   2
BRANCH   1  20
ATOM     18  C   UNL     1      49.039   7.563  14.834  0.00  0.00    +0.000 C 
ATOM     19  O   UNL     1      50.050   6.931  15.111  0.00  0.00    +0.000 OA
ATOM     20  N   UNL     1      47.809   6.948  14.702  0.00  0.00    +0.000 N 
ATOM     21  H   UNL     1      47.004   7.474  14.393  0.00  0.00    +0.000 HD
BRANCH  18  25
ATOM     22  C   UNL     1      49.332  12.455  15.783  0.00  0.00    +0.000 C 
ATOM     23  N   UNL     1      49.190  11.204  15.073  0.00  0.00    +0.000 N 
ATOM     24  C   UNL     1      49.164   9.959  15.641  0.00  0.00    +0.000 A 
ATOM     25  C   UNL     1      49.045   9.011  14.630  0.00  0.00    +0.000 A 
ATOM     26  C   UNL     1      48.987   9.747  13.386  0.00  0.00    +0.000 A 
ATOM     27  C   UNL     1      48.858   9.513  12.018  0.00  0.00    +0.000 A 
ATOM     28 CL   UNL     1      48.651   7.951  11.397  0.00  0.00    +0.000 Cl
ATOM     29  N   UNL     1      48.824  10.512  11.117  0.00  0.00    +0.000 NA
ATOM     30  C   UNL     1      48.927  11.760  11.587  0.00  0.00    +0.000 A 
ATOM     31  N   UNL     1      49.056  12.141  12.866  0.00  0.00    +0.000 NA
ATOM     32  C   UNL     1      49.076  11.098  13.714  0.00  0.00    +0.000 A 
ENDBRANCH  18  25
ENDBRANCH   1  20
TORSDOF 5
ENDMDL
MODEL 4
REMARK VINA RESULT:    -7.870      2.135      2.402
REMARK INTER + INTRA:         -11.065
REMARK INTER:                 -10.201
REMARK INTRA:                  -0.865
REMARK UNBOUND:                -0.895
REMARK  Name = 
REMARK  6 active torsions:
REMARK  status: ('A' for Active; 'I' for Inactive)
REMARK    1  A    between atoms: C_1  and  N_2
REMARK    2  A    between atoms: C_4  and  C_5
REMARK    3  A    between atoms: N_7  and  C_8
REMARK    4  A    between atoms: C_8  and  C_9
REMARK    5  A    between atoms: N_13  and  C_14
REMARK    6  A    between atoms: C_14  and  C_15
REMARK                            x       y       z     vdW  Elec       q    Type
REMARK                         _______ _______ _______ _____ _____    ______ ____
ROOT
ATOM      1  C   UNL     1      47.648   9.124  13.658  0.00  0.00    +0.000 C 
ENDROOT
BRANCH   1   2
ATOM      2  C   UNL     1      46.813   8.202  12.826  0.00  0.00    +0.000 A 
ATOM      3  C   UNL     1      47.270   6.939  12.453  0.00  0.00    +0.000 A 
ATOM      4  C   UNL     1      46.454   6.102  11.691  0.00  0.00    +0.000 A 
ATOM      5  C   UNL     1      45.199   6.546  11.292  0.00  0.00    +0.000 A 
ATOM      6  N   UNL     1      44.367   5.828  10.459  0.00  0.00    +0.000 N 
ATOM      7  N   UNL     1      44.744   7.765  11.638  0.00  0.00    +0.000 NA
ATOM      8  C   UNL     1      45.544   8.557  12.395  0.00  0.00    +0.000 A 
ATOM      9  H   UNL     1      43.494   6.336  10.360  0.00  0.00    +0.000 HD
BRANCH   6  10
ATOM     10  C   UNL     1      44.234   4.390  10.591  0.00  0.00    +0.000 C 
BRANCH  10  11
ATOM     11  C   UNL     1      44.979   3.666   9.487  0.00  0.00    +0.000 A 
ATOM     12  C   UNL     1      45.600   4.402   8.462  0.00  0.00    +0.000 A 
ATOM     13  C   UNL     1      46.294   3.744   7.444  0.00  0.00    +0.000 A 
ATOM     14  C   UNL     1      46.380   2.358   7.453  0.00  0.00    +0.000 A 
ATOM     15  F   UNL     1      47.038   1.731   6.469  0.00  0.00    +0.000 F 
ATOM     16  C   UNL     1      45.796   1.610   8.467  0.00  0.00    +0.000 A 
ATOM     17  C   UNL     1      45.108   2.265   9.486  0.00  0.00    +0.000 A 
ENDBRANCH  10  11
ENDBRANCH   6  10
ENDBRANCH   1   2
BRANCH   1  20
ATOM     18  C   UNL     1      48.479   8.660  15.904  0.00  0.00    +0.000 C 
ATOM     19  O   UNL     1      49.596   8.433  15.457  0.00  0.00    +0.000 OA
ATOM     20  N   UNL     1      47.415   8.975  15.080  0.00  0.00    +0.000 N 
ATOM     21  H   UNL     1      46.524   9.239  15.474  0.00  0.00    +0.000 HD
BRANCH  18  25
ATOM     22  C   UNL     1      47.176  10.109  20.500  0.00  0.00    +0.000 C 
ATOM     23  N   UNL     1      47.578   9.276  19.389  0.00  0.00    +0.000 N 
ATOM     24  C   UNL     1      47.856   9.710  18.121  0.00  0.00    +0.000 A 
ATOM     25  C   UNL     1      48.176   8.609  17.334  0.00  0.00    +0.000 A 
ATOM     26  C   UNL     1      48.091   7.452  18.197  0.00  0.00    +0.000 A 
ATOM     27  C   UNL     1      48.277   6.072  18.145  0.00  0.00    +0.000 A 
ATOM     28 CL   UNL     1      48.806   5.297  16.735  0.00  0.00    +0.000 Cl
ATOM     29  N   UNL     1      48.111   5.282  19.222  0.00  0.00    +0.000 NA
ATOM     30  C   UNL     1      47.749   5.878  20.364  0.00  0.00    +0.000 A 
ATOM     31  N   UNL     1      47.534   7.185  20.569  0.00  0.00    +0.000 NA
ATOM     32  C   UNL     1      47.722   7.917  19.457  0.00  0.00    +0.000 A 
ENDBRANCH  18  25
ENDBRANCH   1  20
TORSDOF 5
ENDMDL
MODEL 5
REMARK VINA RESULT:    -7.634      1.735      2.409
REMARK INTER + INTRA:         -10.761
REMARK INTER:                 -10.026
REMARK INTRA:                  -0.735
REMARK UNBOUND:                -0.895
REMARK  Name = 
REMARK  6 active torsions:
REMARK  status: ('A' for Active; 'I' for Inactive)
REMARK    1  A    between atoms: C_1  and  N_2
REMARK    2  A    between atoms: C_4  and  C_5
REMARK    3  A    between atoms: N_7  and  C_8
REMARK    4  A    between atoms: C_8  and  C_9
REMARK    5  A    between atoms: N_13  and  C_14
REMARK    6  A    between atoms: C_14  and  C_15
REMARK                            x       y       z     vdW  Elec       q    Type
REMARK                         _______ _______ _______ _____ _____    ______ ____
ROOT
ATOM      1  C   UNL     1      47.320   8.645  13.632  0.00  0.00    +0.000 C 
ENDROOT
BRANCH   1   2
ATOM      2  C   UNL     1      46.523   7.763  12.723  0.00  0.00    +0.000 A 
ATOM      3  C   UNL     1      47.009   6.532  12.289  0.00  0.00    +0.000 A 
ATOM      4  C   UNL     1      46.227   5.730  11.456  0.00  0.00    +0.000 A 
ATOM      5  C   UNL     1      44.976   6.180  11.049  0.00  0.00    +0.000 A 
ATOM      6  N   UNL     1      44.178   5.501  10.152  0.00  0.00    +0.000 N 
ATOM      7  N   UNL     1      44.493   7.370  11.455  0.00  0.00    +0.000 NA
ATOM      8  C   UNL     1      45.260   8.125  12.279  0.00  0.00    +0.000 A 
ATOM      9  H   UNL     1      43.300   6.002  10.059  0.00  0.00    +0.000 HD
BRANCH   6  10
ATOM     10  C   UNL     1      44.065   4.056  10.194  0.00  0.00    +0.000 C 
BRANCH  10  11
ATOM     11  C   UNL     1      44.982   3.403   9.180  0.00  0.00    +0.000 A 
ATOM     12  C   UNL     1      45.178   2.010   9.209  0.00  0.00    +0.000 A 
ATOM     13  C   UNL     1      46.016   1.398   8.274  0.00  0.00    +0.000 A 
ATOM     14  C   UNL     1      46.648   2.169   7.306  0.00  0.00    +0.000 A 
ATOM     15  F   UNL     1      47.460   1.579   6.419  0.00  0.00    +0.000 F 
ATOM     16  C   UNL     1      46.452   3.542   7.243  0.00  0.00    +0.000 A 
ATOM     17  C   UNL     1      45.612   4.153   8.171  0.00  0.00    +0.000 A 
ENDBRANCH  10  11
ENDBRANCH   6  10
ENDBRANCH   1   2
BRANCH   1  20
ATOM     18  C   UNL     1      48.856   7.578  15.198  0.00  0.00    +0.000 C 
ATOM     19  O   UNL     1      49.745   7.595  14.357  0.00  0.00    +0.000 OA
ATOM     20  N   UNL     1      47.584   8.043  14.923  0.00  0.00    +0.000 N 
ATOM     21  H   UNL     1      46.890   8.095  15.654  0.00  0.00    +0.000 HD
BRANCH  18  25
ATOM     22  C   UNL     1      49.958   4.453  18.931  0.00  0.00    +0.000 C 
ATOM     23  N   UNL     1      49.569   5.645  18.213  0.00  0.00    +0.000 N 
ATOM     24  C   UNL     1      49.408   5.749  16.858  0.00  0.00    +0.000 A 
ATOM     25  C   UNL     1      49.059   7.060  16.550  0.00  0.00    +0.000 A 
ATOM     26  C   UNL     1      49.000   7.772  17.807  0.00  0.00    +0.000 A 
ATOM     27  C   UNL     1      48.715   9.047  18.294  0.00  0.00    +0.000 A 
ATOM     28 CL   UNL     1      48.223  10.302  17.268  0.00  0.00    +0.000 Cl
ATOM     29  N   UNL     1      48.750   9.341  19.607  0.00  0.00    +0.000 NA
ATOM     30  C   UNL     1      49.080   8.350  20.443  0.00  0.00    +0.000 A 
ATOM     31  N   UNL     1      49.378   7.082  20.129  0.00  0.00    +0.000 NA
ATOM     32  C   UNL     1      49.319   6.854  18.805  0.00  0.00    +0.000 A 
ENDBRANCH  18  25
ENDBRANCH   1  20
TORSDOF 5
ENDMDL
MODEL 6
REMARK VINA RESULT:    -7.625      1.910      2.687
REMARK INTER + INTRA:         -10.749
REMARK INTER:                  -9.790
REMARK INTRA:                  -0.959
REMARK UNBOUND:                -0.895
REMARK  Name = 
REMARK  6 active torsions:
REMARK  status: ('A' for Active; 'I' for Inactive)
REMARK    1  A    between atoms: C_1  and  N_2
REMARK    2  A    between atoms: C_4  and  C_5
REMARK    3  A    between atoms: N_7  and  C_8
REMARK    4  A    between atoms: C_8  and  C_9
REMARK    5  A    between atoms: N_13  and  C_14
REMARK    6  A    between atoms: C_14  and  C_15
REMARK                            x       y       z     vdW  Elec       q    Type
REMARK                         _______ _______ _______ _____ _____    ______ ____
ROOT
ATOM      1  C   UNL     1      48.580   7.273  13.808  0.00  0.00    +0.000 C 
ENDROOT
BRANCH   1   2
ATOM      2  C   UNL     1      47.436   6.572  13.145  0.00  0.00    +0.000 A 
ATOM      3  C   UNL     1      46.657   7.203  12.177  0.00  0.00    +0.000 A 
ATOM      4  C   UNL     1      45.609   6.509  11.568  0.00  0.00    +0.000 A 
ATOM      5  C   UNL     1      45.340   5.200  11.952  0.00  0.00    +0.000 A 
ATOM      6  N   UNL     1      44.268   4.473  11.478  0.00  0.00    +0.000 N 
ATOM      7  N   UNL     1      46.079   4.578  12.890  0.00  0.00    +0.000 NA
ATOM      8  C   UNL     1      47.104   5.262  13.456  0.00  0.00    +0.000 A 
ATOM      9  H   UNL     1      44.318   3.536  11.863  0.00  0.00    +0.000 HD
BRANCH   6  10
ATOM     10  C   UNL     1      43.870   4.548  10.085  0.00  0.00    +0.000 C 
BRANCH  10  11
ATOM     11  C   UNL     1      44.791   3.727   9.205  0.00  0.00    +0.000 A 
ATOM     12  C   UNL     1      45.622   4.370   8.270  0.00  0.00    +0.000 A 
ATOM     13  C   UNL     1      46.479   3.621   7.459  0.00  0.00    +0.000 A 
ATOM     14  C   UNL     1      46.516   2.239   7.587  0.00  0.00    +0.000 A 
ATOM     15  F   UNL     1      47.331   1.525   6.799  0.00  0.00    +0.000 F 
ATOM     16  C   UNL     1      45.723   1.583   8.519  0.00  0.00    +0.000 A 
ATOM     17  C   UNL     1      44.871   2.329   9.332  0.00  0.00    +0.000 A 
ENDBRANCH  10  11
ENDBRANCH   6  10
ENDBRANCH   1   2
BRANCH   1  20
ATOM     18  C   UNL     1      48.921   7.209  16.222  0.00  0.00    +0.000 C 
ATOM     19  O   UNL     1      48.479   8.346  16.327  0.00  0.00    +0.000 OA
ATOM     20  N   UNL     1      49.055   6.590  14.994  0.00  0.00    +0.000 N 
ATOM     21  H   UNL     1      49.344   5.625  14.937  0.00  0.00    +0.000 HD
BRANCH  18  25
ATOM     22  C   UNL     1      48.738   4.533  20.432  0.00  0.00    +0.000 C 
ATOM     23  N   UNL     1      49.247   5.211  19.262  0.00  0.00    +0.000 N 
ATOM     24  C   UNL     1      48.510   5.960  18.384  0.00  0.00    +0.000 A 
ATOM     25  C   UNL     1      49.350   6.420  17.376  0.00  0.00    +0.000 A 
ATOM     26  C   UNL     1      50.671   5.918  17.685  0.00  0.00    +0.000 A 
ATOM     27  C   UNL     1      51.970   5.965  17.183  0.00  0.00    +0.000 A 
ATOM     28 CL   UNL     1      52.360   6.872  15.807  0.00  0.00    +0.000 Cl
ATOM     29  N   UNL     1      53.000   5.351  17.793  0.00  0.00    +0.000 NA
ATOM     30  C   UNL     1      52.728   4.675  18.914  0.00  0.00    +0.000 A 
ATOM     31  N   UNL     1      51.538   4.538  19.516  0.00  0.00    +0.000 NA
ATOM     32  C   UNL     1      50.555   5.180  18.861  0.00  0.00    +0.000 A 
ENDBRANCH  18  25
ENDBRANCH   1  20
TORSDOF 5
ENDMDL
MODEL 7
REMARK VINA RESULT:    -7.611      4.079      5.711
REMARK INTER + INTRA:         -10.731
REMARK INTER:                  -9.826
REMARK INTRA:                  -0.905
REMARK UNBOUND:                -0.895
REMARK  Name = 
REMARK  6 active torsions:
REMARK  status: ('A' for Active; 'I' for Inactive)
REMARK    1  A    between atoms: C_1  and  N_2
REMARK    2  A    between atoms: C_4  and  C_5
REMARK    3  A    between atoms: N_7  and  C_8
REMARK    4  A    between atoms: C_8  and  C_9
REMARK    5  A    between atoms: N_13  and  C_14
REMARK    6  A    between atoms: C_14  and  C_15
REMARK                            x       y       z     vdW  Elec       q    Type
REMARK                         _______ _______ _______ _____ _____    ______ ____
ROOT
ATOM      1  C   UNL     1      45.132   7.645  12.887  0.00  0.00    +0.000 C 
ENDROOT
BRANCH   1   2
ATOM      2  C   UNL     1      44.955   6.295  12.264  0.00  0.00    +0.000 A 
ATOM      3  C   UNL     1      43.957   6.051  11.323  0.00  0.00    +0.000 A 
ATOM      4  C   UNL     1      43.835   4.783  10.752  0.00  0.00    +0.000 A 
ATOM      5  C   UNL     1      44.699   3.768  11.147  0.00  0.00    +0.000 A 
ATOM      6  N   UNL     1      44.591   2.464  10.710  0.00  0.00    +0.000 N 
ATOM      7  N   UNL     1      45.665   3.985  12.059  0.00  0.00    +0.000 NA
ATOM      8  C   UNL     1      45.780   5.228  12.588  0.00  0.00    +0.000 A 
ATOM      9  H   UNL     1      45.363   1.930  11.095  0.00  0.00    +0.000 HD
BRANCH   6  10
ATOM     10  C   UNL     1      44.255   2.161   9.332  0.00  0.00    +0.000 C 
BRANCH  10  11
ATOM     11  C   UNL     1      45.467   2.287   8.431  0.00  0.00    +0.000 A 
ATOM     12  C   UNL     1      46.229   1.146   8.119  0.00  0.00    +0.000 A 
ATOM     13  C   UNL     1      47.344   1.251   7.285  0.00  0.00    +0.000 A 
ATOM     14  C   UNL     1      47.692   2.486   6.752  0.00  0.00    +0.000 A 
ATOM     15  F   UNL     1      48.769   2.583   5.961  0.00  0.00    +0.000 F 
ATOM     16  C   UNL     1      46.943   3.622   7.026  0.00  0.00    +0.000 A 
ATOM     17  C   UNL     1      45.827   3.518   7.855  0.00  0.00    +0.000 A 
ENDBRANCH  10  11
ENDBRANCH   6  10
ENDBRANCH   1   2
BRANCH   1  20
ATOM     18  C   UNL     1      47.036   9.162  12.738  0.00  0.00    +0.000 C 
ATOM     19  O   UNL     1      47.223   9.065  13.944  0.00  0.00    +0.000 OA
ATOM     20  N   UNL     1      45.985   8.522  12.110  0.00  0.00    +0.000 N 
ATOM     21  H   UNL     1      45.897   8.548  11.105  0.00  0.00    +0.000 HD
BRANCH  18  25
ATOM     22  C   UNL     1      48.630  12.887   9.822  0.00  0.00    +0.000 C 
ATOM     23  N   UNL     1      48.599  11.650  10.570  0.00  0.00    +0.000 N 
ATOM     24  C   UNL     1      47.524  11.155  11.257  0.00  0.00    +0.000 A 
ATOM     25  C   UNL     1      47.897   9.963  11.868  0.00  0.00    +0.000 A 
ATOM     26  C   UNL     1      49.279   9.736  11.510  0.00  0.00    +0.000 A 
ATOM     27  C   UNL     1      50.289   8.797  11.712  0.00  0.00    +0.000 A 
ATOM     28 CL   UNL     1      50.019   7.374  12.592  0.00  0.00    +0.000 Cl
ATOM     29  N   UNL     1      51.513   8.928  11.170  0.00  0.00    +0.000 NA
ATOM     30  C   UNL     1      51.735  10.015  10.422  0.00  0.00    +0.000 A 
ATOM     31  N   UNL     1      50.870  10.999  10.138  0.00  0.00    +0.000 NA
ATOM     32  C   UNL     1      49.666  10.804  10.704  0.00  0.00    +0.000 A 
ENDBRANCH  18  25
ENDBRANCH   1  20
TORSDOF 5
ENDMDL
MODEL 8
REMARK VINA RESULT:    -6.548      3.008      8.192
REMARK INTER + INTRA:          -9.358
REMARK INTER:                  -8.212
REMARK INTRA:                  -1.145
REMARK UNBOUND:                -0.895
REMARK  Name = 
REMARK  6 active torsions:
REMARK  status: ('A' for Active; 'I' for Inactive)
REMARK    1  A    between atoms: C_1  and  N_2
REMARK    2  A    between atoms: C_4  and  C_5
REMARK    3  A    between atoms: N_7  and  C_8
REMARK    4  A    between atoms: C_8  and  C_9
REMARK    5  A    between atoms: N_13  and  C_14
REMARK    6  A    between atoms: C_14  and  C_15
REMARK                            x       y       z     vdW  Elec       q    Type
REMARK                         _______ _______ _______ _____ _____    ______ ____
ROOT
ATOM      1  C   UNL     1      47.993   8.258  11.874  0.00  0.00    +0.000 C 
ENDROOT
BRANCH   1   2
ATOM      2  C   UNL     1      48.623   8.058  13.217  0.00  0.00    +0.000 A 
ATOM      3  C   UNL     1      48.004   8.498  14.385  0.00  0.00    +0.000 A 
ATOM      4  C   UNL     1      48.615   8.277  15.621  0.00  0.00    +0.000 A 
ATOM      5  C   UNL     1      49.849   7.639  15.670  0.00  0.00    +0.000 A 
ATOM      6  N   UNL     1      50.570   7.466  16.834  0.00  0.00    +0.000 N 
ATOM      7  N   UNL     1      50.464   7.212  14.551  0.00  0.00    +0.000 NA
ATOM      8  C   UNL     1      49.845   7.419  13.362  0.00  0.00    +0.000 A 
ATOM      9  H   UNL     1      51.404   6.930  16.619  0.00  0.00    +0.000 HD
BRANCH   6  10
ATOM     10  C   UNL     1      49.912   7.115  18.078  0.00  0.00    +0.000 C 
BRANCH  10  11
ATOM     11  C   UNL     1      49.149   5.812  17.946  0.00  0.00    +0.000 A 
ATOM     12  C   UNL     1      49.842   4.619  17.673  0.00  0.00    +0.000 A 
ATOM     13  C   UNL     1      49.148   3.413  17.556  0.00  0.00    +0.000 A 
ATOM     14  C   UNL     1      47.769   3.392  17.724  0.00  0.00    +0.000 A 
ATOM     15  F   UNL     1      47.107   2.234  17.600  0.00  0.00    +0.000 F 
ATOM     16  C   UNL     1      47.065   4.552  18.018  0.00  0.00    +0.000 A 
ATOM     17  C   UNL     1      47.757   5.756  18.139  0.00  0.00    +0.000 A 
ENDBRANCH  10  11
ENDBRANCH   6  10
ENDBRANCH   1   2
BRANCH   1  20
ATOM     18  C   UNL     1      46.065   6.898  11.256  0.00  0.00    +0.000 C 
ATOM     19  O   UNL     1      45.307   7.739  11.721  0.00  0.00    +0.000 OA
ATOM     20  N   UNL     1      47.438   7.040  11.319  0.00  0.00    +0.000 N 
ATOM     21  H   UNL     1      48.042   6.376  10.858  0.00  0.00    +0.000 HD
BRANCH  18  25
ATOM     22  C   UNL     1      45.346   3.366   7.803  0.00  0.00    +0.000 C 
ATOM     23  N   UNL     1      45.284   4.096   9.048  0.00  0.00    +0.000 N 
ATOM     24  C   UNL     1      45.835   5.326   9.286  0.00  0.00    +0.000 A 
ATOM     25  C   UNL     1      45.586   5.677  10.608  0.00  0.00    +0.000 A 
ATOM     26  C   UNL     1      44.829   4.588  11.185  0.00  0.00    +0.000 A 
ATOM     27  C   UNL     1      44.230   4.232  12.391  0.00  0.00    +0.000 A 
ATOM     28 CL   UNL     1      44.232   5.273  13.728  0.00  0.00    +0.000 Cl
ATOM     29  N   UNL     1      43.559   3.076  12.549  0.00  0.00    +0.000 NA
ATOM     30  C   UNL     1      43.493   2.262  11.489  0.00  0.00    +0.000 A 
ATOM     31  N   UNL     1      44.015   2.464  10.272  0.00  0.00    +0.000 NA
ATOM     32  C   UNL     1      44.665   3.637  10.179  0.00  0.00    +0.000 A 
ENDBRANCH  18  25
ENDBRANCH   1  20
TORSDOF 5
ENDMDL
MODEL 9
REMARK VINA RESULT:    -6.381      3.422      7.975
REMARK INTER + INTRA:          -9.141
REMARK INTER:                  -7.575
REMARK INTRA:                  -1.566
REMARK UNBOUND:                -0.895
REMARK  Name = 
REMARK  6 active torsions:
REMARK  status: ('A' for Active; 'I' for Inactive)
REMARK    1  A    between atoms: C_1  and  N_2
REMARK    2  A    between atoms: C_4  and  C_5
REMARK    3  A    between atoms: N_7  and  C_8
REMARK    4  A    between atoms: C_8  and  C_9
REMARK    5  A    between atoms: N_13  and  C_14
REMARK    6  A    between atoms: C_14  and  C_15
REMARK                            x       y       z     vdW  Elec       q    Type
REMARK                         _______ _______ _______ _____ _____    ______ ____
ROOT
ATOM      1  C   UNL     1      48.506   9.756  15.129  0.00  0.00    +0.000 C 
ENDROOT
BRANCH   1   2
ATOM      2  C   UNL     1      49.020   8.945  16.277  0.00  0.00    +0.000 A 
ATOM      3  C   UNL     1      48.168   8.456  17.265  0.00  0.00    +0.000 A 
ATOM      4  C   UNL     1      48.684   7.688  18.310  0.00  0.00    +0.000 A 
ATOM      5  C   UNL     1      50.051   7.438  18.367  0.00  0.00    +0.000 A 
ATOM      6  N   UNL     1      50.660   6.775  19.412  0.00  0.00    +0.000 N 
ATOM      7  N   UNL     1      50.889   7.908  17.424  0.00  0.00    +0.000 NA
ATOM      8  C   UNL     1      50.366   8.635  16.407  0.00  0.00    +0.000 A 
ATOM      9  H   UNL     1      51.646   6.672  19.196  0.00  0.00    +0.000 HD
BRANCH   6  10
ATOM     10  C   UNL     1      50.038   5.619  20.030  0.00  0.00    +0.000 C 
BRANCH  10  11
ATOM     11  C   UNL     1      49.740   4.542  19.007  0.00  0.00    +0.000 A 
ATOM     12  C   UNL     1      50.796   3.939  18.299  0.00  0.00    +0.000 A 
ATOM     13  C   UNL     1      50.532   2.941  17.358  0.00  0.00    +0.000 A 
ATOM     14  C   UNL     1      49.223   2.535  17.132  0.00  0.00    +0.000 A 
ATOM     15  F   UNL     1      48.974   1.585  16.221  0.00  0.00    +0.000 F 
ATOM     16  C   UNL     1      48.167   3.099  17.835  0.00  0.00    +0.000 A 
ATOM     17  C   UNL     1      48.428   4.091  18.778  0.00  0.00    +0.000 A 
ENDBRANCH  10  11
ENDBRANCH   6  10
ENDBRANCH   1   2
BRANCH   1  20
ATOM     18  C   UNL     1      47.525   8.248  13.481  0.00  0.00    +0.000 C 
ATOM     19  O   UNL     1      48.638   7.968  13.057  0.00  0.00    +0.000 OA
ATOM     20  N   UNL     1      47.343   9.170  14.495  0.00  0.00    +0.000 N 
ATOM     21  H   UNL     1      46.425   9.325  14.885  0.00  0.00    +0.000 HD
BRANCH  18  25
ATOM     22  C   UNL     1      43.283   7.672  10.914  0.00  0.00    +0.000 C 
ATOM     23  N   UNL     1      44.406   7.400  11.782  0.00  0.00    +0.000 N 
ATOM     24  C   UNL     1      45.388   8.289  12.126  0.00  0.00    +0.000 A 
ATOM     25  C   UNL     1      46.303   7.644  12.951  0.00  0.00    +0.000 A 
ATOM     26  C   UNL     1      45.824   6.290  13.112  0.00  0.00    +0.000 A 
ATOM     27  C   UNL     1      46.169   5.112  13.772  0.00  0.00    +0.000 A 
ATOM     28 CL   UNL     1      47.518   5.025  14.794  0.00  0.00    +0.000 Cl
ATOM     29  N   UNL     1      45.422   3.995  13.691  0.00  0.00    +0.000 NA
ATOM     30  C   UNL     1      44.319   4.055  12.936  0.00  0.00    +0.000 A 
ATOM     31  N   UNL     1      43.859   5.107  12.246  0.00  0.00    +0.000 NA
ATOM     32  C   UNL     1      44.646   6.190  12.374  0.00  0.00    +0.000 A 
ENDBRANCH  18  25
ENDBRANCH   1  20
TORSDOF 5
ENDMDL
