MODEL 1
REMARK VINA RESULT:    -8.083      0.000      0.000
REMARK INTER + INTRA:         -11.973
REMARK INTER:                 -11.626
REMARK INTRA:                  -0.347
REMARK UNBOUND:                -0.347
REMARK  Name = 
REMARK  8 active torsions:
REMARK  status: ('A' for Active; 'I' for Inactive)
REMARK    1  A    between atoms: C_2  and  O_3
REMARK    2  A    between atoms: C_2  and  C_4
REMARK    3  A    between atoms: C_4  and  C_5
REMARK    4  A    between atoms: C_6  and  C_7
REMARK    5  A    between atoms: C_11  and  O_12
REMARK    6  A    between atoms: O_12  and  C_13
REMARK    7  A    between atoms: C_13  and  C_14
REMARK    8  A    between atoms: C_18  and  C_19
REMARK                            x       y       z     vdW  Elec       q    Type
REMARK                         _______ _______ _______ _____ _____    ______ ____
ROOT
ATOM      1  C   UNL     1      47.123   6.993  12.583  0.00  0.00    +0.000 C 
ATOM      2  C   UNL     1      47.809   8.354  12.556  0.00  0.00    +0.000 C 
ATOM      3  C   UNL     1      48.268   7.282  11.629  0.00  0.00    +0.000 C 
ENDROOT
BRANCH   1   4
ATOM      4  C   UNL     1      47.351   6.103  13.796  0.00  0.00    +0.000 A 
ATOM      5  C   UNL     1      46.771   4.829  13.908  0.00  0.00    +0.000 A 
ATOM      6  C   UNL     1      46.997   4.022  15.021  0.00  0.00    +0.000 A 
ATOM      7  C   UNL     1      47.776   4.491  16.073  0.00  0.00    +0.000 A 
ATOM      8  C   UNL     1      48.339   5.772  16.039  0.00  0.00    +0.000 A 
ATOM      9  C   UNL     1      48.142   6.545  14.878  0.00  0.00    +0.000 A 
BRANCH   8  10
ATOM     10  C   UNL     1      49.111   6.368  17.213  0.00  0.00    +0.000 C 
ATOM     11  C   UNL     1      48.701   5.779  18.571  0.00  0.00    +0.000 C 
ATOM     12  C   UNL     1      47.410   6.395  19.105  0.00  0.00    +0.000 C 
ATOM     13  C   UNL     1      47.434   7.924  19.071  0.00  0.00    +0.000 C 
ATOM     14  N   UNL     1      47.815   8.466  17.771  0.00  0.00    +0.000 NA
ATOM     15  C   UNL     1      49.085   7.914  17.286  0.00  0.00    +0.000 C 
ATOM     16  H   UNL     1      47.879   9.483  17.820  0.00  0.00    +0.000 HD
ENDBRANCH   8  10
ENDBRANCH   1   4
BRANCH   1  17
ATOM     17  O   UNL     1      45.749   7.135  12.148  0.00  0.00    +0.000 OA
BRANCH  17  22
ATOM     18  C   UNL     1      45.020   4.640   9.531  0.00  0.00    +0.000 A 
ATOM     19  C   UNL     1      43.819   4.187  10.063  0.00  0.00    +0.000 A 
ATOM     20  N   UNL     1      43.285   4.655  11.211  0.00  0.00    +0.000 NA
ATOM     21  C   UNL     1      43.990   5.625  11.841  0.00  0.00    +0.000 A 
ATOM     22  C   UNL     1      45.181   6.169  11.371  0.00  0.00    +0.000 A 
ATOM     23  C   UNL     1      45.709   5.661  10.191  0.00  0.00    +0.000 A 
BRANCH  18  25
ATOM     24  C   UNL     1      46.051   3.592   7.356  0.00  0.00    +0.000 C 
ATOM     25  C   UNL     1      45.554   4.063   8.343  0.00  0.00    +0.000 C 
BRANCH  24  26
ATOM     26  C   UNL     1      46.701   3.036   6.158  0.00  0.00    +0.000 C 
BRANCH  26  28
ATOM     27  O   UNL     1      47.535   1.134   7.369  0.00  0.00    +0.000 OA
ATOM     28  C   UNL     1      47.674   1.913   6.437  0.00  0.00    +0.000 C 
BRANCH  28  29
ATOM     29  O   UNL     1      48.676   1.766   5.540  0.00  0.00    +0.000 OA
ATOM     30  H   UNL     1      48.422   1.313   4.714  0.00  0.00    +0.000 HD
ENDBRANCH  28  29
ENDBRANCH  26  28
ENDBRANCH  24  26
ENDBRANCH  18  25
ENDBRANCH  17  22
ENDBRANCH   1  17
TORSDOF 8
ENDMDL
MODEL 2
REMARK VINA RESULT:    -8.049      2.039      2.798
REMARK INTER + INTRA:         -11.924
REMARK INTER:                 -12.212
REMARK INTRA:                   0.288
REMARK UNBOUND:                -0.347
REMARK  Name = 
REMARK  8 active torsions:
REMARK  status: ('A' for Active; 'I' for Inactive)
REMARK    1  A    between atoms: C_2  and  O_3
REMARK    2  A    between atoms: C_2  and  C_4
REMARK    3  A    between atoms: C_4  and  C_5
REMARK    4  A    between atoms: C_6  and  C_7
REMARK    5  A    between atoms: C_11  and  O_12
REMARK    6  A    between atoms: O_12  and  C_13
REMARK    7  A    between atoms: C_13  and  C_14
REMARK    8  A    between atoms: C_18  and  C_19
REMARK                            x       y       z     vdW  Elec       q    Type
REMARK                         _______ _______ _______ _____ _____    ______ ____
ROOT
ATOM      1  C   UNL     1      46.343   6.285  13.097  0.00  0.00    +0.000 C 
ATOM      2  C   UNL     1      45.844   7.664  12.684  0.00  0.00    +0.000 C 
ATOM      3  C   UNL     1      46.660   6.862  11.729  0.00  0.00    +0.000 C 
ENDROOT
BRANCH   1   4
ATOM      4  C   UNL     1      47.430   6.208  14.160  0.00  0.00    +0.000 A 
ATOM      5  C   UNL     1      48.562   7.038  14.132  0.00  0.00    +0.000 A 
ATOM      6  C   UNL     1      49.544   6.962  15.119  0.00  0.00    +0.000 A 
ATOM      7  C   UNL     1      49.436   6.019  16.135  0.00  0.00    +0.000 A 
ATOM      8  C   UNL     1      48.354   5.132  16.186  0.00  0.00    +0.000 A 
ATOM      9  C   UNL     1      47.349   5.268  15.209  0.00  0.00    +0.000 A 
BRANCH   8  10
ATOM     10  C   UNL     1      48.249   4.014  17.219  0.00  0.00    +0.000 C 
ATOM     11  C   UNL     1      49.414   4.001  18.221  0.00  0.00    +0.000 C 
ATOM     12  C   UNL     1      50.669   3.351  17.642  0.00  0.00    +0.000 C 
ATOM     13  C   UNL     1      50.382   1.991  17.003  0.00  0.00    +0.000 C 
ATOM     14  N   UNL     1      49.280   2.025  16.047  0.00  0.00    +0.000 NA
ATOM     15  C   UNL     1      48.058   2.599  16.623  0.00  0.00    +0.000 C 
ATOM     16  H   UNL     1      49.087   1.085  15.701  0.00  0.00    +0.000 HD
ENDBRANCH   8  10
ENDBRANCH   1   4
BRANCH   1  17
ATOM     17  O   UNL     1      45.214   5.396  13.277  0.00  0.00    +0.000 OA
BRANCH  17  22
ATOM     18  C   UNL     1      44.925   3.584  10.077  0.00  0.00    +0.000 A 
ATOM     19  C   UNL     1      43.864   2.765  10.445  0.00  0.00    +0.000 A 
ATOM     20  N   UNL     1      43.286   2.791  11.665  0.00  0.00    +0.000 NA
ATOM     21  C   UNL     1      43.797   3.686  12.545  0.00  0.00    +0.000 A 
ATOM     22  C   UNL     1      44.831   4.572  12.260  0.00  0.00    +0.000 A 
ATOM     23  C   UNL     1      45.410   4.515  10.998  0.00  0.00    +0.000 A 
BRANCH  18  25
ATOM     24  C   UNL     1      46.029   3.316   7.711  0.00  0.00    +0.000 C 
ATOM     25  C   UNL     1      45.523   3.466   8.790  0.00  0.00    +0.000 C 
BRANCH  24  26
ATOM     26  C   UNL     1      46.655   3.087   6.399  0.00  0.00    +0.000 C 
BRANCH  26  28
ATOM     27  O   UNL     1      47.412   0.896   7.039  0.00  0.00    +0.000 OA
ATOM     28  C   UNL     1      47.579   1.889   6.346  0.00  0.00    +0.000 C 
BRANCH  28  29
ATOM     29  O   UNL     1      48.562   1.945   5.419  0.00  0.00    +0.000 OA
ATOM     30  H   UNL     1      48.362   1.487   4.582  0.00  0.00    +0.000 HD
ENDBRANCH  28  29
ENDBRANCH  26  28
ENDBRANCH  24  26
ENDBRANCH  18  25
ENDBRANCH  17  22
ENDBRANCH   1  17
TORSDOF 8
ENDMDL
MODEL 3
REMARK VINA RESULT:    -7.745      3.608      5.178
REMARK INTER + INTRA:         -11.488
REMARK INTER:                 -10.635
REMARK INTRA:                  -0.853
REMARK UNBOUND:                -0.347
REMARK  Name = 
REMARK  8 active torsions:
REMARK  status: ('A' for Active; 'I' for Inactive)
REMARK    1  A    between atoms: C_2  and  O_3
REMARK    2  A    between atoms: C_2  and  C_4
REMARK    3  A    between atoms: C_4  and  C_5
REMARK    4  A    between atoms: C_6  and  C_7
REMARK    5  A    between atoms: C_11  and  O_12
REMARK    6  A    between atoms: O_12  and  C_13
REMARK    7  A    between atoms: C_13  and  C_14
REMARK    8  A    between atoms: C_18  and  C_19
REMARK                            x       y       z     vdW  Elec       q    Type
REMARK                         _______ _______ _______ _____ _____    ______ ____
ROOT
ATOM      1  C   UNL     1      45.941   8.055  12.142  0.00  0.00    +0.000 C 
ATOM      2  C   UNL     1      45.112   9.096  12.885  0.00  0.00    +0.000 C 
ATOM      3  C   UNL     1      44.929   8.923  11.416  0.00  0.00    +0.000 C 
ENDROOT
BRANCH   1   4
ATOM      4  C   UNL     1      47.430   8.318  11.971  0.00  0.00    +0.000 A 
ATOM      5  C   UNL     1      48.385   7.290  12.055  0.00  0.00    +0.000 A 
ATOM      6  C   UNL     1      49.745   7.546  11.887  0.00  0.00    +0.000 A 
ATOM      7  C   UNL     1      50.186   8.847  11.673  0.00  0.00    +0.000 A 
ATOM      8  C   UNL     1      49.285   9.917  11.630  0.00  0.00    +0.000 A 
ATOM      9  C   UNL     1      47.912   9.624  11.747  0.00  0.00    +0.000 A 
BRANCH   8  10
ATOM     10  C   UNL     1      49.733  11.371  11.505  0.00  0.00    +0.000 C 
ATOM     11  C   UNL     1      48.725  12.255  10.754  0.00  0.00    +0.000 C 
ATOM     12  C   UNL     1      48.826  12.093   9.240  0.00  0.00    +0.000 C 
ATOM     13  C   UNL     1      50.263  12.218   8.732  0.00  0.00    +0.000 C 
ATOM     14  N   UNL     1      51.204  11.364   9.449  0.00  0.00    +0.000 NA
ATOM     15  C   UNL     1      51.145  11.563  10.901  0.00  0.00    +0.000 C 
ATOM     16  H   UNL     1      52.154  11.533   9.118  0.00  0.00    +0.000 HD
ENDBRANCH   8  10
ENDBRANCH   1   4
BRANCH   1  17
ATOM     17  O   UNL     1      45.579   6.730  12.603  0.00  0.00    +0.000 OA
BRANCH  17  22
ATOM     18  C   UNL     1      44.942   4.465   9.762  0.00  0.00    +0.000 A 
ATOM     19  C   UNL     1      43.725   3.968  10.215  0.00  0.00    +0.000 A 
ATOM     20  N   UNL     1      43.153   4.338  11.381  0.00  0.00    +0.000 NA
ATOM     21  C   UNL     1      43.835   5.251  12.113  0.00  0.00    +0.000 A 
ATOM     22  C   UNL     1      45.039   5.833  11.729  0.00  0.00    +0.000 A 
ATOM     23  C   UNL     1      45.605   5.427  10.527  0.00  0.00    +0.000 A 
BRANCH  18  25
ATOM     24  C   UNL     1      46.041   3.617   7.535  0.00  0.00    +0.000 C 
ATOM     25  C   UNL     1      45.515   3.992   8.547  0.00  0.00    +0.000 C 
BRANCH  24  26
ATOM     26  C   UNL     1      46.723   3.186   6.303  0.00  0.00    +0.000 C 
BRANCH  26  28
ATOM     27  O   UNL     1      47.450   1.148   7.353  0.00  0.00    +0.000 OA
ATOM     28  C   UNL     1      47.621   1.980   6.473  0.00  0.00    +0.000 C 
BRANCH  28  29
ATOM     29  O   UNL     1      48.584   1.828   5.536  0.00  0.00    +0.000 OA
ATOM     30  H   UNL     1      48.611   2.529   4.859  0.00  0.00    +0.000 HD
ENDBRANCH  28  29
ENDBRANCH  26  28
ENDBRANCH  24  26
ENDBRANCH  18  25
ENDBRANCH  17  22
ENDBRANCH   1  17
TORSDOF 8
ENDMDL
MODEL 4
REMARK VINA RESULT:    -7.712      1.645      2.531
REMARK INTER + INTRA:         -11.440
REMARK INTER:                 -10.610
REMARK INTRA:                  -0.830
REMARK UNBOUND:                -0.347
REMARK  Name = 
REMARK  8 active torsions:
REMARK  status: ('A' for Active; 'I' for Inactive)
REMARK    1  A    between atoms: C_2  and  O_3
REMARK    2  A    between atoms: C_2  and  C_4
REMARK    3  A    between atoms: C_4  and  C_5
REMARK    4  A    between atoms: C_6  and  C_7
REMARK    5  A    between atoms: C_11  and  O_12
REMARK    6  A    between atoms: O_12  and  C_13
REMARK    7  A    between atoms: C_13  and  C_14
REMARK    8  A    between atoms: C_18  and  C_19
REMARK                            x       y       z     vdW  Elec       q    Type
REMARK                         _______ _______ _______ _____ _____    ______ ____
ROOT
ATOM      1  C   UNL     1      45.792   7.785  12.310  0.00  0.00    +0.000 C 
ATOM      2  C   UNL     1      44.942   8.994  12.683  0.00  0.00    +0.000 C 
ATOM      3  C   UNL     1      45.123   8.638  11.247  0.00  0.00    +0.000 C 
ENDROOT
BRANCH   1   4
ATOM      4  C   UNL     1      47.296   7.877  12.523  0.00  0.00    +0.000 A 
ATOM      5  C   UNL     1      48.215   7.530  11.519  0.00  0.00    +0.000 A 
ATOM      6  C   UNL     1      49.590   7.629  11.727  0.00  0.00    +0.000 A 
ATOM      7  C   UNL     1      50.079   8.037  12.963  0.00  0.00    +0.000 A 
ATOM      8  C   UNL     1      49.211   8.348  14.016  0.00  0.00    +0.000 A 
ATOM      9  C   UNL     1      47.827   8.294  13.762  0.00  0.00    +0.000 A 
BRANCH   8  10
ATOM     10  C   UNL     1      49.703   8.697  15.418  0.00  0.00    +0.000 C 
ATOM     11  C   UNL     1      50.951   7.906  15.838  0.00  0.00    +0.000 C 
ATOM     12  C   UNL     1      50.612   6.494  16.307  0.00  0.00    +0.000 C 
ATOM     13  C   UNL     1      49.485   6.475  17.342  0.00  0.00    +0.000 C 
ATOM     14  N   UNL     1      48.304   7.222  16.921  0.00  0.00    +0.000 NA
ATOM     15  C   UNL     1      48.625   8.597  16.524  0.00  0.00    +0.000 C 
ATOM     16  H   UNL     1      47.612   7.233  17.670  0.00  0.00    +0.000 HD
ENDBRANCH   8  10
ENDBRANCH   1   4
BRANCH   1  17
ATOM     17  O   UNL     1      45.154   6.578  12.795  0.00  0.00    +0.000 OA
BRANCH  17  22
ATOM     18  C   UNL     1      44.886   4.268   9.931  0.00  0.00    +0.000 A 
ATOM     19  C   UNL     1      43.758   3.587  10.373  0.00  0.00    +0.000 A 
ATOM     20  N   UNL     1      43.131   3.853  11.538  0.00  0.00    +0.000 NA
ATOM     21  C   UNL     1      43.661   4.854  12.283  0.00  0.00    +0.000 A 
ATOM     22  C   UNL     1      44.763   5.617  11.910  0.00  0.00    +0.000 A 
ATOM     23  C   UNL     1      45.390   5.313  10.709  0.00  0.00    +0.000 A 
BRANCH  18  25
ATOM     24  C   UNL     1      46.111   3.622   7.702  0.00  0.00    +0.000 C 
ATOM     25  C   UNL     1      45.530   3.899   8.716  0.00  0.00    +0.000 C 
BRANCH  24  26
ATOM     26  C   UNL     1      46.853   3.317   6.468  0.00  0.00    +0.000 C 
BRANCH  26  28
ATOM     27  O   UNL     1      47.457   1.164   7.354  0.00  0.00    +0.000 OA
ATOM     28  C   UNL     1      47.656   2.035   6.519  0.00  0.00    +0.000 C 
BRANCH  28  29
ATOM     29  O   UNL     1      48.562   1.868   5.530  0.00  0.00    +0.000 OA
ATOM     30  H   UNL     1      48.218   2.019   4.629  0.00  0.00    +0.000 HD
ENDBRANCH  28  29
ENDBRANCH  26  28
ENDBRANCH  24  26
ENDBRANCH  18  25
ENDBRANCH  17  22
ENDBRANCH   1  17
TORSDOF 8
ENDMDL
MODEL 5
REMARK VINA RESULT:    -7.162      4.037      8.020
REMARK INTER + INTRA:         -10.650
REMARK INTER:                  -9.757
REMARK INTRA:                  -0.892
REMARK UNBOUND:                -0.347
REMARK  Name = 
REMARK  8 active torsions:
REMARK  status: ('A' for Active; 'I' for Inactive)
REMARK    1  A    between atoms: C_2  and  O_3
REMARK    2  A    between atoms: C_2  and  C_4
REMARK    3  A    between atoms: C_4  and  C_5
REMARK    4  A    between atoms: C_6  and  C_7
REMARK    5  A    between atoms: C_11  and  O_12
REMARK    6  A    between atoms: O_12  and  C_13
REMARK    7  A    between atoms: C_13  and  C_14
REMARK    8  A    between atoms: C_18  and  C_19
REMARK                            x       y       z     vdW  Elec       q    Type
REMARK                         _______ _______ _______ _____ _____    ______ ____
ROOT
ATOM      1  C   UNL     1      47.339   7.014  12.412  0.00  0.00    +0.000 C 
ATOM      2  C   UNL     1      48.821   6.944  12.763  0.00  0.00    +0.000 C 
ATOM      3  C   UNL     1      48.411   7.319  11.381  0.00  0.00    +0.000 C 
ENDROOT
BRANCH   1   4
ATOM      4  C   UNL     1      46.561   5.709  12.337  0.00  0.00    +0.000 A 
ATOM      5  C   UNL     1      46.599   4.756  13.368  0.00  0.00    +0.000 A 
ATOM      6  C   UNL     1      45.872   3.569  13.288  0.00  0.00    +0.000 A 
ATOM      7  C   UNL     1      45.123   3.288  12.150  0.00  0.00    +0.000 A 
ATOM      8  C   UNL     1      45.088   4.179  11.071  0.00  0.00    +0.000 A 
ATOM      9  C   UNL     1      45.785   5.395  11.201  0.00  0.00    +0.000 A 
BRANCH   8  10
ATOM     10  C   UNL     1      44.367   3.864   9.762  0.00  0.00    +0.000 C 
ATOM     11  C   UNL     1      44.358   2.367   9.418  0.00  0.00    +0.000 C 
ATOM     12  C   UNL     1      45.678   1.906   8.804  0.00  0.00    +0.000 C 
ATOM     13  C   UNL     1      46.135   2.807   7.655  0.00  0.00    +0.000 C 
ATOM     14  N   UNL     1      46.147   4.224   8.003  0.00  0.00    +0.000 NA
ATOM     15  C   UNL     1      44.859   4.677   8.541  0.00  0.00    +0.000 C 
ATOM     16  H   UNL     1      46.394   4.783   7.188  0.00  0.00    +0.000 HD
ENDBRANCH   8  10
ENDBRANCH   1   4
BRANCH   1  17
ATOM     17  O   UNL     1      46.715   8.084  13.164  0.00  0.00    +0.000 OA
BRANCH  17  22
ATOM     18  C   UNL     1      44.334  10.310  11.436  0.00  0.00    +0.000 A 
ATOM     19  C   UNL     1      45.209  11.373  11.246  0.00  0.00    +0.000 A 
ATOM     20  N   UNL     1      46.492  11.372  11.666  0.00  0.00    +0.000 NA
ATOM     21  C   UNL     1      46.908  10.247  12.297  0.00  0.00    +0.000 A 
ATOM     22  C   UNL     1      46.121   9.119  12.503  0.00  0.00    +0.000 A 
ATOM     23  C   UNL     1      44.803   9.154  12.065  0.00  0.00    +0.000 A 
BRANCH  18  25
ATOM     24  C   UNL     1      41.820  10.497  10.705  0.00  0.00    +0.000 C 
ATOM     25  C   UNL     1      42.976  10.400  11.015  0.00  0.00    +0.000 C 
BRANCH  24  26
ATOM     26  C   UNL     1      40.394  10.632  10.368  0.00  0.00    +0.000 C 
BRANCH  26  28
ATOM     27  O   UNL     1      39.234  11.177  12.403  0.00  0.00    +0.000 OA
ATOM     28  C   UNL     1      39.450  10.360  11.519  0.00  0.00    +0.000 C 
BRANCH  28  29
ATOM     29  O   UNL     1      38.788   9.182  11.471  0.00  0.00    +0.000 OA
ATOM     30  H   UNL     1      38.119   9.115  10.764  0.00  0.00    +0.000 HD
ENDBRANCH  28  29
ENDBRANCH  26  28
ENDBRANCH  24  26
ENDBRANCH  18  25
ENDBRANCH  17  22
ENDBRANCH   1  17
TORSDOF 8
ENDMDL
MODEL 6
REMARK VINA RESULT:    -6.710      1.404      2.143
REMARK INTER + INTRA:          -9.999
REMARK INTER:                  -9.478
REMARK INTRA:                  -0.521
REMARK UNBOUND:                -0.347
REMARK  Name = 
REMARK  8 active torsions:
REMARK  status: ('A' for Active; 'I' for Inactive)
REMARK    1  A    between atoms: C_2  and  O_3
REMARK    2  A    between atoms: C_2  and  C_4
REMARK    3  A    between atoms: C_4  and  C_5
REMARK    4  A    between atoms: C_6  and  C_7
REMARK    5  A    between atoms: C_11  and  O_12
REMARK    6  A    between atoms: O_12  and  C_13
REMARK    7  A    between atoms: C_13  and  C_14
REMARK    8  A    between atoms: C_18  and  C_19
REMARK                            x       y       z     vdW  Elec       q    Type
REMARK                         _______ _______ _______ _____ _____    ______ ____
ROOT
ATOM      1  C   UNL     1      47.770   7.987  12.510  0.00  0.00    +0.000 C 
ATOM      2  C   UNL     1      48.459   9.035  11.644  0.00  0.00    +0.000 C 
ATOM      3  C   UNL     1      48.841   7.601  11.505  0.00  0.00    +0.000 C 
ENDROOT
BRANCH   1   4
ATOM      4  C   UNL     1      48.083   7.973  13.999  0.00  0.00    +0.000 A 
ATOM      5  C   UNL     1      48.084   9.145  14.773  0.00  0.00    +0.000 A 
ATOM      6  C   UNL     1      48.364   9.114  16.138  0.00  0.00    +0.000 A 
ATOM      7  C   UNL     1      48.693   7.911  16.753  0.00  0.00    +0.000 A 
ATOM      8  C   UNL     1      48.756   6.719  16.021  0.00  0.00    +0.000 A 
ATOM      9  C   UNL     1      48.414   6.769  14.656  0.00  0.00    +0.000 A 
BRANCH   8  10
ATOM     10  C   UNL     1      49.215   5.397  16.631  0.00  0.00    +0.000 C 
ATOM     11  C   UNL     1      48.053   4.463  17.002  0.00  0.00    +0.000 C 
ATOM     12  C   UNL     1      47.400   4.848  18.327  0.00  0.00    +0.000 C 
ATOM     13  C   UNL     1      48.422   5.047  19.448  0.00  0.00    +0.000 C 
ATOM     14  N   UNL     1      49.512   5.946  19.081  0.00  0.00    +0.000 NA
ATOM     15  C   UNL     1      50.175   5.541  17.836  0.00  0.00    +0.000 C 
ATOM     16  H   UNL     1      50.197   5.992  19.835  0.00  0.00    +0.000 HD
ENDBRANCH   8  10
ENDBRANCH   1   4
BRANCH   1  17
ATOM     17  O   UNL     1      46.367   7.914  12.154  0.00  0.00    +0.000 OA
BRANCH  17  22
ATOM     18  C   UNL     1      45.472   4.923  10.189  0.00  0.00    +0.000 A 
ATOM     19  C   UNL     1      44.676   4.321  11.156  0.00  0.00    +0.000 A 
ATOM     20  N   UNL     1      44.455   4.849  12.378  0.00  0.00    +0.000 NA
ATOM     21  C   UNL     1      45.056   6.037  12.630  0.00  0.00    +0.000 A 
ATOM     22  C   UNL     1      45.840   6.734  11.716  0.00  0.00    +0.000 A 
ATOM     23  C   UNL     1      46.055   6.161  10.469  0.00  0.00    +0.000 A 
BRANCH  18  25
ATOM     24  C   UNL     1      45.910   3.701   7.908  0.00  0.00    +0.000 C 
ATOM     25  C   UNL     1      45.707   4.284   8.938  0.00  0.00    +0.000 C 
BRANCH  24  26
ATOM     26  C   UNL     1      46.170   2.947   6.671  0.00  0.00    +0.000 C 
BRANCH  26  28
ATOM     27  O   UNL     1      48.490   2.314   6.682  0.00  0.00    +0.000 OA
ATOM     28  C   UNL     1      47.320   1.968   6.762  0.00  0.00    +0.000 C 
BRANCH  28  29
ATOM     29  O   UNL     1      46.982   0.685   7.021  0.00  0.00    +0.000 OA
ATOM     30  H   UNL     1      47.376   0.313   7.833  0.00  0.00    +0.000 HD
ENDBRANCH  28  29
ENDBRANCH  26  28
ENDBRANCH  24  26
ENDBRANCH  18  25
ENDBRANCH  17  22
ENDBRANCH   1  17
TORSDOF 8
ENDMDL
MODEL 7
REMARK VINA RESULT:    -6.642      3.447      7.556
REMARK INTER + INTRA:          -9.901
REMARK INTER:                  -9.016
REMARK INTRA:                  -0.885
REMARK UNBOUND:                -0.347
REMARK  Name = 
REMARK  8 active torsions:
REMARK  status: ('A' for Active; 'I' for Inactive)
REMARK    1  A    between atoms: C_2  and  O_3
REMARK    2  A    between atoms: C_2  and  C_4
REMARK    3  A    between atoms: C_4  and  C_5
REMARK    4  A    between atoms: C_6  and  C_7
REMARK    5  A    between atoms: C_11  and  O_12
REMARK    6  A    between atoms: O_12  and  C_13
REMARK    7  A    between atoms: C_13  and  C_14
REMARK    8  A    between atoms: C_18  and  C_19
REMARK                            x       y       z     vdW  Elec       q    Type
REMARK                         _______ _______ _______ _____ _____    ______ ____
ROOT
ATOM      1  C   UNL     1      48.559   9.323  12.416  0.00  0.00    +0.000 C 
ATOM      2  C   UNL     1      49.293  10.001  11.265  0.00  0.00    +0.000 C 
ATOM      3  C   UNL     1      48.718  10.832  12.360  0.00  0.00    +0.000 C 
ENDROOT
BRANCH   1   4
ATOM      4  C   UNL     1      47.206   8.690  12.125  0.00  0.00    +0.000 A 
ATOM      5  C   UNL     1      46.012   9.430  12.161  0.00  0.00    +0.000 A 
ATOM      6  C   UNL     1      44.781   8.837  11.883  0.00  0.00    +0.000 A 
ATOM      7  C   UNL     1      44.712   7.477  11.604  0.00  0.00    +0.000 A 
ATOM      8  C   UNL     1      45.863   6.681  11.602  0.00  0.00    +0.000 A 
ATOM      9  C   UNL     1      47.100   7.314  11.831  0.00  0.00    +0.000 A 
BRANCH   8  10
ATOM     10  C   UNL     1      45.822   5.167  11.407  0.00  0.00    +0.000 C 
ATOM     11  C   UNL     1      44.652   4.700  10.528  0.00  0.00    +0.000 C 
ATOM     12  C   UNL     1      43.336   4.638  11.299  0.00  0.00    +0.000 C 
ATOM     13  C   UNL     1      43.466   3.876  12.619  0.00  0.00    +0.000 C 
ATOM     14  N   UNL     1      44.576   4.340  13.446  0.00  0.00    +0.000 NA
ATOM     15  C   UNL     1      45.850   4.345  12.718  0.00  0.00    +0.000 C 
ATOM     16  H   UNL     1      44.659   3.759  14.279  0.00  0.00    +0.000 HD
ENDBRANCH   8  10
ENDBRANCH   1   4
BRANCH   1  17
ATOM     17  O   UNL     1      49.490   8.512  13.173  0.00  0.00    +0.000 OA
BRANCH  17  22
ATOM     18  C   UNL     1      48.917   6.728  16.350  0.00  0.00    +0.000 A 
ATOM     19  C   UNL     1      48.646   7.850  17.124  0.00  0.00    +0.000 A 
ATOM     20  N   UNL     1      48.662   9.112  16.644  0.00  0.00    +0.000 NA
ATOM     21  C   UNL     1      48.956   9.243  15.328  0.00  0.00    +0.000 A 
ATOM     22  C   UNL     1      49.206   8.181  14.465  0.00  0.00    +0.000 A 
ATOM     23  C   UNL     1      49.190   6.896  14.990  0.00  0.00    +0.000 A 
BRANCH  18  25
ATOM     24  C   UNL     1      48.967   4.314  17.380  0.00  0.00    +0.000 C 
ATOM     25  C   UNL     1      48.936   5.429  16.933  0.00  0.00    +0.000 C 
BRANCH  24  26
ATOM     26  C   UNL     1      49.013   2.932  17.883  0.00  0.00    +0.000 C 
BRANCH  26  28
ATOM     27  O   UNL     1      49.597   1.739  15.878  0.00  0.00    +0.000 OA
ATOM     28  C   UNL     1      49.850   1.988  17.049  0.00  0.00    +0.000 C 
BRANCH  28  29
ATOM     29  O   UNL     1      50.954   1.491  17.652  0.00  0.00    +0.000 OA
ATOM     30  H   UNL     1      51.410   0.785  17.156  0.00  0.00    +0.000 HD
ENDBRANCH  28  29
ENDBRANCH  26  28
ENDBRANCH  24  26
ENDBRANCH  18  25
ENDBRANCH  17  22
ENDBRANCH   1  17
TORSDOF 8
ENDMDL
MODEL 8
REMARK VINA RESULT:    -6.575      3.404      4.545
REMARK INTER + INTRA:          -9.805
REMARK INTER:                  -9.175
REMARK INTRA:                  -0.630
REMARK UNBOUND:                -0.347
REMARK  Name = 
REMARK  8 active torsions:
REMARK  status: ('A' for Active; 'I' for Inactive)
REMARK    1  A    between atoms: C_2  and  O_3
REMARK    2  A    between atoms: C_2  and  C_4
REMARK    3  A    between atoms: C_4  and  C_5
REMARK    4  A    between atoms: C_6  and  C_7
REMARK    5  A    between atoms: C_11  and  O_12
REMARK    6  A    between atoms: O_12  and  C_13
REMARK    7  A    between atoms: C_13  and  C_14
REMARK    8  A    between atoms: C_18  and  C_19
REMARK                            x       y       z     vdW  Elec       q    Type
REMARK                         _______ _______ _______ _____ _____    ______ ____
ROOT
ATOM      1  C   UNL     1      49.237   8.182  13.527  0.00  0.00    +0.000 C 
ATOM      2  C   UNL     1      50.291   8.849  12.651  0.00  0.00    +0.000 C 
ATOM      3  C   UNL     1      49.582   7.636  12.153  0.00  0.00    +0.000 C 
ENDROOT
BRANCH   1   4
ATOM      4  C   UNL     1      49.706   7.450  14.776  0.00  0.00    +0.000 A 
ATOM      5  C   UNL     1      51.031   7.529  15.235  0.00  0.00    +0.000 A 
ATOM      6  C   UNL     1      51.444   6.860  16.386  0.00  0.00    +0.000 A 
ATOM      7  C   UNL     1      50.546   6.058  17.083  0.00  0.00    +0.000 A 
ATOM      8  C   UNL     1      49.226   5.902  16.644  0.00  0.00    +0.000 A 
ATOM      9  C   UNL     1      48.821   6.633  15.511  0.00  0.00    +0.000 A 
BRANCH   8  10
ATOM     10  C   UNL     1      48.239   4.950  17.314  0.00  0.00    +0.000 C 
ATOM     11  C   UNL     1      48.919   3.884  18.186  0.00  0.00    +0.000 C 
ATOM     12  C   UNL     1      49.475   2.727  17.360  0.00  0.00    +0.000 C 
ATOM     13  C   UNL     1      48.449   2.164  16.376  0.00  0.00    +0.000 C 
ATOM     14  N   UNL     1      47.820   3.190  15.549  0.00  0.00    +0.000 NA
ATOM     15  C   UNL     1      47.237   4.272  16.349  0.00  0.00    +0.000 C 
ATOM     16  H   UNL     1      47.101   2.772  14.959  0.00  0.00    +0.000 HD
ENDBRANCH   8  10
ENDBRANCH   1   4
BRANCH   1  17
ATOM     17  O   UNL     1      48.114   9.080  13.702  0.00  0.00    +0.000 OA
BRANCH  17  22
ATOM     18  C   UNL     1      45.149   7.732  11.969  0.00  0.00    +0.000 A 
ATOM     19  C   UNL     1      44.731   8.929  11.401  0.00  0.00    +0.000 A 
ATOM     20  N   UNL     1      45.367  10.106  11.580  0.00  0.00    +0.000 NA
ATOM     21  C   UNL     1      46.474  10.070  12.360  0.00  0.00    +0.000 A 
ATOM     22  C   UNL     1      46.992   8.918  12.943  0.00  0.00    +0.000 A 
ATOM     23  C   UNL     1      46.311   7.723  12.746  0.00  0.00    +0.000 A 
BRANCH  18  25
ATOM     24  C   UNL     1      43.725   5.554  11.630  0.00  0.00    +0.000 C 
ATOM     25  C   UNL     1      44.400   6.535  11.782  0.00  0.00    +0.000 C 
BRANCH  24  26
ATOM     26  C   UNL     1      42.859   4.377  11.454  0.00  0.00    +0.000 C 
BRANCH  26  28
ATOM     27  O   UNL     1      44.769   3.003  10.955  0.00  0.00    +0.000 OA
ATOM     28  C   UNL     1      43.603   3.066  11.318  0.00  0.00    +0.000 C 
BRANCH  28  29
ATOM     29  O   UNL     1      42.924   1.962  11.703  0.00  0.00    +0.000 OA
ATOM     30  H   UNL     1      42.306   1.608  11.036  0.00  0.00    +0.000 HD
ENDBRANCH  28  29
ENDBRANCH  26  28
ENDBRANCH  24  26
ENDBRANCH  18  25
ENDBRANCH  17  22
ENDBRANCH   1  17
TORSDOF 8
ENDMDL
MODEL 9
REMARK VINA RESULT:    -6.536      4.104      7.186
REMARK INTER + INTRA:          -9.749
REMARK INTER:                  -8.641
REMARK INTRA:                  -1.107
REMARK UNBOUND:                -0.347
REMARK  Name = 
REMARK  8 active torsions:
REMARK  status: ('A' for Active; 'I' for Inactive)
REMARK    1  A    between atoms: C_2  and  O_3
REMARK    2  A    between atoms: C_2  and  C_4
REMARK    3  A    between atoms: C_4  and  C_5
REMARK    4  A    between atoms: C_6  and  C_7
REMARK    5  A    between atoms: C_11  and  O_12
REMARK    6  A    between atoms: O_12  and  C_13
REMARK    7  A    between atoms: C_13  and  C_14
REMARK    8  A    between atoms: C_18  and  C_19
REMARK                            x       y       z     vdW  Elec       q    Type
REMARK                         _______ _______ _______ _____ _____    ______ ____
ROOT
ATOM      1  C   UNL     1      48.560   7.833  12.415  0.00  0.00    +0.000 C 
ATOM      2  C   UNL     1      50.062   7.646  12.236  0.00  0.00    +0.000 C 
ATOM      3  C   UNL     1      49.169   7.604  11.043  0.00  0.00    +0.000 C 
ENDROOT
BRANCH   1   4
ATOM      4  C   UNL     1      47.778   6.718  13.095  0.00  0.00    +0.000 A 
ATOM      5  C   UNL     1      48.105   6.253  14.379  0.00  0.00    +0.000 A 
ATOM      6  C   UNL     1      47.373   5.237  14.993  0.00  0.00    +0.000 A 
ATOM      7  C   UNL     1      46.321   4.631  14.314  0.00  0.00    +0.000 A 
ATOM      8  C   UNL     1      45.983   5.020  13.013  0.00  0.00    +0.000 A 
ATOM      9  C   UNL     1      46.701   6.086  12.438  0.00  0.00    +0.000 A 
BRANCH   8  10
ATOM     10  C   UNL     1      44.907   4.312  12.192  0.00  0.00    +0.000 C 
ATOM     11  C   UNL     1      44.543   5.056  10.898  0.00  0.00    +0.000 C 
ATOM     12  C   UNL     1      43.588   6.221  11.148  0.00  0.00    +0.000 C 
ATOM     13  C   UNL     1      42.380   5.815  11.995  0.00  0.00    +0.000 C 
ATOM     14  N   UNL     1      42.745   5.120  13.224  0.00  0.00    +0.000 NA
ATOM     15  C   UNL     1      43.618   3.967  12.976  0.00  0.00    +0.000 C 
ATOM     16  H   UNL     1      41.907   4.815  13.717  0.00  0.00    +0.000 HD
ENDBRANCH   8  10
ENDBRANCH   1   4
BRANCH   1  17
ATOM     17  O   UNL     1      48.292   9.176  12.887  0.00  0.00    +0.000 OA
BRANCH  17  22
ATOM     18  C   UNL     1      45.498  11.061  11.387  0.00  0.00    +0.000 A 
ATOM     19  C   UNL     1      46.266  11.845  10.535  0.00  0.00    +0.000 A 
ATOM     20  N   UNL     1      47.612  11.775  10.462  0.00  0.00    +0.000 NA
ATOM     21  C   UNL     1      48.204  10.870  11.278  0.00  0.00    +0.000 A 
ATOM     22  C   UNL     1      47.522  10.016  12.138  0.00  0.00    +0.000 A 
ATOM     23  C   UNL     1      46.137  10.118  12.195  0.00  0.00    +0.000 A 
BRANCH  18  25
ATOM     24  C   UNL     1      42.891  11.359  11.456  0.00  0.00    +0.000 C 
ATOM     25  C   UNL     1      44.085  11.224  11.452  0.00  0.00    +0.000 C 
BRANCH  24  26
ATOM     26  C   UNL     1      41.430  11.526  11.413  0.00  0.00    +0.000 C 
BRANCH  26  28
ATOM     27  O   UNL     1      39.600  10.330  10.412  0.00  0.00    +0.000 OA
ATOM     28  C   UNL     1      40.667  10.284  11.006  0.00  0.00    +0.000 C 
BRANCH  28  29
ATOM     29  O   UNL     1      41.278   9.107  11.268  0.00  0.00    +0.000 OA
ATOM     30  H   UNL     1      41.487   8.570  10.481  0.00  0.00    +0.000 HD
ENDBRANCH  28  29
ENDBRANCH  26  28
ENDBRANCH  24  26
ENDBRANCH  18  25
ENDBRANCH  17  22
ENDBRANCH   1  17
TORSDOF 8
ENDMDL
