MODEL 1
REMARK VINA RESULT:    -7.308      0.000      0.000
REMARK INTER + INTRA:         -11.499
REMARK INTER:                 -10.512
REMARK INTRA:                  -0.987
REMARK UNBOUND:                -0.987
REMARK  Name = 
REMARK  9 active torsions:
REMARK  status: ('A' for Active; 'I' for Inactive)
REMARK    1  A    between atoms: C_1  and  N_2
REMARK    2  A    between atoms: C_4  and  C_5
REMARK    3  A    between atoms: N_7  and  C_8
REMARK    4  A    between atoms: C_8  and  C_9
REMARK    5  A    between atoms: C_12  and  O_13
REMARK    6  A    between atoms: O_13  and  C_14
REMARK    7  A    between atoms: C_14  and  C_15
REMARK    8  A    between atoms: C_15  and  C_16
REMARK    9  A    between atoms: C_16  and  O_17
REMARK                            x       y       z     vdW  Elec       q    Type
REMARK                         _______ _______ _______ _____ _____    ______ ____
ROOT
ATOM      1  C   UNL     1      46.559   4.681  14.011  0.00  0.00    +0.000 C 
ATOM      2  O   UNL     1      46.653   3.461  13.947  0.00  0.00    +0.000 OA
ATOM      3  N   UNL     1      45.430   5.360  13.609  0.00  0.00    +0.000 N 
ATOM      4  H   UNL     1      45.435   6.368  13.599  0.00  0.00    +0.000 HD
ENDROOT
BRANCH   1   8
ATOM      5  C   UNL     1      50.021   8.260  14.384  0.00  0.00    +0.000 C 
ATOM      6  N   UNL     1      49.170   7.138  14.709  0.00  0.00    +0.000 N 
ATOM      7  C   UNL     1      48.303   6.514  13.850  0.00  0.00    +0.000 A 
ATOM      8  C   UNL     1      47.630   5.516  14.549  0.00  0.00    +0.000 A 
ATOM      9  C   UNL     1      48.154   5.532  15.893  0.00  0.00    +0.000 A 
ATOM     10  C   UNL     1      48.002   4.845  17.095  0.00  0.00    +0.000 A 
ATOM     11 CL   UNL     1      46.985   3.495  17.219  0.00  0.00    +0.000 Cl
ATOM     12  N   UNL     1      48.706   5.159  18.196  0.00  0.00    +0.000 NA
ATOM     13  C   UNL     1      49.568   6.177  18.094  0.00  0.00    +0.000 A 
ATOM     14  N   UNL     1      49.829   6.926  17.011  0.00  0.00    +0.000 NA
ATOM     15  C   UNL     1      49.099   6.554  15.945  0.00  0.00    +0.000 A 
ENDBRANCH   1   8
BRANCH   3  16
ATOM     16  C   UNL     1      44.319   4.665  12.999  0.00  0.00    +0.000 C 
BRANCH  16  17
ATOM     17  C   UNL     1      44.566   4.358  11.543  0.00  0.00    +0.000 A 
ATOM     18  C   UNL     1      45.217   5.288  10.719  0.00  0.00    +0.000 A 
ATOM     19  C   UNL     1      45.473   5.003   9.372  0.00  0.00    +0.000 A 
ATOM     20  C   UNL     1      45.072   3.785   8.830  0.00  0.00    +0.000 A 
ATOM     21  C   UNL     1      44.396   2.866   9.634  0.00  0.00    +0.000 A 
ATOM     22  C   UNL     1      44.149   3.145  10.981  0.00  0.00    +0.000 A 
BRANCH  20  23
ATOM     23  O   UNL     1      45.230   3.411   7.524  0.00  0.00    +0.000 OA
BRANCH  23  24
ATOM     24  C   UNL     1      46.532   3.601   6.967  0.00  0.00    +0.000 C 
BRANCH  24  25
ATOM     25  C   UNL     1      46.936   2.319   6.244  0.00  0.00    +0.000 C 
BRANCH  25  26
ATOM     26  C   UNL     1      47.544   1.288   7.186  0.00  0.00    +0.000 C 
BRANCH  26  27
ATOM     27  O   UNL     1      46.515   0.684   7.960  0.00  0.00    +0.000 OA
ATOM     28  H   UNL     1      45.745   0.570   7.376  0.00  0.00    +0.000 HD
ENDBRANCH  26  27
ENDBRANCH  25  26
ENDBRANCH  24  25
ENDBRANCH  23  24
ENDBRANCH  20  23
ENDBRANCH  16  17
ENDBRANCH   3  16
TORSDOF 8
ENDMDL
MODEL 2
REMARK VINA RESULT:    -6.661      1.816      2.284
REMARK INTER + INTRA:         -10.568
REMARK INTER:                  -9.692
REMARK INTRA:                  -0.877
REMARK UNBOUND:                -0.987
REMARK  Name = 
REMARK  9 active torsions:
REMARK  status: ('A' for Active; 'I' for Inactive)
REMARK    1  A    between atoms: C_1  and  N_2
REMARK    2  A    between atoms: C_4  and  C_5
REMARK    3  A    between atoms: N_7  and  C_8
REMARK    4  A    between atoms: C_8  and  C_9
REMARK    5  A    between atoms: C_12  and  O_13
REMARK    6  A    between atoms: O_13  and  C_14
REMARK    7  A    between atoms: C_14  and  C_15
REMARK    8  A    between atoms: C_15  and  C_16
REMARK    9  A    between atoms: C_16  and  O_17
REMARK                            x       y       z     vdW  Elec       q    Type
REMARK                         _______ _______ _______ _____ _____    ______ ____
ROOT
ATOM      1  C   UNL     1      47.288   6.852  13.589  0.00  0.00    +0.000 C 
ATOM      2  O   UNL     1      47.870   7.456  12.694  0.00  0.00    +0.000 OA
ATOM      3  N   UNL     1      45.958   6.503  13.505  0.00  0.00    +0.000 N 
ATOM      4  H   UNL     1      45.504   6.086  14.303  0.00  0.00    +0.000 HD
ENDROOT
BRANCH   1   8
ATOM      5  C   UNL     1      49.800   7.018  17.901  0.00  0.00    +0.000 C 
ATOM      6  N   UNL     1      49.084   6.514  16.751  0.00  0.00    +0.000 N 
ATOM      7  C   UNL     1      48.664   7.257  15.679  0.00  0.00    +0.000 A 
ATOM      8  C   UNL     1      47.970   6.423  14.808  0.00  0.00    +0.000 A 
ATOM      9  C   UNL     1      48.011   5.102  15.385  0.00  0.00    +0.000 A 
ATOM     10  C   UNL     1      47.584   3.808  15.096  0.00  0.00    +0.000 A 
ATOM     11 CL   UNL     1      46.818   3.437  13.630  0.00  0.00    +0.000 Cl
ATOM     12  N   UNL     1      47.824   2.771  15.917  0.00  0.00    +0.000 NA
ATOM     13  C   UNL     1      48.493   3.035  17.045  0.00  0.00    +0.000 A 
ATOM     14  N   UNL     1      48.971   4.219  17.458  0.00  0.00    +0.000 NA
ATOM     15  C   UNL     1      48.705   5.209  16.588  0.00  0.00    +0.000 A 
ENDBRANCH   1   8
BRANCH   3  16
ATOM     16  C   UNL     1      45.148   6.919  12.383  0.00  0.00    +0.000 C 
BRANCH  16  17
ATOM     17  C   UNL     1      45.060   5.857  11.315  0.00  0.00    +0.000 A 
ATOM     18  C   UNL     1      45.855   5.940  10.162  0.00  0.00    +0.000 A 
ATOM     19  C   UNL     1      45.801   4.948   9.176  0.00  0.00    +0.000 A 
ATOM     20  C   UNL     1      44.941   3.862   9.327  0.00  0.00    +0.000 A 
ATOM     21  C   UNL     1      44.122   3.788  10.456  0.00  0.00    +0.000 A 
ATOM     22  C   UNL     1      44.184   4.773  11.446  0.00  0.00    +0.000 A 
BRANCH  20  23
ATOM     23  O   UNL     1      44.770   2.857   8.416  0.00  0.00    +0.000 OA
BRANCH  23  24
ATOM     24  C   UNL     1      45.882   1.978   8.233  0.00  0.00    +0.000 C 
BRANCH  24  25
ATOM     25  C   UNL     1      46.515   2.283   6.877  0.00  0.00    +0.000 C 
BRANCH  25  26
ATOM     26  C   UNL     1      48.014   2.019   6.864  0.00  0.00    +0.000 C 
BRANCH  26  27
ATOM     27  O   UNL     1      48.448   1.803   5.527  0.00  0.00    +0.000 OA
ATOM     28  H   UNL     1      48.746   0.879   5.466  0.00  0.00    +0.000 HD
ENDBRANCH  26  27
ENDBRANCH  25  26
ENDBRANCH  24  25
ENDBRANCH  23  24
ENDBRANCH  20  23
ENDBRANCH  16  17
ENDBRANCH   3  16
TORSDOF 8
ENDMDL
MODEL 3
REMARK VINA RESULT:    -6.201      3.189      4.537
REMARK INTER + INTRA:          -9.906
REMARK INTER:                  -8.665
REMARK INTRA:                  -1.241
REMARK UNBOUND:                -0.987
REMARK  Name = 
REMARK  9 active torsions:
REMARK  status: ('A' for Active; 'I' for Inactive)
REMARK    1  A    between atoms: C_1  and  N_2
REMARK    2  A    between atoms: C_4  and  C_5
REMARK    3  A    between atoms: N_7  and  C_8
REMARK    4  A    between atoms: C_8  and  C_9
REMARK    5  A    between atoms: C_12  and  O_13
REMARK    6  A    between atoms: O_13  and  C_14
REMARK    7  A    between atoms: C_14  and  C_15
REMARK    8  A    between atoms: C_15  and  C_16
REMARK    9  A    between atoms: C_16  and  O_17
REMARK                            x       y       z     vdW  Elec       q    Type
REMARK                         _______ _______ _______ _____ _____    ______ ____
ROOT
ATOM      1  C   UNL     1      48.825   7.346  15.362  0.00  0.00    +0.000 C 
ATOM      2  O   UNL     1      48.375   8.446  15.658  0.00  0.00    +0.000 OA
ATOM      3  N   UNL     1      49.051   6.964  14.058  0.00  0.00    +0.000 N 
ATOM      4  H   UNL     1      49.340   6.017  13.862  0.00  0.00    +0.000 HD
ENDROOT
BRANCH   1   8
ATOM      5  C   UNL     1      51.090   5.192  19.256  0.00  0.00    +0.000 C 
ATOM      6  N   UNL     1      50.206   5.409  18.134  0.00  0.00    +0.000 N 
ATOM      7  C   UNL     1      50.228   6.490  17.292  0.00  0.00    +0.000 A 
ATOM      8  C   UNL     1      49.191   6.357  16.374  0.00  0.00    +0.000 A 
ATOM      9  C   UNL     1      48.538   5.106  16.672  0.00  0.00    +0.000 A 
ATOM     10  C   UNL     1      47.493   4.320  16.193  0.00  0.00    +0.000 A 
ATOM     11 CL   UNL     1      46.632   4.746  14.797  0.00  0.00    +0.000 Cl
ATOM     12  N   UNL     1      47.160   3.146  16.758  0.00  0.00    +0.000 NA
ATOM     13  C   UNL     1      47.878   2.759  17.818  0.00  0.00    +0.000 A 
ATOM     14  N   UNL     1      48.911   3.399  18.388  0.00  0.00    +0.000 NA
ATOM     15  C   UNL     1      49.197   4.559  17.770  0.00  0.00    +0.000 A 
ENDBRANCH   1   8
BRANCH   3  16
ATOM     16  C   UNL     1      48.677   7.818  12.955  0.00  0.00    +0.000 C 
BRANCH  16  17
ATOM     17  C   UNL     1      47.280   7.535  12.459  0.00  0.00    +0.000 A 
ATOM     18  C   UNL     1      47.055   6.543  11.494  0.00  0.00    +0.000 A 
ATOM     19  C   UNL     1      45.760   6.255  11.044  0.00  0.00    +0.000 A 
ATOM     20  C   UNL     1      44.674   6.964  11.551  0.00  0.00    +0.000 A 
ATOM     21  C   UNL     1      44.892   7.975  12.489  0.00  0.00    +0.000 A 
ATOM     22  C   UNL     1      46.183   8.256  12.945  0.00  0.00    +0.000 A 
BRANCH  20  23
ATOM     23  O   UNL     1      43.373   6.802  11.161  0.00  0.00    +0.000 OA
BRANCH  23  24
ATOM     24  C   UNL     1      42.892   5.457  11.117  0.00  0.00    +0.000 C 
BRANCH  24  25
ATOM     25  C   UNL     1      42.992   4.867  12.522  0.00  0.00    +0.000 C 
BRANCH  25  26
ATOM     26  C   UNL     1      43.570   3.458  12.519  0.00  0.00    +0.000 C 
BRANCH  26  27
ATOM     27  O   UNL     1      42.828   2.641  11.620  0.00  0.00    +0.000 OA
ATOM     28  H   UNL     1      41.901   2.658  11.915  0.00  0.00    +0.000 HD
ENDBRANCH  26  27
ENDBRANCH  25  26
ENDBRANCH  24  25
ENDBRANCH  23  24
ENDBRANCH  20  23
ENDBRANCH  16  17
ENDBRANCH   3  16
TORSDOF 8
ENDMDL
MODEL 4
REMARK VINA RESULT:    -6.078      4.217      8.339
REMARK INTER + INTRA:          -9.729
REMARK INTER:                  -8.839
REMARK INTRA:                  -0.890
REMARK UNBOUND:                -0.987
REMARK  Name = 
REMARK  9 active torsions:
REMARK  status: ('A' for Active; 'I' for Inactive)
REMARK    1  A    between atoms: C_1  and  N_2
REMARK    2  A    between atoms: C_4  and  C_5
REMARK    3  A    between atoms: N_7  and  C_8
REMARK    4  A    between atoms: C_8  and  C_9
REMARK    5  A    between atoms: C_12  and  O_13
REMARK    6  A    between atoms: O_13  and  C_14
REMARK    7  A    between atoms: C_14  and  C_15
REMARK    8  A    between atoms: C_15  and  C_16
REMARK    9  A    between atoms: C_16  and  O_17
REMARK                            x       y       z     vdW  Elec       q    Type
REMARK                         _______ _______ _______ _____ _____    ______ ____
ROOT
ATOM      1  C   UNL     1      47.729   5.560  14.859  0.00  0.00    +0.000 C 
ATOM      2  O   UNL     1      48.782   6.165  14.692  0.00  0.00    +0.000 OA
ATOM      3  N   UNL     1      47.337   5.079  16.089  0.00  0.00    +0.000 N 
ATOM      4  H   UNL     1      46.506   4.512  16.157  0.00  0.00    +0.000 HD
ENDROOT
BRANCH   1   8
ATOM      5  C   UNL     1      44.695   3.214  11.662  0.00  0.00    +0.000 C 
ATOM      6  N   UNL     1      45.414   4.262  12.350  0.00  0.00    +0.000 N 
ATOM      7  C   UNL     1      46.367   4.078  13.318  0.00  0.00    +0.000 A 
ATOM      8  C   UNL     1      46.785   5.327  13.769  0.00  0.00    +0.000 A 
ATOM      9  C   UNL     1      46.058   6.305  12.998  0.00  0.00    +0.000 A 
ATOM     10  C   UNL     1      45.964   7.689  12.865  0.00  0.00    +0.000 A 
ATOM     11 CL   UNL     1      46.977   8.732  13.737  0.00  0.00    +0.000 Cl
ATOM     12  N   UNL     1      45.130   8.271  11.987  0.00  0.00    +0.000 NA
ATOM     13  C   UNL     1      44.375   7.459  11.238  0.00  0.00    +0.000 A 
ATOM     14  N   UNL     1      44.357   6.117  11.246  0.00  0.00    +0.000 NA
ATOM     15  C   UNL     1      45.220   5.600  12.139  0.00  0.00    +0.000 A 
ENDBRANCH   1   8
BRANCH   3  16
ATOM     16  C   UNL     1      48.203   5.184  17.241  0.00  0.00    +0.000 C 
BRANCH  16  17
ATOM     17  C   UNL     1      49.229   4.079  17.290  0.00  0.00    +0.000 A 
ATOM     18  C   UNL     1      50.539   4.343  17.716  0.00  0.00    +0.000 A 
ATOM     19  C   UNL     1      51.493   3.321  17.789  0.00  0.00    +0.000 A 
ATOM     20  C   UNL     1      51.149   2.020  17.426  0.00  0.00    +0.000 A 
ATOM     21  C   UNL     1      49.856   1.755  16.970  0.00  0.00    +0.000 A 
ATOM     22  C   UNL     1      48.900   2.773  16.908  0.00  0.00    +0.000 A 
BRANCH  20  23
ATOM     23  O   UNL     1      52.001   0.952  17.416  0.00  0.00    +0.000 OA
BRANCH  23  24
ATOM     24  C   UNL     1      53.396   1.258  17.468  0.00  0.00    +0.000 C 
BRANCH  24  25
ATOM     25  C   UNL     1      54.179  -0.038  17.272  0.00  0.00    +0.000 C 
BRANCH  25  26
ATOM     26  C   UNL     1      54.256  -0.868  18.546  0.00  0.00    +0.000 C 
BRANCH  26  27
ATOM     27  O   UNL     1      52.973  -1.407  18.841  0.00  0.00    +0.000 OA
ATOM     28  H   UNL     1      53.008  -1.751  19.750  0.00  0.00    +0.000 HD
ENDBRANCH  26  27
ENDBRANCH  25  26
ENDBRANCH  24  25
ENDBRANCH  23  24
ENDBRANCH  20  23
ENDBRANCH  16  17
ENDBRANCH   3  16
TORSDOF 8
ENDMDL
MODEL 5
REMARK VINA RESULT:    -6.072      2.582      3.566
REMARK INTER + INTRA:          -9.721
REMARK INTER:                  -9.267
REMARK INTRA:                  -0.454
REMARK UNBOUND:                -0.987
REMARK  Name = 
REMARK  9 active torsions:
REMARK  status: ('A' for Active; 'I' for Inactive)
REMARK    1  A    between atoms: C_1  and  N_2
REMARK    2  A    between atoms: C_4  and  C_5
REMARK    3  A    between atoms: N_7  and  C_8
REMARK    4  A    between atoms: C_8  and  C_9
REMARK    5  A    between atoms: C_12  and  O_13
REMARK    6  A    between atoms: O_13  and  C_14
REMARK    7  A    between atoms: C_14  and  C_15
REMARK    8  A    between atoms: C_15  and  C_16
REMARK    9  A    between atoms: C_16  and  O_17
REMARK                            x       y       z     vdW  Elec       q    Type
REMARK                         _______ _______ _______ _____ _____    ______ ____
ROOT
ATOM      1  C   UNL     1      47.088   7.593  13.425  0.00  0.00    +0.000 C 
ATOM      2  O   UNL     1      46.652   8.584  12.850  0.00  0.00    +0.000 OA
ATOM      3  N   UNL     1      46.386   6.411  13.502  0.00  0.00    +0.000 N 
ATOM      4  H   UNL     1      46.749   5.654  14.061  0.00  0.00    +0.000 HD
ENDROOT
BRANCH   1   8
ATOM      5  C   UNL     1      50.809   6.495  16.568  0.00  0.00    +0.000 C 
ATOM      6  N   UNL     1      50.074   7.062  15.460  0.00  0.00    +0.000 N 
ATOM      7  C   UNL     1      48.726   6.935  15.244  0.00  0.00    +0.000 A 
ATOM      8  C   UNL     1      48.408   7.576  14.050  0.00  0.00    +0.000 A 
ATOM      9  C   UNL     1      49.636   8.143  13.550  0.00  0.00    +0.000 A 
ATOM     10  C   UNL     1      50.086   8.912  12.479  0.00  0.00    +0.000 A 
ATOM     11 CL   UNL     1      49.013   9.536  11.326  0.00  0.00    +0.000 Cl
ATOM     12  N   UNL     1      51.375   9.268  12.342  0.00  0.00    +0.000 NA
ATOM     13  C   UNL     1      52.225   8.844  13.284  0.00  0.00    +0.000 A 
ATOM     14  N   UNL     1      51.944   8.108  14.371  0.00  0.00    +0.000 NA
ATOM     15  C   UNL     1      50.639   7.794  14.452  0.00  0.00    +0.000 A 
ENDBRANCH   1   8
BRANCH   3  16
ATOM     16  C   UNL     1      45.042   6.306  12.982  0.00  0.00    +0.000 C 
BRANCH  16  17
ATOM     17  C   UNL     1      44.954   5.365  11.806  0.00  0.00    +0.000 A 
ATOM     18  C   UNL     1      45.480   5.734  10.559  0.00  0.00    +0.000 A 
ATOM     19  C   UNL     1      45.426   4.859   9.467  0.00  0.00    +0.000 A 
ATOM     20  C   UNL     1      44.836   3.605   9.608  0.00  0.00    +0.000 A 
ATOM     21  C   UNL     1      44.282   3.242  10.837  0.00  0.00    +0.000 A 
ATOM     22  C   UNL     1      44.344   4.111  11.930  0.00  0.00    +0.000 A 
BRANCH  20  23
ATOM     23  O   UNL     1      44.688   2.684   8.608  0.00  0.00    +0.000 OA
BRANCH  23  24
ATOM     24  C   UNL     1      45.761   1.755   8.444  0.00  0.00    +0.000 C 
BRANCH  24  25
ATOM     25  C   UNL     1      46.685   2.278   7.348  0.00  0.00    +0.000 C 
BRANCH  25  26
ATOM     26  C   UNL     1      47.572   1.185   6.766  0.00  0.00    +0.000 C 
BRANCH  26  27
ATOM     27  O   UNL     1      48.433   1.745   5.781  0.00  0.00    +0.000 OA
ATOM     28  H   UNL     1      49.267   1.975   6.226  0.00  0.00    +0.000 HD
ENDBRANCH  26  27
ENDBRANCH  25  26
ENDBRANCH  24  25
ENDBRANCH  23  24
ENDBRANCH  20  23
ENDBRANCH  16  17
ENDBRANCH   3  16
TORSDOF 8
ENDMDL
MODEL 6
REMARK VINA RESULT:    -6.047      3.942      8.233
REMARK INTER + INTRA:          -9.685
REMARK INTER:                  -8.828
REMARK INTRA:                  -0.857
REMARK UNBOUND:                -0.987
REMARK  Name = 
REMARK  9 active torsions:
REMARK  status: ('A' for Active; 'I' for Inactive)
REMARK    1  A    between atoms: C_1  and  N_2
REMARK    2  A    between atoms: C_4  and  C_5
REMARK    3  A    between atoms: N_7  and  C_8
REMARK    4  A    between atoms: C_8  and  C_9
REMARK    5  A    between atoms: C_12  and  O_13
REMARK    6  A    between atoms: O_13  and  C_14
REMARK    7  A    between atoms: C_14  and  C_15
REMARK    8  A    between atoms: C_15  and  C_16
REMARK    9  A    between atoms: C_16  and  O_17
REMARK                            x       y       z     vdW  Elec       q    Type
REMARK                         _______ _______ _______ _____ _____    ______ ____
ROOT
ATOM      1  C   UNL     1      46.919   4.265  14.534  0.00  0.00    +0.000 C 
ATOM      2  O   UNL     1      47.136   3.168  14.031  0.00  0.00    +0.000 OA
ATOM      3  N   UNL     1      47.047   4.499  15.885  0.00  0.00    +0.000 N 
ATOM      4  H   UNL     1      46.772   5.394  16.261  0.00  0.00    +0.000 HD
ENDROOT
BRANCH   1   8
ATOM      5  C   UNL     1      47.141   8.688  12.228  0.00  0.00    +0.000 C 
ATOM      6  N   UNL     1      46.657   7.407  12.690  0.00  0.00    +0.000 N 
ATOM      7  C   UNL     1      47.293   6.586  13.585  0.00  0.00    +0.000 A 
ATOM      8  C   UNL     1      46.538   5.426  13.733  0.00  0.00    +0.000 A 
ATOM      9  C   UNL     1      45.372   5.587  12.901  0.00  0.00    +0.000 A 
ATOM     10  C   UNL     1      44.208   4.897  12.566  0.00  0.00    +0.000 A 
ATOM     11 CL   UNL     1      43.811   3.423  13.303  0.00  0.00    +0.000 Cl
ATOM     12  N   UNL     1      43.300   5.394  11.709  0.00  0.00    +0.000 NA
ATOM     13  C   UNL     1      43.564   6.591  11.173  0.00  0.00    +0.000 A 
ATOM     14  N   UNL     1      44.629   7.374  11.399  0.00  0.00    +0.000 NA
ATOM     15  C   UNL     1      45.492   6.824  12.272  0.00  0.00    +0.000 A 
ENDBRANCH   1   8
BRANCH   3  16
ATOM     16  C   UNL     1      47.357   3.426  16.802  0.00  0.00    +0.000 C 
BRANCH  16  17
ATOM     17  C   UNL     1      48.838   3.301  17.058  0.00  0.00    +0.000 A 
ATOM     18  C   UNL     1      49.493   2.076  16.865  0.00  0.00    +0.000 A 
ATOM     19  C   UNL     1      50.872   1.955  17.076  0.00  0.00    +0.000 A 
ATOM     20  C   UNL     1      51.613   3.059  17.494  0.00  0.00    +0.000 A 
ATOM     21  C   UNL     1      50.963   4.274  17.719  0.00  0.00    +0.000 A 
ATOM     22  C   UNL     1      49.588   4.399  17.499  0.00  0.00    +0.000 A 
BRANCH  20  23
ATOM     23  O   UNL     1      52.951   3.053  17.771  0.00  0.00    +0.000 OA
BRANCH  23  24
ATOM     24  C   UNL     1      53.370   2.198  18.837  0.00  0.00    +0.000 C 
BRANCH  24  25
ATOM     25  C   UNL     1      54.530   1.342  18.337  0.00  0.00    +0.000 C 
BRANCH  25  26
ATOM     26  C   UNL     1      54.058   0.053  17.677  0.00  0.00    +0.000 C 
BRANCH  26  27
ATOM     27  O   UNL     1      53.009  -0.520  18.449  0.00  0.00    +0.000 OA
ATOM     28  H   UNL     1      52.171  -0.283  18.016  0.00  0.00    +0.000 HD
ENDBRANCH  26  27
ENDBRANCH  25  26
ENDBRANCH  24  25
ENDBRANCH  23  24
ENDBRANCH  20  23
ENDBRANCH  16  17
ENDBRANCH   3  16
TORSDOF 8
ENDMDL
MODEL 7
REMARK VINA RESULT:    -5.929      2.320      3.951
REMARK INTER + INTRA:          -9.516
REMARK INTER:                  -8.656
REMARK INTRA:                  -0.859
REMARK UNBOUND:                -0.987
REMARK  Name = 
REMARK  9 active torsions:
REMARK  status: ('A' for Active; 'I' for Inactive)
REMARK    1  A    between atoms: C_1  and  N_2
REMARK    2  A    between atoms: C_4  and  C_5
REMARK    3  A    between atoms: N_7  and  C_8
REMARK    4  A    between atoms: C_8  and  C_9
REMARK    5  A    between atoms: C_12  and  O_13
REMARK    6  A    between atoms: O_13  and  C_14
REMARK    7  A    between atoms: C_14  and  C_15
REMARK    8  A    between atoms: C_15  and  C_16
REMARK    9  A    between atoms: C_16  and  O_17
REMARK                            x       y       z     vdW  Elec       q    Type
REMARK                         _______ _______ _______ _____ _____    ______ ____
ROOT
ATOM      1  C   UNL     1      49.116   6.607  16.300  0.00  0.00    +0.000 C 
ATOM      2  O   UNL     1      50.177   6.036  16.073  0.00  0.00    +0.000 OA
ATOM      3  N   UNL     1      48.227   6.943  15.303  0.00  0.00    +0.000 N 
ATOM      4  H   UNL     1      47.411   7.489  15.530  0.00  0.00    +0.000 HD
ENDROOT
BRANCH   1   8
ATOM      5  C   UNL     1      47.266   9.182  20.157  0.00  0.00    +0.000 C 
ATOM      6  N   UNL     1      47.844   8.113  19.374  0.00  0.00    +0.000 N 
ATOM      7  C   UNL     1      48.234   8.200  18.063  0.00  0.00    +0.000 A 
ATOM      8  C   UNL     1      48.692   6.951  17.655  0.00  0.00    +0.000 A 
ATOM      9  C   UNL     1      48.596   6.084  18.803  0.00  0.00    +0.000 A 
ATOM     10  C   UNL     1      48.878   4.767  19.160  0.00  0.00    +0.000 A 
ATOM     11 CL   UNL     1      49.636   3.702  18.081  0.00  0.00    +0.000 Cl
ATOM     12  N   UNL     1      48.644   4.291  20.395  0.00  0.00    +0.000 NA
ATOM     13  C   UNL     1      48.113   5.142  21.281  0.00  0.00    +0.000 A 
ATOM     14  N   UNL     1      47.794   6.431  21.091  0.00  0.00    +0.000 NA
ATOM     15  C   UNL     1      48.061   6.845  19.840  0.00  0.00    +0.000 A 
ENDBRANCH   1   8
BRANCH   3  16
ATOM     16  C   UNL     1      48.547   6.718  13.911  0.00  0.00    +0.000 C 
BRANCH  16  17
ATOM     17  C   UNL     1      47.373   6.179  13.133  0.00  0.00    +0.000 A 
ATOM     18  C   UNL     1      46.997   6.763  11.915  0.00  0.00    +0.000 A 
ATOM     19  C   UNL     1      45.924   6.255  11.172  0.00  0.00    +0.000 A 
ATOM     20  C   UNL     1      45.207   5.159  11.646  0.00  0.00    +0.000 A 
ATOM     21  C   UNL     1      45.554   4.591  12.873  0.00  0.00    +0.000 A 
ATOM     22  C   UNL     1      46.631   5.091  13.610  0.00  0.00    +0.000 A 
BRANCH  20  23
ATOM     23  O   UNL     1      44.119   4.602  11.032  0.00  0.00    +0.000 OA
BRANCH  23  24
ATOM     24  C   UNL     1      44.151   3.184  10.859  0.00  0.00    +0.000 C 
BRANCH  24  25
ATOM     25  C   UNL     1      44.976   2.872   9.613  0.00  0.00    +0.000 C 
BRANCH  25  26
ATOM     26  C   UNL     1      44.514   3.665   8.398  0.00  0.00    +0.000 C 
BRANCH  26  27
ATOM     27  O   UNL     1      45.372   4.783   8.205  0.00  0.00    +0.000 OA
ATOM     28  H   UNL     1      46.255   4.527   8.523  0.00  0.00    +0.000 HD
ENDBRANCH  26  27
ENDBRANCH  25  26
ENDBRANCH  24  25
ENDBRANCH  23  24
ENDBRANCH  20  23
ENDBRANCH  16  17
ENDBRANCH   3  16
TORSDOF 8
ENDMDL
MODEL 8
REMARK VINA RESULT:    -5.868      3.768      8.203
REMARK INTER + INTRA:          -9.428
REMARK INTER:                  -8.480
REMARK INTRA:                  -0.948
REMARK UNBOUND:                -0.987
REMARK  Name = 
REMARK  9 active torsions:
REMARK  status: ('A' for Active; 'I' for Inactive)
REMARK    1  A    between atoms: C_1  and  N_2
REMARK    2  A    between atoms: C_4  and  C_5
REMARK    3  A    between atoms: N_7  and  C_8
REMARK    4  A    between atoms: C_8  and  C_9
REMARK    5  A    between atoms: C_12  and  O_13
REMARK    6  A    between atoms: O_13  and  C_14
REMARK    7  A    between atoms: C_14  and  C_15
REMARK    8  A    between atoms: C_15  and  C_16
REMARK    9  A    between atoms: C_16  and  O_17
REMARK                            x       y       z     vdW  Elec       q    Type
REMARK                         _______ _______ _______ _____ _____    ______ ____
ROOT
ATOM      1  C   UNL     1      46.872   4.086  14.645  0.00  0.00    +0.000 C 
ATOM      2  O   UNL     1      47.451   3.074  14.267  0.00  0.00    +0.000 OA
ATOM      3  N   UNL     1      46.720   4.399  15.978  0.00  0.00    +0.000 N 
ATOM      4  H   UNL     1      46.160   5.196  16.239  0.00  0.00    +0.000 HD
ENDROOT
BRANCH   1   8
ATOM      5  C   UNL     1      43.792   6.302  11.400  0.00  0.00    +0.000 C 
ATOM      6  N   UNL     1      44.924   6.054  12.264  0.00  0.00    +0.000 N 
ATOM      7  C   UNL     1      45.170   4.893  12.950  0.00  0.00    +0.000 A 
ATOM      8  C   UNL     1      46.324   5.064  13.709  0.00  0.00    +0.000 A 
ATOM      9  C   UNL     1      46.805   6.394  13.429  0.00  0.00    +0.000 A 
ATOM     10  C   UNL     1      47.867   7.228  13.772  0.00  0.00    +0.000 A 
ATOM     11 CL   UNL     1      49.134   6.686  14.759  0.00  0.00    +0.000 Cl
ATOM     12  N   UNL     1      47.990   8.473  13.281  0.00  0.00    +0.000 NA
ATOM     13  C   UNL     1      47.035   8.891  12.442  0.00  0.00    +0.000 A 
ATOM     14  N   UNL     1      45.963   8.208  12.015  0.00  0.00    +0.000 NA
ATOM     15  C   UNL     1      45.904   6.969  12.536  0.00  0.00    +0.000 A 
ENDBRANCH   1   8
BRANCH   3  16
ATOM     16  C   UNL     1      47.158   3.490  17.013  0.00  0.00    +0.000 C 
BRANCH  16  17
ATOM     17  C   UNL     1      48.644   3.577  17.260  0.00  0.00    +0.000 A 
ATOM     18  C   UNL     1      49.449   2.432  17.170  0.00  0.00    +0.000 A 
ATOM     19  C   UNL     1      50.832   2.506  17.373  0.00  0.00    +0.000 A 
ATOM     20  C   UNL     1      51.427   3.728  17.678  0.00  0.00    +0.000 A 
ATOM     21  C   UNL     1      50.629   4.867  17.801  0.00  0.00    +0.000 A 
ATOM     22  C   UNL     1      49.250   4.796  17.588  0.00  0.00    +0.000 A 
BRANCH  20  23
ATOM     23  O   UNL     1      52.757   3.917  17.937  0.00  0.00    +0.000 OA
BRANCH  23  24
ATOM     24  C   UNL     1      53.279   3.235  19.079  0.00  0.00    +0.000 C 
BRANCH  24  25
ATOM     25  C   UNL     1      54.637   2.646  18.706  0.00  0.00    +0.000 C 
BRANCH  25  26
ATOM     26  C   UNL     1      54.620   1.123  18.674  0.00  0.00    +0.000 C 
BRANCH  26  27
ATOM     27  O   UNL     1      53.276   0.664  18.592  0.00  0.00    +0.000 OA
ATOM     28  H   UNL     1      52.707   1.450  18.528  0.00  0.00    +0.000 HD
ENDBRANCH  26  27
ENDBRANCH  25  26
ENDBRANCH  24  25
ENDBRANCH  23  24
ENDBRANCH  20  23
ENDBRANCH  16  17
ENDBRANCH   3  16
TORSDOF 8
ENDMDL
MODEL 9
REMARK VINA RESULT:    -5.852      4.100      7.979
REMARK INTER + INTRA:          -9.404
REMARK INTER:                  -8.092
REMARK INTRA:                  -1.312
REMARK UNBOUND:                -0.987
REMARK  Name = 
REMARK  9 active torsions:
REMARK  status: ('A' for Active; 'I' for Inactive)
REMARK    1  A    between atoms: C_1  and  N_2
REMARK    2  A    between atoms: C_4  and  C_5
REMARK    3  A    between atoms: N_7  and  C_8
REMARK    4  A    between atoms: C_8  and  C_9
REMARK    5  A    between atoms: C_12  and  O_13
REMARK    6  A    between atoms: O_13  and  C_14
REMARK    7  A    between atoms: C_14  and  C_15
REMARK    8  A    between atoms: C_15  and  C_16
REMARK    9  A    between atoms: C_16  and  O_17
REMARK                            x       y       z     vdW  Elec       q    Type
REMARK                         _______ _______ _______ _____ _____    ______ ____
ROOT
ATOM      1  C   UNL     1      47.550   8.823  13.589  0.00  0.00    +0.000 C 
ATOM      2  O   UNL     1      48.655   8.883  13.061  0.00  0.00    +0.000 OA
ATOM      3  N   UNL     1      47.353   9.082  14.927  0.00  0.00    +0.000 N 
ATOM      4  H   UNL     1      46.441   8.933  15.332  0.00  0.00    +0.000 HD
ENDROOT
BRANCH   1   8
ATOM      5  C   UNL     1      43.550   9.328  10.643  0.00  0.00    +0.000 C 
ATOM      6  N   UNL     1      44.559   8.739  11.495  0.00  0.00    +0.000 N 
ATOM      7  C   UNL     1      45.541   9.422  12.164  0.00  0.00    +0.000 A 
ATOM      8  C   UNL     1      46.343   8.501  12.832  0.00  0.00    +0.000 A 
ATOM      9  C   UNL     1      45.780   7.200  12.567  0.00  0.00    +0.000 A 
ATOM     10  C   UNL     1      46.002   5.865  12.898  0.00  0.00    +0.000 A 
ATOM     11 CL   UNL     1      47.217   5.415  13.991  0.00  0.00    +0.000 Cl
ATOM     12  N   UNL     1      45.221   4.871  12.439  0.00  0.00    +0.000 NA
ATOM     13  C   UNL     1      44.212   5.218  11.632  0.00  0.00    +0.000 A 
ATOM     14  N   UNL     1      43.869   6.451  11.231  0.00  0.00    +0.000 NA
ATOM     15  C   UNL     1      44.683   7.397  11.732  0.00  0.00    +0.000 A 
ENDBRANCH   1   8
BRANCH   3  16
ATOM     16  C   UNL     1      48.467   9.351  15.807  0.00  0.00    +0.000 C 
BRANCH  16  17
ATOM     17  C   UNL     1      48.919   8.120  16.553  0.00  0.00    +0.000 A 
ATOM     18  C   UNL     1      49.932   7.303  16.030  0.00  0.00    +0.000 A 
ATOM     19  C   UNL     1      50.377   6.172  16.725  0.00  0.00    +0.000 A 
ATOM     20  C   UNL     1      49.805   5.838  17.951  0.00  0.00    +0.000 A 
ATOM     21  C   UNL     1      48.773   6.628  18.463  0.00  0.00    +0.000 A 
ATOM     22  C   UNL     1      48.336   7.763  17.775  0.00  0.00    +0.000 A 
BRANCH  20  23
ATOM     23  O   UNL     1      50.125   4.740  18.699  0.00  0.00    +0.000 OA
BRANCH  23  24
ATOM     24  C   UNL     1      49.070   3.804  18.927  0.00  0.00    +0.000 C 
BRANCH  24  25
ATOM     25  C   UNL     1      48.953   2.905  17.699  0.00  0.00    +0.000 C 
BRANCH  25  26
ATOM     26  C   UNL     1      47.663   3.146  16.925  0.00  0.00    +0.000 C 
BRANCH  26  27
ATOM     27  O   UNL     1      46.548   2.815  17.743  0.00  0.00    +0.000 OA
ATOM     28  H   UNL     1      46.155   2.003  17.379  0.00  0.00    +0.000 HD
ENDBRANCH  26  27
ENDBRANCH  25  26
ENDBRANCH  24  25
ENDBRANCH  23  24
ENDBRANCH  20  23
ENDBRANCH  16  17
ENDBRANCH   3  16
TORSDOF 8
ENDMDL
