MODEL 1
REMARK VINA RESULT:    -7.331      0.000      0.000
REMARK INTER + INTRA:         -10.527
REMARK INTER:                  -9.903
REMARK INTRA:                  -0.624
REMARK UNBOUND:                -0.624
REMARK  Name = 
REMARK  7 active torsions:
REMARK  status: ('A' for Active; 'I' for Inactive)
REMARK    1  A    between atoms: N_1  and  C_2
REMARK    2  A    between atoms: C_2  and  C_3
REMARK    3  A    between atoms: C_7  and  C_8
REMARK    4  A    between atoms: C_8  and  O_9
REMARK    5  A    between atoms: O_9  and  C_10
REMARK    6  A    between atoms: C_14  and  C_15
REMARK    7  A    between atoms: C_15  and  O_16
REMARK                            x       y       z     vdW  Elec       q    Type
REMARK                         _______ _______ _______ _____ _____    ______ ____
ROOT
ATOM      1  C   UNL     1      43.965   4.228  10.368  0.00  0.00    +0.000 C 
ENDROOT
BRANCH   1   6
ATOM      2  C   UNL     1      46.363   5.129  13.219  0.00  0.00    +0.000 A 
ATOM      3  C   UNL     1      46.998   6.254  12.674  0.00  0.00    +0.000 A 
ATOM      4  C   UNL     1      46.626   6.747  11.422  0.00  0.00    +0.000 A 
ATOM      5  C   UNL     1      45.631   6.107  10.683  0.00  0.00    +0.000 A 
ATOM      6  C   UNL     1      44.999   4.965  11.188  0.00  0.00    +0.000 A 
ATOM      7  C   UNL     1      45.370   4.489  12.457  0.00  0.00    +0.000 A 
BRANCH   2   8
ATOM      8  C   UNL     1      46.779   4.535  14.542  0.00  0.00    +0.000 C 
BRANCH   8   9
ATOM      9  N   UNL     1      47.349   3.193  14.429  0.00  0.00    +0.000 NA
ATOM     10  H   UNL     1      46.809   2.556  15.011  0.00  0.00    +0.000 HD
ATOM     11  H   UNL     1      48.291   3.209  14.817  0.00  0.00    +0.000 HD
ENDBRANCH   8   9
ENDBRANCH   2   8
ENDBRANCH   1   6
BRANCH   1  12
ATOM     12  O   UNL     1      44.350   4.271   8.996  0.00  0.00    +0.000 OA
BRANCH  12  13
ATOM     13  C   UNL     1      45.095   3.225   8.523  0.00  0.00    +0.000 A 
ATOM     14  C   UNL     1      45.074   1.913   8.994  0.00  0.00    +0.000 A 
ATOM     15  C   UNL     1      45.886   0.944   8.398  0.00  0.00    +0.000 A 
ATOM     16  C   UNL     1      46.718   1.281   7.330  0.00  0.00    +0.000 A 
ATOM     17  C   UNL     1      46.763   2.596   6.851  0.00  0.00    +0.000 A 
ATOM     18  C   UNL     1      45.939   3.558   7.459  0.00  0.00    +0.000 A 
BRANCH  17  19
ATOM     19  C   UNL     1      47.591   2.982   5.654  0.00  0.00    +0.000 C 
BRANCH  19  20
ATOM     20  O   UNL     1      48.497   1.955   5.275  0.00  0.00    +0.000 OA
ATOM     21  H   UNL     1      48.906   2.247   4.440  0.00  0.00    +0.000 HD
ENDBRANCH  19  20
ENDBRANCH  17  19
ENDBRANCH  12  13
ENDBRANCH   1  12
TORSDOF 7
ENDMDL
MODEL 2
REMARK VINA RESULT:    -7.136      2.828      6.519
REMARK INTER + INTRA:         -10.263
REMARK INTER:                  -9.682
REMARK INTRA:                  -0.580
REMARK UNBOUND:                -0.624
REMARK  Name = 
REMARK  7 active torsions:
REMARK  status: ('A' for Active; 'I' for Inactive)
REMARK    1  A    between atoms: N_1  and  C_2
REMARK    2  A    between atoms: C_2  and  C_3
REMARK    3  A    between atoms: C_7  and  C_8
REMARK    4  A    between atoms: C_8  and  O_9
REMARK    5  A    between atoms: O_9  and  C_10
REMARK    6  A    between atoms: C_14  and  C_15
REMARK    7  A    between atoms: C_15  and  O_16
REMARK                            x       y       z     vdW  Elec       q    Type
REMARK                         _______ _______ _______ _____ _____    ______ ____
ROOT
ATOM      1  C   UNL     1      44.278   4.355   9.220  0.00  0.00    +0.000 C 
ENDROOT
BRANCH   1   6
ATOM      2  C   UNL     1      46.534   2.582   6.678  0.00  0.00    +0.000 A 
ATOM      3  C   UNL     1      46.631   1.312   7.264  0.00  0.00    +0.000 A 
ATOM      4  C   UNL     1      45.939   1.013   8.440  0.00  0.00    +0.000 A 
ATOM      5  C   UNL     1      45.161   1.988   9.063  0.00  0.00    +0.000 A 
ATOM      6  C   UNL     1      45.068   3.274   8.518  0.00  0.00    +0.000 A 
ATOM      7  C   UNL     1      45.754   3.557   7.324  0.00  0.00    +0.000 A 
BRANCH   2   8
ATOM      8  C   UNL     1      47.312   2.957   5.441  0.00  0.00    +0.000 C 
BRANCH   8   9
ATOM      9  N   UNL     1      48.433   2.060   5.159  0.00  0.00    +0.000 NA
ATOM     10  H   UNL     1      48.973   1.931   6.012  0.00  0.00    +0.000 HD
ATOM     11  H   UNL     1      49.052   2.518   4.493  0.00  0.00    +0.000 HD
ENDBRANCH   8   9
ENDBRANCH   2   8
ENDBRANCH   1   6
BRANCH   1  12
ATOM     12  O   UNL     1      44.361   4.145  10.627  0.00  0.00    +0.000 OA
BRANCH  12  13
ATOM     13  C   UNL     1      45.252   4.918  11.322  0.00  0.00    +0.000 A 
ATOM     14  C   UNL     1      45.737   6.168  10.942  0.00  0.00    +0.000 A 
ATOM     15  C   UNL     1      46.637   6.848  11.768  0.00  0.00    +0.000 A 
ATOM     16  C   UNL     1      47.052   6.284  12.974  0.00  0.00    +0.000 A 
ATOM     17  C   UNL     1      46.586   5.023  13.367  0.00  0.00    +0.000 A 
ATOM     18  C   UNL     1      45.680   4.354  12.527  0.00  0.00    +0.000 A 
BRANCH  17  19
ATOM     19  C   UNL     1      46.953   4.415  14.695  0.00  0.00    +0.000 C 
BRANCH  19  20
ATOM     20  O   UNL     1      47.449   3.091  14.560  0.00  0.00    +0.000 OA
ATOM     21  H   UNL     1      47.841   2.857  15.421  0.00  0.00    +0.000 HD
ENDBRANCH  19  20
ENDBRANCH  17  19
ENDBRANCH  12  13
ENDBRANCH   1  12
TORSDOF 7
ENDMDL
MODEL 3
REMARK VINA RESULT:    -6.883      1.483      2.050
REMARK INTER + INTRA:          -9.921
REMARK INTER:                  -9.332
REMARK INTRA:                  -0.590
REMARK UNBOUND:                -0.624
REMARK  Name = 
REMARK  7 active torsions:
REMARK  status: ('A' for Active; 'I' for Inactive)
REMARK    1  A    between atoms: N_1  and  C_2
REMARK    2  A    between atoms: C_2  and  C_3
REMARK    3  A    between atoms: C_7  and  C_8
REMARK    4  A    between atoms: C_8  and  O_9
REMARK    5  A    between atoms: O_9  and  C_10
REMARK    6  A    between atoms: C_14  and  C_15
REMARK    7  A    between atoms: C_15  and  O_16
REMARK                            x       y       z     vdW  Elec       q    Type
REMARK                         _______ _______ _______ _____ _____    ______ ____
ROOT
ATOM      1  C   UNL     1      43.873   4.557  10.231  0.00  0.00    +0.000 C 
ENDROOT
BRANCH   1   6
ATOM      2  C   UNL     1      46.273   6.646  12.367  0.00  0.00    +0.000 A 
ATOM      3  C   UNL     1      46.644   5.702  13.334  0.00  0.00    +0.000 A 
ATOM      4  C   UNL     1      46.165   4.392  13.273  0.00  0.00    +0.000 A 
ATOM      5  C   UNL     1      45.286   4.013  12.260  0.00  0.00    +0.000 A 
ATOM      6  C   UNL     1      44.874   4.941  11.296  0.00  0.00    +0.000 A 
ATOM      7  C   UNL     1      45.378   6.252  11.358  0.00  0.00    +0.000 A 
BRANCH   2   8
ATOM      8  C   UNL     1      46.726   8.084  12.435  0.00  0.00    +0.000 C 
BRANCH   8   9
ATOM      9  N   UNL     1      46.254   8.792  13.624  0.00  0.00    +0.000 NA
ATOM     10  H   UNL     1      46.417   9.790  13.500  0.00  0.00    +0.000 HD
ATOM     11  H   UNL     1      46.822   8.504  14.418  0.00  0.00    +0.000 HD
ENDBRANCH   8   9
ENDBRANCH   2   8
ENDBRANCH   1   6
BRANCH   1  12
ATOM     12  O   UNL     1      44.518   4.589   8.960  0.00  0.00    +0.000 OA
BRANCH  12  13
ATOM     13  C   UNL     1      45.172   3.455   8.562  0.00  0.00    +0.000 A 
ATOM     14  C   UNL     1      44.950   2.163   9.034  0.00  0.00    +0.000 A 
ATOM     15  C   UNL     1      45.690   1.095   8.518  0.00  0.00    +0.000 A 
ATOM     16  C   UNL     1      46.650   1.314   7.528  0.00  0.00    +0.000 A 
ATOM     17  C   UNL     1      46.895   2.607   7.051  0.00  0.00    +0.000 A 
ATOM     18  C   UNL     1      46.141   3.669   7.578  0.00  0.00    +0.000 A 
BRANCH  17  19
ATOM     19  C   UNL     1      47.868   2.873   5.933  0.00  0.00    +0.000 C 
BRANCH  19  20
ATOM     20  O   UNL     1      48.583   1.705   5.554  0.00  0.00    +0.000 OA
ATOM     21  H   UNL     1      49.373   1.671   6.124  0.00  0.00    +0.000 HD
ENDBRANCH  19  20
ENDBRANCH  17  19
ENDBRANCH  12  13
ENDBRANCH   1  12
TORSDOF 7
ENDMDL
MODEL 4
REMARK VINA RESULT:    -6.666      2.927      6.503
REMARK INTER + INTRA:          -9.628
REMARK INTER:                  -9.140
REMARK INTRA:                  -0.488
REMARK UNBOUND:                -0.624
REMARK  Name = 
REMARK  7 active torsions:
REMARK  status: ('A' for Active; 'I' for Inactive)
REMARK    1  A    between atoms: N_1  and  C_2
REMARK    2  A    between atoms: C_2  and  C_3
REMARK    3  A    between atoms: C_7  and  C_8
REMARK    4  A    between atoms: C_8  and  O_9
REMARK    5  A    between atoms: O_9  and  C_10
REMARK    6  A    between atoms: C_14  and  C_15
REMARK    7  A    between atoms: C_15  and  O_16
REMARK                            x       y       z     vdW  Elec       q    Type
REMARK                         _______ _______ _______ _____ _____    ______ ____
ROOT
ATOM      1  C   UNL     1      44.220   4.329   9.168  0.00  0.00    +0.000 C 
ENDROOT
BRANCH   1   6
ATOM      2  C   UNL     1      46.545   2.558   6.689  0.00  0.00    +0.000 A 
ATOM      3  C   UNL     1      46.631   1.290   7.280  0.00  0.00    +0.000 A 
ATOM      4  C   UNL     1      45.912   0.992   8.439  0.00  0.00    +0.000 A 
ATOM      5  C   UNL     1      45.115   1.965   9.040  0.00  0.00    +0.000 A 
ATOM      6  C   UNL     1      45.031   3.249   8.489  0.00  0.00    +0.000 A 
ATOM      7  C   UNL     1      45.746   3.532   7.312  0.00  0.00    +0.000 A 
BRANCH   2   8
ATOM      8  C   UNL     1      47.352   2.932   5.470  0.00  0.00    +0.000 C 
BRANCH   8   9
ATOM      9  N   UNL     1      48.429   1.990   5.168  0.00  0.00    +0.000 NA
ATOM     10  H   UNL     1      48.082   1.041   5.299  0.00  0.00    +0.000 HD
ATOM     11  H   UNL     1      49.173   2.120   5.851  0.00  0.00    +0.000 HD
ENDBRANCH   8   9
ENDBRANCH   2   8
ENDBRANCH   1   6
BRANCH   1  12
ATOM     12  O   UNL     1      43.905   3.905  10.492  0.00  0.00    +0.000 OA
BRANCH  12  13
ATOM     13  C   UNL     1      44.716   4.349  11.501  0.00  0.00    +0.000 A 
ATOM     14  C   UNL     1      45.451   3.558  12.382  0.00  0.00    +0.000 A 
ATOM     15  C   UNL     1      46.251   4.160  13.358  0.00  0.00    +0.000 A 
ATOM     16  C   UNL     1      46.323   5.550  13.454  0.00  0.00    +0.000 A 
ATOM     17  C   UNL     1      45.582   6.361  12.586  0.00  0.00    +0.000 A 
ATOM     18  C   UNL     1      44.784   5.741  11.609  0.00  0.00    +0.000 A 
BRANCH  17  19
ATOM     19  C   UNL     1      45.690   7.862  12.610  0.00  0.00    +0.000 C 
BRANCH  19  20
ATOM     20  O   UNL     1      46.406   8.331  13.744  0.00  0.00    +0.000 OA
ATOM     21  H   UNL     1      45.793   8.908  14.234  0.00  0.00    +0.000 HD
ENDBRANCH  19  20
ENDBRANCH  17  19
ENDBRANCH  12  13
ENDBRANCH   1  12
TORSDOF 7
ENDMDL
MODEL 5
REMARK VINA RESULT:    -6.574      3.025      6.060
REMARK INTER + INTRA:          -9.505
REMARK INTER:                  -9.259
REMARK INTRA:                  -0.246
REMARK UNBOUND:                -0.624
REMARK  Name = 
REMARK  7 active torsions:
REMARK  status: ('A' for Active; 'I' for Inactive)
REMARK    1  A    between atoms: N_1  and  C_2
REMARK    2  A    between atoms: C_2  and  C_3
REMARK    3  A    between atoms: C_7  and  C_8
REMARK    4  A    between atoms: C_8  and  O_9
REMARK    5  A    between atoms: O_9  and  C_10
REMARK    6  A    between atoms: C_14  and  C_15
REMARK    7  A    between atoms: C_15  and  O_16
REMARK                            x       y       z     vdW  Elec       q    Type
REMARK                         _______ _______ _______ _____ _____    ______ ____
ROOT
ATOM      1  C   UNL     1      44.023   2.434  10.435  0.00  0.00    +0.000 C 
ENDROOT
BRANCH   1   6
ATOM      2  C   UNL     1      46.632   2.213   7.636  0.00  0.00    +0.000 A 
ATOM      3  C   UNL     1      46.669   3.549   7.214  0.00  0.00    +0.000 A 
ATOM      4  C   UNL     1      45.898   4.521   7.854  0.00  0.00    +0.000 A 
ATOM      5  C   UNL     1      45.058   4.168   8.909  0.00  0.00    +0.000 A 
ATOM      6  C   UNL     1      44.977   2.837   9.334  0.00  0.00    +0.000 A 
ATOM      7  C   UNL     1      45.772   1.870   8.694  0.00  0.00    +0.000 A 
BRANCH   2   8
ATOM      8  C   UNL     1      47.408   1.127   6.931  0.00  0.00    +0.000 C 
BRANCH   8   9
ATOM      9  N   UNL     1      48.399   1.635   5.984  0.00  0.00    +0.000 NA
ATOM     10  H   UNL     1      48.788   2.503   6.348  0.00  0.00    +0.000 HD
ATOM     11  H   UNL     1      47.922   1.876   5.117  0.00  0.00    +0.000 HD
ENDBRANCH   8   9
ENDBRANCH   2   8
ENDBRANCH   1   6
BRANCH   1  12
ATOM     12  O   UNL     1      43.740   3.576  11.240  0.00  0.00    +0.000 OA
BRANCH  12  13
ATOM     13  C   UNL     1      44.751   4.047  12.032  0.00  0.00    +0.000 A 
ATOM     14  C   UNL     1      45.699   3.282  12.708  0.00  0.00    +0.000 A 
ATOM     15  C   UNL     1      46.687   3.910  13.473  0.00  0.00    +0.000 A 
ATOM     16  C   UNL     1      46.732   5.301  13.562  0.00  0.00    +0.000 A 
ATOM     17  C   UNL     1      45.780   6.087  12.901  0.00  0.00    +0.000 A 
ATOM     18  C   UNL     1      44.795   5.441  12.135  0.00  0.00    +0.000 A 
BRANCH  17  19
ATOM     19  C   UNL     1      45.840   7.591  12.913  0.00  0.00    +0.000 C 
BRANCH  19  20
ATOM     20  O   UNL     1      44.692   8.179  12.317  0.00  0.00    +0.000 OA
ATOM     21  H   UNL     1      44.017   7.478  12.273  0.00  0.00    +0.000 HD
ENDBRANCH  19  20
ENDBRANCH  17  19
ENDBRANCH  12  13
ENDBRANCH   1  12
TORSDOF 7
ENDMDL
MODEL 6
REMARK VINA RESULT:    -6.311      1.721      2.223
REMARK INTER + INTRA:          -9.149
REMARK INTER:                  -8.643
REMARK INTRA:                  -0.507
REMARK UNBOUND:                -0.624
REMARK  Name = 
REMARK  7 active torsions:
REMARK  status: ('A' for Active; 'I' for Inactive)
REMARK    1  A    between atoms: N_1  and  C_2
REMARK    2  A    between atoms: C_2  and  C_3
REMARK    3  A    between atoms: C_7  and  C_8
REMARK    4  A    between atoms: C_8  and  O_9
REMARK    5  A    between atoms: O_9  and  C_10
REMARK    6  A    between atoms: C_14  and  C_15
REMARK    7  A    between atoms: C_15  and  O_16
REMARK                            x       y       z     vdW  Elec       q    Type
REMARK                         _______ _______ _______ _____ _____    ______ ____
ROOT
ATOM      1  C   UNL     1      44.547   2.933  11.390  0.00  0.00    +0.000 C 
ENDROOT
BRANCH   1   6
ATOM      2  C   UNL     1      46.337   5.855  13.108  0.00  0.00    +0.000 A 
ATOM      3  C   UNL     1      45.528   6.925  12.701  0.00  0.00    +0.000 A 
ATOM      4  C   UNL     1      44.391   6.705  11.922  0.00  0.00    +0.000 A 
ATOM      5  C   UNL     1      44.060   5.414  11.514  0.00  0.00    +0.000 A 
ATOM      6  C   UNL     1      44.863   4.328  11.880  0.00  0.00    +0.000 A 
ATOM      7  C   UNL     1      45.996   4.561  12.680  0.00  0.00    +0.000 A 
BRANCH   2   8
ATOM      8  C   UNL     1      47.604   6.062  13.901  0.00  0.00    +0.000 C 
BRANCH   8   9
ATOM      9  N   UNL     1      48.810   6.119  13.076  0.00  0.00    +0.000 NA
ATOM     10  H   UNL     1      49.626   6.020  13.677  0.00  0.00    +0.000 HD
ATOM     11  H   UNL     1      48.871   7.046  12.659  0.00  0.00    +0.000 HD
ENDBRANCH   8   9
ENDBRANCH   2   8
ENDBRANCH   1   6
BRANCH   1  12
ATOM     12  O   UNL     1      44.078   3.012  10.046  0.00  0.00    +0.000 OA
BRANCH  12  13
ATOM     13  C   UNL     1      45.022   3.123   9.061  0.00  0.00    +0.000 A 
ATOM     14  C   UNL     1      45.430   4.299   8.434  0.00  0.00    +0.000 A 
ATOM     15  C   UNL     1      46.421   4.256   7.449  0.00  0.00    +0.000 A 
ATOM     16  C   UNL     1      47.008   3.042   7.090  0.00  0.00    +0.000 A 
ATOM     17  C   UNL     1      46.602   1.849   7.700  0.00  0.00    +0.000 A 
ATOM     18  C   UNL     1      45.607   1.909   8.690  0.00  0.00    +0.000 A 
BRANCH  17  19
ATOM     19  C   UNL     1      47.262   0.531   7.393  0.00  0.00    +0.000 C 
BRANCH  19  20
ATOM     20  O   UNL     1      46.530  -0.570   7.910  0.00  0.00    +0.000 OA
ATOM     21  H   UNL     1      47.183  -1.267   8.103  0.00  0.00    +0.000 HD
ENDBRANCH  19  20
ENDBRANCH  17  19
ENDBRANCH  12  13
ENDBRANCH   1  12
TORSDOF 7
ENDMDL
MODEL 7
REMARK VINA RESULT:    -6.276      2.806      6.028
REMARK INTER + INTRA:          -9.102
REMARK INTER:                  -8.614
REMARK INTRA:                  -0.488
REMARK UNBOUND:                -0.624
REMARK  Name = 
REMARK  7 active torsions:
REMARK  status: ('A' for Active; 'I' for Inactive)
REMARK    1  A    between atoms: N_1  and  C_2
REMARK    2  A    between atoms: C_2  and  C_3
REMARK    3  A    between atoms: C_7  and  C_8
REMARK    4  A    between atoms: C_8  and  O_9
REMARK    5  A    between atoms: O_9  and  C_10
REMARK    6  A    between atoms: C_14  and  C_15
REMARK    7  A    between atoms: C_15  and  O_16
REMARK                            x       y       z     vdW  Elec       q    Type
REMARK                         _______ _______ _______ _____ _____    ______ ____
ROOT
ATOM      1  C   UNL     1      44.021   2.960  10.253  0.00  0.00    +0.000 C 
ENDROOT
BRANCH   1   6
ATOM      2  C   UNL     1      46.652   1.916   7.668  0.00  0.00    +0.000 A 
ATOM      3  C   UNL     1      46.857   3.135   7.006  0.00  0.00    +0.000 A 
ATOM      4  C   UNL     1      46.191   4.291   7.416  0.00  0.00    +0.000 A 
ATOM      5  C   UNL     1      45.290   4.243   8.479  0.00  0.00    +0.000 A 
ATOM      6  C   UNL     1      45.042   3.035   9.142  0.00  0.00    +0.000 A 
ATOM      7  C   UNL     1      45.732   1.881   8.731  0.00  0.00    +0.000 A 
BRANCH   2   8
ATOM      8  C   UNL     1      47.309   0.636   7.216  0.00  0.00    +0.000 C 
BRANCH   8   9
ATOM      9  N   UNL     1      46.643  -0.570   7.705  0.00  0.00    +0.000 NA
ATOM     10  H   UNL     1      46.173  -0.354   8.583  0.00  0.00    +0.000 HD
ATOM     11  H   UNL     1      47.354  -1.266   7.924  0.00  0.00    +0.000 HD
ENDBRANCH   8   9
ENDBRANCH   2   8
ENDBRANCH   1   6
BRANCH   1  12
ATOM     12  O   UNL     1      44.675   3.198  11.497  0.00  0.00    +0.000 OA
BRANCH  12  13
ATOM     13  C   UNL     1      44.940   4.500  11.825  0.00  0.00    +0.000 A 
ATOM     14  C   UNL     1      44.140   5.605  11.538  0.00  0.00    +0.000 A 
ATOM     15  C   UNL     1      44.537   6.880  11.952  0.00  0.00    +0.000 A 
ATOM     16  C   UNL     1      45.729   7.054  12.655  0.00  0.00    +0.000 A 
ATOM     17  C   UNL     1      46.552   5.958  12.941  0.00  0.00    +0.000 A 
ATOM     18  C   UNL     1      46.138   4.683  12.521  0.00  0.00    +0.000 A 
BRANCH  17  19
ATOM     19  C   UNL     1      47.807   6.096  13.761  0.00  0.00    +0.000 C 
BRANCH  19  20
ATOM     20  O   UNL     1      48.974   6.153  12.952  0.00  0.00    +0.000 OA
ATOM     21  H   UNL     1      48.668   6.328  12.044  0.00  0.00    +0.000 HD
ENDBRANCH  19  20
ENDBRANCH  17  19
ENDBRANCH  12  13
ENDBRANCH   1  12
TORSDOF 7
ENDMDL
MODEL 8
REMARK VINA RESULT:    -5.748      3.880      7.828
REMARK INTER + INTRA:          -8.389
REMARK INTER:                  -7.996
REMARK INTRA:                  -0.393
REMARK UNBOUND:                -0.624
REMARK  Name = 
REMARK  7 active torsions:
REMARK  status: ('A' for Active; 'I' for Inactive)
REMARK    1  A    between atoms: N_1  and  C_2
REMARK    2  A    between atoms: C_2  and  C_3
REMARK    3  A    between atoms: C_7  and  C_8
REMARK    4  A    between atoms: C_8  and  O_9
REMARK    5  A    between atoms: O_9  and  C_10
REMARK    6  A    between atoms: C_14  and  C_15
REMARK    7  A    between atoms: C_15  and  O_16
REMARK                            x       y       z     vdW  Elec       q    Type
REMARK                         _______ _______ _______ _____ _____    ______ ____
ROOT
ATOM      1  C   UNL     1      46.752   4.894  14.216  0.00  0.00    +0.000 C 
ENDROOT
BRANCH   1   6
ATOM      2  C   UNL     1      44.844   3.801  11.077  0.00  0.00    +0.000 A 
ATOM      3  C   UNL     1      45.088   4.895  10.235  0.00  0.00    +0.000 A 
ATOM      4  C   UNL     1      45.897   5.953  10.655  0.00  0.00    +0.000 A 
ATOM      5  C   UNL     1      46.454   5.945  11.933  0.00  0.00    +0.000 A 
ATOM      6  C   UNL     1      46.205   4.881  12.807  0.00  0.00    +0.000 A 
ATOM      7  C   UNL     1      45.403   3.814  12.366  0.00  0.00    +0.000 A 
BRANCH   2   8
ATOM      8  C   UNL     1      43.928   2.670  10.678  0.00  0.00    +0.000 C 
BRANCH   8   9
ATOM      9  N   UNL     1      43.078   2.192  11.767  0.00  0.00    +0.000 NA
ATOM     10  H   UNL     1      43.496   2.463  12.655  0.00  0.00    +0.000 HD
ATOM     11  H   UNL     1      43.074   1.174  11.750  0.00  0.00    +0.000 HD
ENDBRANCH   8   9
ENDBRANCH   2   8
ENDBRANCH   1   6
BRANCH   1  12
ATOM     12  O   UNL     1      47.139   3.569  14.572  0.00  0.00    +0.000 OA
BRANCH  12  13
ATOM     13  C   UNL     1      47.744   3.399  15.788  0.00  0.00    +0.000 A 
ATOM     14  C   UNL     1      48.676   2.418  16.120  0.00  0.00    +0.000 A 
ATOM     15  C   UNL     1      49.221   2.380  17.407  0.00  0.00    +0.000 A 
ATOM     16  C   UNL     1      48.839   3.321  18.363  0.00  0.00    +0.000 A 
ATOM     17  C   UNL     1      47.895   4.307  18.052  0.00  0.00    +0.000 A 
ATOM     18  C   UNL     1      47.358   4.333  16.754  0.00  0.00    +0.000 A 
BRANCH  17  19
ATOM     19  C   UNL     1      47.514   5.384  19.032  0.00  0.00    +0.000 C 
BRANCH  19  20
ATOM     20  O   UNL     1      46.132   5.708  18.965  0.00  0.00    +0.000 OA
ATOM     21  H   UNL     1      45.658   4.862  18.868  0.00  0.00    +0.000 HD
ENDBRANCH  19  20
ENDBRANCH  17  19
ENDBRANCH  12  13
ENDBRANCH   1  12
TORSDOF 7
ENDMDL
MODEL 9
REMARK VINA RESULT:    -5.702      3.309      6.792
REMARK INTER + INTRA:          -8.326
REMARK INTER:                  -7.811
REMARK INTRA:                  -0.515
REMARK UNBOUND:                -0.624
REMARK  Name = 
REMARK  7 active torsions:
REMARK  status: ('A' for Active; 'I' for Inactive)
REMARK    1  A    between atoms: N_1  and  C_2
REMARK    2  A    between atoms: C_2  and  C_3
REMARK    3  A    between atoms: C_7  and  C_8
REMARK    4  A    between atoms: C_8  and  O_9
REMARK    5  A    between atoms: O_9  and  C_10
REMARK    6  A    between atoms: C_14  and  C_15
REMARK    7  A    between atoms: C_15  and  O_16
REMARK                            x       y       z     vdW  Elec       q    Type
REMARK                         _______ _______ _______ _____ _____    ______ ____
ROOT
ATOM      1  C   UNL     1      45.085   6.203  11.223  0.00  0.00    +0.000 C 
ENDROOT
BRANCH   1   6
ATOM      2  C   UNL     1      45.282   3.472   8.542  0.00  0.00    +0.000 A 
ATOM      3  C   UNL     1      44.604   2.429   9.188  0.00  0.00    +0.000 A 
ATOM      4  C   UNL     1      44.047   2.616  10.455  0.00  0.00    +0.000 A 
ATOM      5  C   UNL     1      44.182   3.841  11.106  0.00  0.00    +0.000 A 
ATOM      6  C   UNL     1      44.879   4.893  10.499  0.00  0.00    +0.000 A 
ATOM      7  C   UNL     1      45.419   4.697   9.216  0.00  0.00    +0.000 A 
BRANCH   2   8
ATOM      8  C   UNL     1      45.946   3.287   7.199  0.00  0.00    +0.000 C 
BRANCH   8   9
ATOM      9  N   UNL     1      46.974   4.286   6.911  0.00  0.00    +0.000 NA
ATOM     10  H   UNL     1      46.890   4.574   5.938  0.00  0.00    +0.000 HD
ATOM     11  H   UNL     1      47.887   3.845   7.003  0.00  0.00    +0.000 HD
ENDBRANCH   8   9
ENDBRANCH   2   8
ENDBRANCH   1   6
BRANCH   1  12
ATOM     12  O   UNL     1      45.830   5.959  12.414  0.00  0.00    +0.000 OA
BRANCH  12  13
ATOM     13  C   UNL     1      47.066   6.540  12.507  0.00  0.00    +0.000 A 
ATOM     14  C   UNL     1      47.750   7.198  11.488  0.00  0.00    +0.000 A 
ATOM     15  C   UNL     1      49.007   7.757  11.739  0.00  0.00    +0.000 A 
ATOM     16  C   UNL     1      49.581   7.662  13.007  0.00  0.00    +0.000 A 
ATOM     17  C   UNL     1      48.914   6.993  14.040  0.00  0.00    +0.000 A 
ATOM     18  C   UNL     1      47.651   6.439  13.773  0.00  0.00    +0.000 A 
BRANCH  17  19
ATOM     19  C   UNL     1      49.467   6.934  15.440  0.00  0.00    +0.000 C 
BRANCH  19  20
ATOM     20  O   UNL     1      49.289   5.655  16.034  0.00  0.00    +0.000 OA
ATOM     21  H   UNL     1      49.444   5.774  16.988  0.00  0.00    +0.000 HD
ENDBRANCH  19  20
ENDBRANCH  17  19
ENDBRANCH  12  13
ENDBRANCH   1  12
TORSDOF 7
ENDMDL
