MODEL 1
REMARK VINA RESULT:    -7.018      0.000      0.000
REMARK INTER + INTRA:         -11.053
REMARK INTER:                 -10.095
REMARK INTRA:                  -0.958
REMARK UNBOUND:                -0.958
REMARK  Name = 
REMARK  10 active torsions:
REMARK  status: ('A' for Active; 'I' for Inactive)
REMARK    1  A    between atoms: C_1  and  O_2
REMARK    2  A    between atoms: O_2  and  C_3
REMARK    3  A    between atoms: C_5  and  O_6
REMARK    4  A    between atoms: O_6  and  C_7
REMARK    5  A    between atoms: C_9  and  C_10
REMARK    6  A    between atoms: C_10  and  C_11
REMARK    7  A    between atoms: C_11  and  C_12
REMARK    8  A    between atoms: C_16  and  C_17
REMARK    9  A    between atoms: C_17  and  C_18
REMARK   10  A    between atoms: C_18  and  O_20
REMARK                            x       y       z     vdW  Elec       q    Type
REMARK                         _______ _______ _______ _____ _____    ______ ____
ROOT
ATOM      1  C   UNL     1      43.624   5.036  10.683  0.00  0.00    +0.000 C 
ENDROOT
BRANCH   1   2
ATOM      2  C   UNL     1      44.352   4.030   9.830  0.00  0.00    +0.000 A 
ATOM      3  C   UNL     1      44.154   2.661  10.010  0.00  0.00    +0.000 A 
ATOM      4  C   UNL     1      44.858   1.783   9.205  0.00  0.00    +0.000 A 
ATOM      5  N   UNL     1      45.735   2.171   8.252  0.00  0.00    +0.000 NA
ATOM      6  C   UNL     1      45.956   3.502   8.114  0.00  0.00    +0.000 A 
ATOM      7  C   UNL     1      45.280   4.453   8.875  0.00  0.00    +0.000 A 
BRANCH   6   8
ATOM      8  C   UNL     1      46.986   3.913   7.102  0.00  0.00    +0.000 C 
BRANCH   8   9
ATOM      9  C   UNL     1      47.478   2.760   6.270  0.00  0.00    +0.000 C 
ATOM     10  O   UNL     1      47.220   2.623   5.083  0.00  0.00    +0.000 OA
BRANCH   9  11
ATOM     11  O   UNL     1      48.263   1.887   6.945  0.00  0.00    +0.000 OA
ATOM     12  H   UNL     1      49.220   2.073   6.841  0.00  0.00    +0.000 HD
ENDBRANCH   9  11
ENDBRANCH   8   9
ENDBRANCH   6   8
ENDBRANCH   1   2
BRANCH   1  13
ATOM     13  C   UNL     1      43.628   4.617  12.151  0.00  0.00    +0.000 C 
BRANCH  13  18
ATOM     14  C   UNL     1      46.641   6.353  13.259  0.00  0.00    +0.000 A 
ATOM     15  C   UNL     1      47.352   5.389  13.927  0.00  0.00    +0.000 A 
ATOM     16  C   UNL     1      46.760   4.153  13.963  0.00  0.00    +0.000 A 
ATOM     17  N   UNL     1      45.575   3.874  13.397  0.00  0.00    +0.000 NA
ATOM     18  C   UNL     1      44.970   4.885  12.759  0.00  0.00    +0.000 A 
ATOM     19  N   UNL     1      45.452   6.133  12.669  0.00  0.00    +0.000 NA
BRANCH  14  21
ATOM     20  C   UNL     1      46.208   8.649  13.206  0.00  0.00    +0.000 C 
ATOM     21  O   UNL     1      47.195   7.618  13.205  0.00  0.00    +0.000 OA
ENDBRANCH  14  21
BRANCH  16  22
ATOM     22  O   UNL     1      47.436   3.149  14.631  0.00  0.00    +0.000 OA
ATOM     23  C   UNL     1      47.707   3.487  15.991  0.00  0.00    +0.000 C 
ENDBRANCH  16  22
ENDBRANCH  13  18
ENDBRANCH   1  13
TORSDOF 8
ENDMDL
MODEL 2
REMARK VINA RESULT:    -6.741      1.054      1.234
REMARK INTER + INTRA:         -10.654
REMARK INTER:                 -10.418
REMARK INTRA:                  -0.237
REMARK UNBOUND:                -0.958
REMARK  Name = 
REMARK  10 active torsions:
REMARK  status: ('A' for Active; 'I' for Inactive)
REMARK    1  A    between atoms: C_1  and  O_2
REMARK    2  A    between atoms: O_2  and  C_3
REMARK    3  A    between atoms: C_5  and  O_6
REMARK    4  A    between atoms: O_6  and  C_7
REMARK    5  A    between atoms: C_9  and  C_10
REMARK    6  A    between atoms: C_10  and  C_11
REMARK    7  A    between atoms: C_11  and  C_12
REMARK    8  A    between atoms: C_16  and  C_17
REMARK    9  A    between atoms: C_17  and  C_18
REMARK   10  A    between atoms: C_18  and  O_20
REMARK                            x       y       z     vdW  Elec       q    Type
REMARK                         _______ _______ _______ _____ _____    ______ ____
ROOT
ATOM      1  C   UNL     1      44.888   5.406  10.458  0.00  0.00    +0.000 C 
ENDROOT
BRANCH   1   2
ATOM      2  C   UNL     1      45.064   4.189   9.587  0.00  0.00    +0.000 A 
ATOM      3  C   UNL     1      44.552   2.951   9.976  0.00  0.00    +0.000 A 
ATOM      4  C   UNL     1      44.754   1.865   9.142  0.00  0.00    +0.000 A 
ATOM      5  N   UNL     1      45.423   1.928   7.969  0.00  0.00    +0.000 NA
ATOM      6  C   UNL     1      45.956   3.125   7.621  0.00  0.00    +0.000 A 
ATOM      7  C   UNL     1      45.790   4.270   8.396  0.00  0.00    +0.000 A 
BRANCH   6   8
ATOM      8  C   UNL     1      46.758   3.162   6.352  0.00  0.00    +0.000 C 
BRANCH   8   9
ATOM      9  C   UNL     1      47.808   2.087   6.294  0.00  0.00    +0.000 C 
ATOM     10  O   UNL     1      48.033   1.311   7.212  0.00  0.00    +0.000 OA
BRANCH   9  11
ATOM     11  O   UNL     1      48.477   2.028   5.118  0.00  0.00    +0.000 OA
ATOM     12  H   UNL     1      49.403   1.725   5.219  0.00  0.00    +0.000 HD
ENDBRANCH   9  11
ENDBRANCH   8   9
ENDBRANCH   6   8
ENDBRANCH   1   2
BRANCH   1  13
ATOM     13  C   UNL     1      44.506   5.013  11.882  0.00  0.00    +0.000 C 
BRANCH  13  18
ATOM     14  C   UNL     1      47.506   6.377  13.450  0.00  0.00    +0.000 A 
ATOM     15  C   UNL     1      47.755   5.520  14.491  0.00  0.00    +0.000 A 
ATOM     16  C   UNL     1      46.869   4.480  14.610  0.00  0.00    +0.000 A 
ATOM     17  N   UNL     1      45.827   4.288  13.785  0.00  0.00    +0.000 NA
ATOM     18  C   UNL     1      45.682   5.177  12.795  0.00  0.00    +0.000 A 
ATOM     19  N   UNL     1      46.481   6.234  12.590  0.00  0.00    +0.000 NA
BRANCH  14  21
ATOM     20  C   UNL     1      48.638   7.741  11.926  0.00  0.00    +0.000 C 
ATOM     21  O   UNL     1      48.369   7.446  13.296  0.00  0.00    +0.000 OA
ENDBRANCH  14  21
BRANCH  16  22
ATOM     22  O   UNL     1      47.074   3.592  15.649  0.00  0.00    +0.000 OA
ATOM     23  C   UNL     1      47.231   4.251  16.906  0.00  0.00    +0.000 C 
ENDBRANCH  16  22
ENDBRANCH  13  18
ENDBRANCH   1  13
TORSDOF 8
ENDMDL
MODEL 3
REMARK VINA RESULT:    -6.716      0.630      2.558
REMARK INTER + INTRA:         -10.619
REMARK INTER:                 -10.290
REMARK INTRA:                  -0.329
REMARK UNBOUND:                -0.958
REMARK  Name = 
REMARK  10 active torsions:
REMARK  status: ('A' for Active; 'I' for Inactive)
REMARK    1  A    between atoms: C_1  and  O_2
REMARK    2  A    between atoms: O_2  and  C_3
REMARK    3  A    between atoms: C_5  and  O_6
REMARK    4  A    between atoms: O_6  and  C_7
REMARK    5  A    between atoms: C_9  and  C_10
REMARK    6  A    between atoms: C_10  and  C_11
REMARK    7  A    between atoms: C_11  and  C_12
REMARK    8  A    between atoms: C_16  and  C_17
REMARK    9  A    between atoms: C_17  and  C_18
REMARK   10  A    between atoms: C_18  and  O_20
REMARK                            x       y       z     vdW  Elec       q    Type
REMARK                         _______ _______ _______ _____ _____    ______ ____
ROOT
ATOM      1  C   UNL     1      43.735   4.985  10.447  0.00  0.00    +0.000 C 
ENDROOT
BRANCH   1   2
ATOM      2  C   UNL     1      44.401   3.908   9.630  0.00  0.00    +0.000 A 
ATOM      3  C   UNL     1      44.282   2.564   9.984  0.00  0.00    +0.000 A 
ATOM      4  C   UNL     1      44.925   1.619   9.203  0.00  0.00    +0.000 A 
ATOM      5  N   UNL     1      45.668   1.919   8.114  0.00  0.00    +0.000 NA
ATOM      6  C   UNL     1      45.816   3.231   7.804  0.00  0.00    +0.000 A 
ATOM      7  C   UNL     1      45.194   4.244   8.529  0.00  0.00    +0.000 A 
BRANCH   6   8
ATOM      8  C   UNL     1      46.703   3.551   6.636  0.00  0.00    +0.000 C 
BRANCH   8   9
ATOM      9  C   UNL     1      47.673   2.446   6.321  0.00  0.00    +0.000 C 
ATOM     10  O   UNL     1      47.335   1.347   5.903  0.00  0.00    +0.000 OA
BRANCH   9  11
ATOM     11  O   UNL     1      48.972   2.777   6.514  0.00  0.00    +0.000 OA
ATOM     12  H   UNL     1      49.454   2.943   5.677  0.00  0.00    +0.000 HD
ENDBRANCH   9  11
ENDBRANCH   8   9
ENDBRANCH   6   8
ENDBRANCH   1   2
BRANCH   1  13
ATOM     13  C   UNL     1      43.603   4.563  11.908  0.00  0.00    +0.000 C 
BRANCH  13  18
ATOM     14  C   UNL     1      46.668   4.131  13.841  0.00  0.00    +0.000 A 
ATOM     15  C   UNL     1      47.198   5.394  13.910  0.00  0.00    +0.000 A 
ATOM     16  C   UNL     1      46.461   6.366  13.284  0.00  0.00    +0.000 A 
ATOM     17  N   UNL     1      45.304   6.131  12.644  0.00  0.00    +0.000 NA
ATOM     18  C   UNL     1      44.871   4.864  12.648  0.00  0.00    +0.000 A 
ATOM     19  N   UNL     1      45.514   3.835  13.219  0.00  0.00    +0.000 NA
BRANCH  14  21
ATOM     20  C   UNL     1      47.707   3.414  15.809  0.00  0.00    +0.000 C 
ATOM     21  O   UNL     1      47.383   3.116  14.451  0.00  0.00    +0.000 OA
ENDBRANCH  14  21
BRANCH  16  22
ATOM     22  O   UNL     1      46.958   7.655  13.320  0.00  0.00    +0.000 OA
ATOM     23  C   UNL     1      47.527   8.055  12.073  0.00  0.00    +0.000 C 
ENDBRANCH  16  22
ENDBRANCH  13  18
ENDBRANCH   1  13
TORSDOF 8
ENDMDL
MODEL 4
REMARK VINA RESULT:    -6.457      2.547      4.067
REMARK INTER + INTRA:         -10.246
REMARK INTER:                  -9.568
REMARK INTRA:                  -0.678
REMARK UNBOUND:                -0.958
REMARK  Name = 
REMARK  10 active torsions:
REMARK  status: ('A' for Active; 'I' for Inactive)
REMARK    1  A    between atoms: C_1  and  O_2
REMARK    2  A    between atoms: O_2  and  C_3
REMARK    3  A    between atoms: C_5  and  O_6
REMARK    4  A    between atoms: O_6  and  C_7
REMARK    5  A    between atoms: C_9  and  C_10
REMARK    6  A    between atoms: C_10  and  C_11
REMARK    7  A    between atoms: C_11  and  C_12
REMARK    8  A    between atoms: C_16  and  C_17
REMARK    9  A    between atoms: C_17  and  C_18
REMARK   10  A    between atoms: C_18  and  O_20
REMARK                            x       y       z     vdW  Elec       q    Type
REMARK                         _______ _______ _______ _____ _____    ______ ____
ROOT
ATOM      1  C   UNL     1      45.810   4.830  13.805  0.00  0.00    +0.000 C 
ENDROOT
BRANCH   1   2
ATOM      2  C   UNL     1      44.863   4.693  12.640  0.00  0.00    +0.000 A 
ATOM      3  C   UNL     1      43.619   5.322  12.652  0.00  0.00    +0.000 A 
ATOM      4  C   UNL     1      42.786   5.151  11.559  0.00  0.00    +0.000 A 
ATOM      5  N   UNL     1      43.104   4.405  10.477  0.00  0.00    +0.000 NA
ATOM      6  C   UNL     1      44.296   3.761  10.495  0.00  0.00    +0.000 A 
ATOM      7  C   UNL     1      45.198   3.888  11.548  0.00  0.00    +0.000 A 
BRANCH   6   8
ATOM      8  C   UNL     1      44.602   2.879   9.319  0.00  0.00    +0.000 C 
BRANCH   8   9
ATOM      9  C   UNL     1      45.319   3.607   8.215  0.00  0.00    +0.000 C 
ATOM     10  O   UNL     1      45.810   3.049   7.243  0.00  0.00    +0.000 OA
BRANCH   9  11
ATOM     11  O   UNL     1      45.355   4.951   8.371  0.00  0.00    +0.000 OA
ATOM     12  H   UNL     1      44.466   5.364   8.350  0.00  0.00    +0.000 HD
ENDBRANCH   9  11
ENDBRANCH   8   9
ENDBRANCH   6   8
ENDBRANCH   1   2
BRANCH   1  13
ATOM     13  C   UNL     1      46.825   3.691  13.824  0.00  0.00    +0.000 C 
BRANCH  13  18
ATOM     14  C   UNL     1      47.301   4.021  17.427  0.00  0.00    +0.000 A 
ATOM     15  C   UNL     1      48.309   3.134  17.711  0.00  0.00    +0.000 A 
ATOM     16  C   UNL     1      48.801   2.451  16.629  0.00  0.00    +0.000 A 
ATOM     17  N   UNL     1      48.353   2.615  15.374  0.00  0.00    +0.000 NA
ATOM     18  C   UNL     1      47.375   3.514  15.207  0.00  0.00    +0.000 A 
ATOM     19  N   UNL     1      46.813   4.230  16.191  0.00  0.00    +0.000 NA
BRANCH  14  21
ATOM     20  C   UNL     1      47.666   5.709  19.002  0.00  0.00    +0.000 C 
ATOM     21  O   UNL     1      46.767   4.726  18.490  0.00  0.00    +0.000 OA
ENDBRANCH  14  21
BRANCH  16  22
ATOM     22  O   UNL     1      49.814   1.541  16.866  0.00  0.00    +0.000 OA
ATOM     23  C   UNL     1      50.992   2.159  17.384  0.00  0.00    +0.000 C 
ENDBRANCH  16  22
ENDBRANCH  13  18
ENDBRANCH   1  13
TORSDOF 8
ENDMDL
MODEL 5
REMARK VINA RESULT:    -6.450      2.173      3.588
REMARK INTER + INTRA:         -10.236
REMARK INTER:                  -9.598
REMARK INTRA:                  -0.639
REMARK UNBOUND:                -0.958
REMARK  Name = 
REMARK  10 active torsions:
REMARK  status: ('A' for Active; 'I' for Inactive)
REMARK    1  A    between atoms: C_1  and  O_2
REMARK    2  A    between atoms: O_2  and  C_3
REMARK    3  A    between atoms: C_5  and  O_6
REMARK    4  A    between atoms: O_6  and  C_7
REMARK    5  A    between atoms: C_9  and  C_10
REMARK    6  A    between atoms: C_10  and  C_11
REMARK    7  A    between atoms: C_11  and  C_12
REMARK    8  A    between atoms: C_16  and  C_17
REMARK    9  A    between atoms: C_17  and  C_18
REMARK   10  A    between atoms: C_18  and  O_20
REMARK                            x       y       z     vdW  Elec       q    Type
REMARK                         _______ _______ _______ _____ _____    ______ ____
ROOT
ATOM      1  C   UNL     1      45.452   5.870  12.760  0.00  0.00    +0.000 C 
ENDROOT
BRANCH   1   2
ATOM      2  C   UNL     1      44.852   4.825  11.855  0.00  0.00    +0.000 A 
ATOM      3  C   UNL     1      44.138   3.749  12.379  0.00  0.00    +0.000 A 
ATOM      4  C   UNL     1      43.619   2.813  11.500  0.00  0.00    +0.000 A 
ATOM      5  N   UNL     1      43.767   2.876  10.158  0.00  0.00    +0.000 NA
ATOM      6  C   UNL     1      44.501   3.901   9.660  0.00  0.00    +0.000 A 
ATOM      7  C   UNL     1      45.048   4.891  10.472  0.00  0.00    +0.000 A 
BRANCH   6   8
ATOM      8  C   UNL     1      44.717   3.915   8.174  0.00  0.00    +0.000 C 
BRANCH   8   9
ATOM      9  C   UNL     1      46.081   3.422   7.778  0.00  0.00    +0.000 C 
ATOM     10  O   UNL     1      46.448   2.263   7.914  0.00  0.00    +0.000 OA
BRANCH   9  11
ATOM     11  O   UNL     1      46.875   4.370   7.228  0.00  0.00    +0.000 OA
ATOM     12  H   UNL     1      46.417   4.905   6.545  0.00  0.00    +0.000 HD
ENDBRANCH   9  11
ENDBRANCH   8   9
ENDBRANCH   6   8
ENDBRANCH   1   2
BRANCH   1  13
ATOM     13  C   UNL     1      46.968   5.713  12.850  0.00  0.00    +0.000 C 
BRANCH  13  18
ATOM     14  C   UNL     1      47.190   4.275  16.197  0.00  0.00    +0.000 A 
ATOM     15  C   UNL     1      48.174   5.009  16.809  0.00  0.00    +0.000 A 
ATOM     16  C   UNL     1      48.727   5.996  16.034  0.00  0.00    +0.000 A 
ATOM     17  N   UNL     1      48.355   6.250  14.769  0.00  0.00    +0.000 NA
ATOM     18  C   UNL     1      47.378   5.481  14.273  0.00  0.00    +0.000 A 
ATOM     19  N   UNL     1      46.773   4.485  14.936  0.00  0.00    +0.000 NA
BRANCH  14  21
ATOM     20  C   UNL     1      47.502   2.710  17.904  0.00  0.00    +0.000 C 
ATOM     21  O   UNL     1      46.609   3.263  16.938  0.00  0.00    +0.000 OA
ENDBRANCH  14  21
BRANCH  16  22
ATOM     22  O   UNL     1      49.728   6.759  16.605  0.00  0.00    +0.000 OA
ATOM     23  C   UNL     1      50.927   6.014  16.818  0.00  0.00    +0.000 C 
ENDBRANCH  16  22
ENDBRANCH  13  18
ENDBRANCH   1  13
TORSDOF 8
ENDMDL
MODEL 6
REMARK VINA RESULT:    -6.255      2.329      7.058
REMARK INTER + INTRA:          -9.956
REMARK INTER:                  -9.248
REMARK INTRA:                  -0.708
REMARK UNBOUND:                -0.958
REMARK  Name = 
REMARK  10 active torsions:
REMARK  status: ('A' for Active; 'I' for Inactive)
REMARK    1  A    between atoms: C_1  and  O_2
REMARK    2  A    between atoms: O_2  and  C_3
REMARK    3  A    between atoms: C_5  and  O_6
REMARK    4  A    between atoms: O_6  and  C_7
REMARK    5  A    between atoms: C_9  and  C_10
REMARK    6  A    between atoms: C_10  and  C_11
REMARK    7  A    between atoms: C_11  and  C_12
REMARK    8  A    between atoms: C_16  and  C_17
REMARK    9  A    between atoms: C_17  and  C_18
REMARK   10  A    between atoms: C_18  and  O_20
REMARK                            x       y       z     vdW  Elec       q    Type
REMARK                         _______ _______ _______ _____ _____    ______ ____
ROOT
ATOM      1  C   UNL     1      45.468   6.648  12.201  0.00  0.00    +0.000 C 
ENDROOT
BRANCH   1   2
ATOM      2  C   UNL     1      46.496   6.328  13.255  0.00  0.00    +0.000 A 
ATOM      3  C   UNL     1      47.553   7.200  13.513  0.00  0.00    +0.000 A 
ATOM      4  C   UNL     1      48.474   6.849  14.485  0.00  0.00    +0.000 A 
ATOM      5  N   UNL     1      48.415   5.703  15.201  0.00  0.00    +0.000 NA
ATOM      6  C   UNL     1      47.411   4.840  14.912  0.00  0.00    +0.000 A 
ATOM      7  C   UNL     1      46.436   5.121  13.959  0.00  0.00    +0.000 A 
BRANCH   6   8
ATOM      8  C   UNL     1      47.402   3.541  15.665  0.00  0.00    +0.000 C 
BRANCH   8   9
ATOM      9  C   UNL     1      47.562   3.725  17.149  0.00  0.00    +0.000 C 
ATOM     10  O   UNL     1      46.790   4.379  17.837  0.00  0.00    +0.000 OA
BRANCH   9  11
ATOM     11  O   UNL     1      48.631   3.081  17.675  0.00  0.00    +0.000 OA
ATOM     12  H   UNL     1      49.459   3.240  17.174  0.00  0.00    +0.000 HD
ENDBRANCH   9  11
ENDBRANCH   8   9
ENDBRANCH   6   8
ENDBRANCH   1   2
BRANCH   1  13
ATOM     13  C   UNL     1      46.079   6.589  10.804  0.00  0.00    +0.000 C 
BRANCH  13  18
ATOM     14  C   UNL     1      45.556   4.093   8.193  0.00  0.00    +0.000 A 
ATOM     15  C   UNL     1      44.707   3.183   8.770  0.00  0.00    +0.000 A 
ATOM     16  C   UNL     1      44.332   3.474  10.056  0.00  0.00    +0.000 A 
ATOM     17  N   UNL     1      44.748   4.560  10.728  0.00  0.00    +0.000 NA
ATOM     18  C   UNL     1      45.566   5.389  10.068  0.00  0.00    +0.000 A 
ATOM     19  N   UNL     1      46.002   5.199   8.814  0.00  0.00    +0.000 NA
BRANCH  14  21
ATOM     20  C   UNL     1      46.795   2.676   6.807  0.00  0.00    +0.000 C 
ATOM     21  O   UNL     1      45.967   3.835   6.899  0.00  0.00    +0.000 OA
ENDBRANCH  14  21
BRANCH  16  22
ATOM     22  O   UNL     1      43.482   2.583  10.683  0.00  0.00    +0.000 OA
ATOM     23  C   UNL     1      43.451   2.762  12.099  0.00  0.00    +0.000 C 
ENDBRANCH  16  22
ENDBRANCH  13  18
ENDBRANCH   1  13
TORSDOF 8
ENDMDL
MODEL 7
REMARK VINA RESULT:    -6.244      2.376      7.098
REMARK INTER + INTRA:          -9.940
REMARK INTER:                  -9.226
REMARK INTRA:                  -0.714
REMARK UNBOUND:                -0.958
REMARK  Name = 
REMARK  10 active torsions:
REMARK  status: ('A' for Active; 'I' for Inactive)
REMARK    1  A    between atoms: C_1  and  O_2
REMARK    2  A    between atoms: O_2  and  C_3
REMARK    3  A    between atoms: C_5  and  O_6
REMARK    4  A    between atoms: O_6  and  C_7
REMARK    5  A    between atoms: C_9  and  C_10
REMARK    6  A    between atoms: C_10  and  C_11
REMARK    7  A    between atoms: C_11  and  C_12
REMARK    8  A    between atoms: C_16  and  C_17
REMARK    9  A    between atoms: C_17  and  C_18
REMARK   10  A    between atoms: C_18  and  O_20
REMARK                            x       y       z     vdW  Elec       q    Type
REMARK                         _______ _______ _______ _____ _____    ______ ____
ROOT
ATOM      1  C   UNL     1      47.353   6.766  11.526  0.00  0.00    +0.000 C 
ENDROOT
BRANCH   1   2
ATOM      2  C   UNL     1      47.781   6.516  12.949  0.00  0.00    +0.000 A 
ATOM      3  C   UNL     1      48.832   7.235  13.517  0.00  0.00    +0.000 A 
ATOM      4  C   UNL     1      49.189   6.954  14.825  0.00  0.00    +0.000 A 
ATOM      5  N   UNL     1      48.582   6.018  15.588  0.00  0.00    +0.000 NA
ATOM      6  C   UNL     1      47.592   5.293  15.013  0.00  0.00    +0.000 A 
ATOM      7  C   UNL     1      47.162   5.519  13.708  0.00  0.00    +0.000 A 
BRANCH   6   8
ATOM      8  C   UNL     1      46.978   4.208  15.851  0.00  0.00    +0.000 C 
BRANCH   8   9
ATOM      9  C   UNL     1      47.990   3.216  16.354  0.00  0.00    +0.000 C 
ATOM     10  O   UNL     1      48.630   2.472  15.624  0.00  0.00    +0.000 OA
BRANCH   9  11
ATOM     11  O   UNL     1      48.158   3.230  17.697  0.00  0.00    +0.000 OA
ATOM     12  H   UNL     1      47.694   2.494  18.149  0.00  0.00    +0.000 HD
ENDBRANCH   9  11
ENDBRANCH   8   9
ENDBRANCH   6   8
ENDBRANCH   1   2
BRANCH   1  13
ATOM     13  C   UNL     1      45.839   6.638  11.377  0.00  0.00    +0.000 C 
BRANCH  13  18
ATOM     14  C   UNL     1      44.367   3.514  10.198  0.00  0.00    +0.000 A 
ATOM     15  C   UNL     1      44.835   3.390   8.915  0.00  0.00    +0.000 A 
ATOM     16  C   UNL     1      45.664   4.401   8.501  0.00  0.00    +0.000 A 
ATOM     17  N   UNL     1      46.009   5.447   9.269  0.00  0.00    +0.000 NA
ATOM     18  C   UNL     1      45.505   5.464  10.509  0.00  0.00    +0.000 A 
ATOM     19  N   UNL     1      44.680   4.535  11.015  0.00  0.00    +0.000 NA
BRANCH  14  21
ATOM     20  C   UNL     1      43.383   2.531  12.077  0.00  0.00    +0.000 C 
ATOM     21  O   UNL     1      43.521   2.521  10.656  0.00  0.00    +0.000 OA
ENDBRANCH  14  21
BRANCH  16  22
ATOM     22  O   UNL     1      46.157   4.324   7.212  0.00  0.00    +0.000 OA
ATOM     23  C   UNL     1      46.799   3.077   6.947  0.00  0.00    +0.000 C 
ENDBRANCH  16  22
ENDBRANCH  13  18
ENDBRANCH   1  13
TORSDOF 8
ENDMDL
MODEL 8
REMARK VINA RESULT:    -6.199      2.674      4.652
REMARK INTER + INTRA:          -9.875
REMARK INTER:                  -9.188
REMARK INTRA:                  -0.687
REMARK UNBOUND:                -0.958
REMARK  Name = 
REMARK  10 active torsions:
REMARK  status: ('A' for Active; 'I' for Inactive)
REMARK    1  A    between atoms: C_1  and  O_2
REMARK    2  A    between atoms: O_2  and  C_3
REMARK    3  A    between atoms: C_5  and  O_6
REMARK    4  A    between atoms: O_6  and  C_7
REMARK    5  A    between atoms: C_9  and  C_10
REMARK    6  A    between atoms: C_10  and  C_11
REMARK    7  A    between atoms: C_11  and  C_12
REMARK    8  A    between atoms: C_16  and  C_17
REMARK    9  A    between atoms: C_17  and  C_18
REMARK   10  A    between atoms: C_18  and  O_20
REMARK                            x       y       z     vdW  Elec       q    Type
REMARK                         _______ _______ _______ _____ _____    ______ ____
ROOT
ATOM      1  C   UNL     1      46.065   4.942  13.951  0.00  0.00    +0.000 C 
ENDROOT
BRANCH   1   2
ATOM      2  C   UNL     1      45.086   4.892  12.807  0.00  0.00    +0.000 A 
ATOM      3  C   UNL     1      43.735   5.175  13.008  0.00  0.00    +0.000 A 
ATOM      4  C   UNL     1      42.879   5.102  11.922  0.00  0.00    +0.000 A 
ATOM      5  N   UNL     1      43.273   4.767  10.673  0.00  0.00    +0.000 NA
ATOM      6  C   UNL     1      44.578   4.449  10.496  0.00  0.00    +0.000 A 
ATOM      7  C   UNL     1      45.508   4.509  11.531  0.00  0.00    +0.000 A 
BRANCH   6   8
ATOM      8  C   UNL     1      44.984   4.009   9.119  0.00  0.00    +0.000 C 
BRANCH   8   9
ATOM      9  C   UNL     1      45.160   2.519   9.011  0.00  0.00    +0.000 C 
ATOM     10  O   UNL     1      46.035   1.986   8.343  0.00  0.00    +0.000 OA
BRANCH   9  11
ATOM     11  O   UNL     1      44.274   1.803   9.744  0.00  0.00    +0.000 OA
ATOM     12  H   UNL     1      44.418   1.890  10.710  0.00  0.00    +0.000 HD
ENDBRANCH   9  11
ENDBRANCH   8   9
ENDBRANCH   6   8
ENDBRANCH   1   2
BRANCH   1  13
ATOM     13  C   UNL     1      46.887   3.659  14.027  0.00  0.00    +0.000 C 
BRANCH  13  18
ATOM     14  C   UNL     1      48.989   2.482  16.768  0.00  0.00    +0.000 A 
ATOM     15  C   UNL     1      48.708   3.346  17.797  0.00  0.00    +0.000 A 
ATOM     16  C   UNL     1      47.780   4.312  17.504  0.00  0.00    +0.000 A 
ATOM     17  N   UNL     1      47.175   4.431  16.311  0.00  0.00    +0.000 NA
ATOM     18  C   UNL     1      47.515   3.529  15.381  0.00  0.00    +0.000 A 
ATOM     19  N   UNL     1      48.414   2.549  15.555  0.00  0.00    +0.000 NA
BRANCH  14  21
ATOM     20  C   UNL     1      51.199   2.028  17.380  0.00  0.00    +0.000 C 
ATOM     21  O   UNL     1      49.926   1.496  17.016  0.00  0.00    +0.000 OA
ENDBRANCH  14  21
BRANCH  16  22
ATOM     22  O   UNL     1      47.468   5.210  18.506  0.00  0.00    +0.000 OA
ATOM     23  C   UNL     1      48.352   5.111  19.623  0.00  0.00    +0.000 C 
ENDBRANCH  16  22
ENDBRANCH  13  18
ENDBRANCH   1  13
TORSDOF 8
ENDMDL
MODEL 9
REMARK VINA RESULT:    -6.186      2.252      3.058
REMARK INTER + INTRA:          -9.857
REMARK INTER:                  -9.020
REMARK INTRA:                  -0.837
REMARK UNBOUND:                -0.958
REMARK  Name = 
REMARK  10 active torsions:
REMARK  status: ('A' for Active; 'I' for Inactive)
REMARK    1  A    between atoms: C_1  and  O_2
REMARK    2  A    between atoms: O_2  and  C_3
REMARK    3  A    between atoms: C_5  and  O_6
REMARK    4  A    between atoms: O_6  and  C_7
REMARK    5  A    between atoms: C_9  and  C_10
REMARK    6  A    between atoms: C_10  and  C_11
REMARK    7  A    between atoms: C_11  and  C_12
REMARK    8  A    between atoms: C_16  and  C_17
REMARK    9  A    between atoms: C_17  and  C_18
REMARK   10  A    between atoms: C_18  and  O_20
REMARK                            x       y       z     vdW  Elec       q    Type
REMARK                         _______ _______ _______ _____ _____    ______ ____
ROOT
ATOM      1  C   UNL     1      45.684   6.132  12.747  0.00  0.00    +0.000 C 
ENDROOT
BRANCH   1   2
ATOM      2  C   UNL     1      44.964   5.100  11.917  0.00  0.00    +0.000 A 
ATOM      3  C   UNL     1      44.116   4.167  12.513  0.00  0.00    +0.000 A 
ATOM      4  C   UNL     1      43.491   3.235  11.703  0.00  0.00    +0.000 A 
ATOM      5  N   UNL     1      43.654   3.171  10.362  0.00  0.00    +0.000 NA
ATOM      6  C   UNL     1      44.515   4.052   9.797  0.00  0.00    +0.000 A 
ATOM      7  C   UNL     1      45.176   5.030  10.537  0.00  0.00    +0.000 A 
BRANCH   6   8
ATOM      8  C   UNL     1      44.741   3.920   8.319  0.00  0.00    +0.000 C 
BRANCH   8   9
ATOM      9  C   UNL     1      45.819   2.927   7.980  0.00  0.00    +0.000 C 
ATOM     10  O   UNL     1      46.733   3.159   7.201  0.00  0.00    +0.000 OA
BRANCH   9  11
ATOM     11  O   UNL     1      45.711   1.748   8.636  0.00  0.00    +0.000 OA
ATOM     12  H   UNL     1      46.396   1.629   9.327  0.00  0.00    +0.000 HD
ENDBRANCH   9  11
ENDBRANCH   8   9
ENDBRANCH   6   8
ENDBRANCH   1   2
BRANCH   1  13
ATOM     13  C   UNL     1      47.183   5.850  12.795  0.00  0.00    +0.000 C 
BRANCH  13  18
ATOM     14  C   UNL     1      48.928   6.193  15.982  0.00  0.00    +0.000 A 
ATOM     15  C   UNL     1      48.343   5.246  16.784  0.00  0.00    +0.000 A 
ATOM     16  C   UNL     1      47.358   4.506  16.183  0.00  0.00    +0.000 A 
ATOM     17  N   UNL     1      46.973   4.670  14.907  0.00  0.00    +0.000 NA
ATOM     18  C   UNL     1      47.617   5.615  14.210  0.00  0.00    +0.000 A 
ATOM     19  N   UNL     1      48.587   6.401  14.698  0.00  0.00    +0.000 NA
BRANCH  14  21
ATOM     20  C   UNL     1      50.788   7.548  15.575  0.00  0.00    +0.000 C 
ATOM     21  O   UNL     1      49.921   6.970  16.549  0.00  0.00    +0.000 OA
ENDBRANCH  14  21
BRANCH  16  22
ATOM     22  O   UNL     1      46.734   3.543  16.953  0.00  0.00    +0.000 OA
ATOM     23  C   UNL     1      47.660   2.769  17.714  0.00  0.00    +0.000 C 
ENDBRANCH  16  22
ENDBRANCH  13  18
ENDBRANCH   1  13
TORSDOF 8
ENDMDL
