MODEL 1
REMARK VINA RESULT:    -6.816      0.000      0.000
REMARK INTER + INTRA:         -10.212
REMARK INTER:                  -9.207
REMARK INTRA:                  -1.005
REMARK UNBOUND:                -1.005
REMARK  Name = 
REMARK  11 active torsions:
REMARK  status: ('A' for Active; 'I' for Inactive)
REMARK    1  A    between atoms: C_1  and  C_2
REMARK    2  A    between atoms: C_5  and  O_6
REMARK    3  A    between atoms: O_6  and  C_7
REMARK    4  A    between atoms: C_7  and  C_8
REMARK    5  A    between atoms: C_8  and  C_11
REMARK    6  A    between atoms: N_16  and  C_17
REMARK    7  A    between atoms: C_20  and  C_21
REMARK    8  A    between atoms: C_20  and  C_22
REMARK    9  A    between atoms: C_26  and  C_27
REMARK   10  A    between atoms: N_29  and  C_30
REMARK   11  A    between atoms: N_29  and  C_31
REMARK                            x       y       z     vdW  Elec       q    Type
REMARK                         _______ _______ _______ _____ _____    ______ ____
ROOT
ATOM      1  C   UNL     1      47.861   3.397  17.343  0.00  0.00    +0.000 C 
ATOM      2  F   UNL     1      46.950   2.449  17.722  0.00  0.00    +0.000 F 
ATOM      3  F   UNL     1      48.970   2.695  16.959  0.00  0.00    +0.000 F 
ENDROOT
BRANCH   1   4
ATOM      4  C   UNL     1      48.187   4.339  18.494  0.00  0.00    +0.000 A 
ATOM      5  C   UNL     1      48.695   3.895  19.708  0.00  0.00    +0.000 A 
ATOM      6  C   UNL     1      48.942   4.827  20.706  0.00  0.00    +0.000 A 
ATOM      7  N   UNL     1      48.710   6.167  20.583  0.00  0.00    +0.000 NA
ATOM      8  C   UNL     1      48.255   6.614  19.396  0.00  0.00    +0.000 A 
ATOM      9  N   UNL     1      48.012   7.969  19.160  0.00  0.00    +0.000 N 
ATOM     10  C   UNL     1      47.996   5.729  18.341  0.00  0.00    +0.000 A 
ATOM     11  H   UNL     1      48.601   8.314  18.407  0.00  0.00    +0.000 HD
BRANCH   9  12
ATOM     12  C   UNL     1      47.862   8.895  20.285  0.00  0.00    +0.000 C 
ATOM     13  C   UNL     1      49.061   9.794  20.555  0.00  0.00    +0.000 C 
ATOM     14  O   UNL     1      48.730  11.156  20.230  0.00  0.00    +0.000 OA
ATOM     15  C   UNL     1      47.373  11.244  19.780  0.00  0.00    +0.000 C 
ATOM     16  C   UNL     1      47.407  11.719  18.323  0.00  0.00    +0.000 C 
ATOM     17  C   UNL     1      46.632  12.290  20.623  0.00  0.00    +0.000 C 
ATOM     18  C   UNL     1      46.736   9.865  19.955  0.00  0.00    +0.000 C 
ENDBRANCH   9  12
ENDBRANCH   1   4
BRANCH   1  19
ATOM     19  C   UNL     1      47.308   4.150  16.118  0.00  0.00    +0.000 C 
BRANCH  19  20
ATOM     20  O   UNL     1      47.345   3.340  14.915  0.00  0.00    +0.000 OA
BRANCH  20  25
ATOM     21  C   UNL     1      45.123   5.602  10.261  0.00  0.00    +0.000 C 
ATOM     22  C   UNL     1      45.726   5.194  11.568  0.00  0.00    +0.000 A 
ATOM     23  C   UNL     1      45.376   3.911  12.013  0.00  0.00    +0.000 A 
ATOM     24  N   UNL     1      45.863   3.289  13.102  0.00  0.00    +0.000 NA
ATOM     25  C   UNL     1      46.758   3.969  13.833  0.00  0.00    +0.000 A 
ATOM     26  C   UNL     1      47.142   5.269  13.522  0.00  0.00    +0.000 A 
ATOM     27  C   UNL     1      46.619   5.921  12.375  0.00  0.00    +0.000 A 
BRANCH  27  28
ATOM     28  C   UNL     1      47.273   7.252  12.110  0.00  0.00    +0.000 C 
ATOM     29  O   UNL     1      48.478   7.183  11.825  0.00  0.00    +0.000 OA
ATOM     30  N   UNL     1      46.671   8.513  12.227  0.00  0.00    +0.000 N 
ATOM     31  C   UNL     1      45.278   8.815  12.468  0.00  0.00    +0.000 C 
ATOM     32  C   UNL     1      47.513   9.699  12.057  0.00  0.00    +0.000 C 
ENDBRANCH  27  28
ENDBRANCH  20  25
ENDBRANCH  19  20
ENDBRANCH   1  19
TORSDOF 6
ENDMDL
MODEL 2
REMARK VINA RESULT:    -6.807      3.075      6.662
REMARK INTER + INTRA:         -10.200
REMARK INTER:                  -8.651
REMARK INTRA:                  -1.549
REMARK UNBOUND:                -1.005
REMARK  Name = 
REMARK  11 active torsions:
REMARK  status: ('A' for Active; 'I' for Inactive)
REMARK    1  A    between atoms: C_1  and  C_2
REMARK    2  A    between atoms: C_5  and  O_6
REMARK    3  A    between atoms: O_6  and  C_7
REMARK    4  A    between atoms: C_7  and  C_8
REMARK    5  A    between atoms: C_8  and  C_11
REMARK    6  A    between atoms: N_16  and  C_17
REMARK    7  A    between atoms: C_20  and  C_21
REMARK    8  A    between atoms: C_20  and  C_22
REMARK    9  A    between atoms: C_26  and  C_27
REMARK   10  A    between atoms: N_29  and  C_30
REMARK   11  A    between atoms: N_29  and  C_31
REMARK                            x       y       z     vdW  Elec       q    Type
REMARK                         _______ _______ _______ _____ _____    ______ ____
ROOT
ATOM      1  C   UNL     1      48.478   4.662  19.502  0.00  0.00    +0.000 C 
ATOM      2  F   UNL     1      48.491   3.724  20.497  0.00  0.00    +0.000 F 
ATOM      3  F   UNL     1      47.382   5.441  19.757  0.00  0.00    +0.000 F 
ENDROOT
BRANCH   1   4
ATOM      4  C   UNL     1      48.371   4.009  18.130  0.00  0.00    +0.000 A 
ATOM      5  C   UNL     1      49.099   2.881  17.776  0.00  0.00    +0.000 A 
ATOM      6  C   UNL     1      48.951   2.369  16.494  0.00  0.00    +0.000 A 
ATOM      7  N   UNL     1      48.136   2.908  15.540  0.00  0.00    +0.000 NA
ATOM      8  C   UNL     1      47.394   3.978  15.885  0.00  0.00    +0.000 A 
ATOM      9  N   UNL     1      46.511   4.586  14.990  0.00  0.00    +0.000 N 
ATOM     10  C   UNL     1      47.486   4.539  17.165  0.00  0.00    +0.000 A 
ATOM     11  H   UNL     1      45.558   4.541  15.339  0.00  0.00    +0.000 HD
BRANCH   9  12
ATOM     12  C   UNL     1      46.640   4.342  13.551  0.00  0.00    +0.000 C 
ATOM     13  C   UNL     1      45.934   3.096  13.034  0.00  0.00    +0.000 C 
ATOM     14  O   UNL     1      44.816   3.476  12.212  0.00  0.00    +0.000 OA
ATOM     15  C   UNL     1      44.732   4.903  12.117  0.00  0.00    +0.000 C 
ATOM     16  C   UNL     1      43.407   5.323  12.765  0.00  0.00    +0.000 C 
ATOM     17  C   UNL     1      44.708   5.305  10.637  0.00  0.00    +0.000 C 
ATOM     18  C   UNL     1      45.961   5.487  12.813  0.00  0.00    +0.000 C 
ENDBRANCH   9  12
ENDBRANCH   1   4
BRANCH   1  19
ATOM     19  C   UNL     1      49.740   5.535  19.631  0.00  0.00    +0.000 C 
BRANCH  19  20
ATOM     20  O   UNL     1      49.550   6.859  19.070  0.00  0.00    +0.000 OA
BRANCH  20  25
ATOM     21  C   UNL     1      52.738   8.086  14.593  0.00  0.00    +0.000 C 
ATOM     22  C   UNL     1      51.771   7.657  15.651  0.00  0.00    +0.000 A 
ATOM     23  C   UNL     1      52.313   7.521  16.937  0.00  0.00    +0.000 A 
ATOM     24  N   UNL     1      51.629   7.242  18.061  0.00  0.00    +0.000 NA
ATOM     25  C   UNL     1      50.305   7.068  17.932  0.00  0.00    +0.000 A 
ATOM     26  C   UNL     1      49.662   7.125  16.700  0.00  0.00    +0.000 A 
ATOM     27  C   UNL     1      50.392   7.413  15.517  0.00  0.00    +0.000 A 
BRANCH  27  28
ATOM     28  C   UNL     1      49.506   7.596  14.313  0.00  0.00    +0.000 C 
ATOM     29  O   UNL     1      49.226   6.545  13.718  0.00  0.00    +0.000 OA
ATOM     30  N   UNL     1      49.054   8.818  13.791  0.00  0.00    +0.000 N 
ATOM     31  C   UNL     1      49.197  10.137  14.364  0.00  0.00    +0.000 C 
ATOM     32  C   UNL     1      48.311   8.797  12.530  0.00  0.00    +0.000 C 
ENDBRANCH  27  28
ENDBRANCH  20  25
ENDBRANCH  19  20
ENDBRANCH   1  19
TORSDOF 6
ENDMDL
MODEL 3
REMARK VINA RESULT:    -6.793      3.493      8.008
REMARK INTER + INTRA:         -10.180
REMARK INTER:                  -9.062
REMARK INTRA:                  -1.118
REMARK UNBOUND:                -1.005
REMARK  Name = 
REMARK  11 active torsions:
REMARK  status: ('A' for Active; 'I' for Inactive)
REMARK    1  A    between atoms: C_1  and  C_2
REMARK    2  A    between atoms: C_5  and  O_6
REMARK    3  A    between atoms: O_6  and  C_7
REMARK    4  A    between atoms: C_7  and  C_8
REMARK    5  A    between atoms: C_8  and  C_11
REMARK    6  A    between atoms: N_16  and  C_17
REMARK    7  A    between atoms: C_20  and  C_21
REMARK    8  A    between atoms: C_20  and  C_22
REMARK    9  A    between atoms: C_26  and  C_27
REMARK   10  A    between atoms: N_29  and  C_30
REMARK   11  A    between atoms: N_29  and  C_31
REMARK                            x       y       z     vdW  Elec       q    Type
REMARK                         _______ _______ _______ _____ _____    ______ ____
ROOT
ATOM      1  C   UNL     1      45.650   5.369  12.916  0.00  0.00    +0.000 C 
ATOM      2  F   UNL     1      45.610   4.581  11.799  0.00  0.00    +0.000 F 
ATOM      3  F   UNL     1      44.511   5.064  13.611  0.00  0.00    +0.000 F 
ENDROOT
BRANCH   1   4
ATOM      4  C   UNL     1      45.681   6.846  12.548  0.00  0.00    +0.000 A 
ATOM      5  C   UNL     1      46.647   7.720  13.029  0.00  0.00    +0.000 A 
ATOM      6  C   UNL     1      46.581   9.055  12.654  0.00  0.00    +0.000 A 
ATOM      7  N   UNL     1      45.616   9.580  11.844  0.00  0.00    +0.000 NA
ATOM      8  C   UNL     1      44.697   8.734  11.340  0.00  0.00    +0.000 A 
ATOM      9  N   UNL     1      43.685   9.168  10.480  0.00  0.00    +0.000 N 
ATOM     10  C   UNL     1      44.712   7.372  11.667  0.00  0.00    +0.000 A 
ATOM     11  H   UNL     1      43.757   8.706   9.578  0.00  0.00    +0.000 HD
BRANCH   9  12
ATOM     12  C   UNL     1      43.344  10.590  10.406  0.00  0.00    +0.000 C 
ATOM     13  C   UNL     1      42.517  11.002   9.195  0.00  0.00    +0.000 C 
ATOM     14  O   UNL     1      41.191  11.370   9.614  0.00  0.00    +0.000 OA
ATOM     15  C   UNL     1      41.071  11.260  11.038  0.00  0.00    +0.000 C 
ATOM     16  C   UNL     1      40.024  10.176  11.322  0.00  0.00    +0.000 C 
ATOM     17  C   UNL     1      40.568  12.594  11.603  0.00  0.00    +0.000 C 
ATOM     18  C   UNL     1      42.455  10.928  11.595  0.00  0.00    +0.000 C 
ENDBRANCH   9  12
ENDBRANCH   1   4
BRANCH   1  19
ATOM     19  C   UNL     1      46.868   4.958  13.766  0.00  0.00    +0.000 C 
BRANCH  19  20
ATOM     20  O   UNL     1      46.533   3.947  14.750  0.00  0.00    +0.000 OA
BRANCH  20  25
ATOM     21  C   UNL     1      49.118   4.516  19.721  0.00  0.00    +0.000 C 
ATOM     22  C   UNL     1      48.590   4.469  18.321  0.00  0.00    +0.000 A 
ATOM     23  C   UNL     1      47.786   3.360  18.023  0.00  0.00    +0.000 A 
ATOM     24  N   UNL     1      47.124   3.147  16.871  0.00  0.00    +0.000 NA
ATOM     25  C   UNL     1      47.258   4.083  15.919  0.00  0.00    +0.000 A 
ATOM     26  C   UNL     1      48.071   5.200  16.079  0.00  0.00    +0.000 A 
ATOM     27  C   UNL     1      48.772   5.413  17.295  0.00  0.00    +0.000 A 
BRANCH  27  28
ATOM     28  C   UNL     1      49.463   6.751  17.344  0.00  0.00    +0.000 C 
ATOM     29  O   UNL     1      50.567   6.779  16.780  0.00  0.00    +0.000 OA
ATOM     30  N   UNL     1      49.010   7.897  18.013  0.00  0.00    +0.000 N 
ATOM     31  C   UNL     1      47.733   8.105  18.659  0.00  0.00    +0.000 C 
ATOM     32  C   UNL     1      49.893   9.065  18.058  0.00  0.00    +0.000 C 
ENDBRANCH  27  28
ENDBRANCH  20  25
ENDBRANCH  19  20
ENDBRANCH   1  19
TORSDOF 6
ENDMDL
MODEL 4
REMARK VINA RESULT:    -6.678      3.468      8.644
REMARK INTER + INTRA:         -10.025
REMARK INTER:                  -8.434
REMARK INTRA:                  -1.591
REMARK UNBOUND:                -1.005
REMARK  Name = 
REMARK  11 active torsions:
REMARK  status: ('A' for Active; 'I' for Inactive)
REMARK    1  A    between atoms: C_1  and  C_2
REMARK    2  A    between atoms: C_5  and  O_6
REMARK    3  A    between atoms: O_6  and  C_7
REMARK    4  A    between atoms: C_7  and  C_8
REMARK    5  A    between atoms: C_8  and  C_11
REMARK    6  A    between atoms: N_16  and  C_17
REMARK    7  A    between atoms: C_20  and  C_21
REMARK    8  A    between atoms: C_20  and  C_22
REMARK    9  A    between atoms: C_26  and  C_27
REMARK   10  A    between atoms: N_29  and  C_30
REMARK   11  A    between atoms: N_29  and  C_31
REMARK                            x       y       z     vdW  Elec       q    Type
REMARK                         _______ _______ _______ _____ _____    ______ ____
ROOT
ATOM      1  C   UNL     1      50.129   8.838  11.926  0.00  0.00    +0.000 C 
ATOM      2  F   UNL     1      50.314   9.721  10.898  0.00  0.00    +0.000 F 
ATOM      3  F   UNL     1      50.772   7.695  11.537  0.00  0.00    +0.000 F 
ENDROOT
BRANCH   1   4
ATOM      4  C   UNL     1      48.649   8.573  12.165  0.00  0.00    +0.000 A 
ATOM      5  C   UNL     1      47.811   9.491  12.785  0.00  0.00    +0.000 A 
ATOM      6  C   UNL     1      46.480   9.151  12.978  0.00  0.00    +0.000 A 
ATOM      7  N   UNL     1      45.928   7.958  12.606  0.00  0.00    +0.000 NA
ATOM      8  C   UNL     1      46.721   7.077  11.967  0.00  0.00    +0.000 A 
ATOM      9  N   UNL     1      46.246   5.841  11.522  0.00  0.00    +0.000 N 
ATOM     10  C   UNL     1      48.072   7.360  11.729  0.00  0.00    +0.000 A 
ATOM     11  H   UNL     1      46.332   5.765  10.513  0.00  0.00    +0.000 HD
BRANCH   9  12
ATOM     12  C   UNL     1      45.001   5.294  12.067  0.00  0.00    +0.000 C 
ATOM     13  C   UNL     1      43.754   5.551  11.231  0.00  0.00    +0.000 C 
ATOM     14  O   UNL     1      43.288   4.315  10.660  0.00  0.00    +0.000 OA
ATOM     15  C   UNL     1      44.124   3.229  11.076  0.00  0.00    +0.000 C 
ATOM     16  C   UNL     1      44.791   2.662   9.817  0.00  0.00    +0.000 C 
ATOM     17  C   UNL     1      43.251   2.137  11.707  0.00  0.00    +0.000 C 
ATOM     18  C   UNL     1      45.122   3.776  12.097  0.00  0.00    +0.000 C 
ENDBRANCH   9  12
ENDBRANCH   1   4
BRANCH   1  19
ATOM     19  C   UNL     1      50.829   9.391  13.182  0.00  0.00    +0.000 C 
BRANCH  19  20
ATOM     20  O   UNL     1      51.182   8.342  14.118  0.00  0.00    +0.000 OA
BRANCH  20  25
ATOM     21  C   UNL     1      47.803   8.067  18.615  0.00  0.00    +0.000 C 
ATOM     22  C   UNL     1      48.605   7.969  17.356  0.00  0.00    +0.000 A 
ATOM     23  C   UNL     1      49.073   9.190  16.849  0.00  0.00    +0.000 A 
ATOM     24  N   UNL     1      49.889   9.350  15.792  0.00  0.00    +0.000 NA
ATOM     25  C   UNL     1      50.281   8.233  15.160  0.00  0.00    +0.000 A 
ATOM     26  C   UNL     1      49.839   6.969  15.537  0.00  0.00    +0.000 A 
ATOM     27  C   UNL     1      48.972   6.810  16.650  0.00  0.00    +0.000 A 
BRANCH  27  28
ATOM     28  C   UNL     1      48.738   5.365  17.006  0.00  0.00    +0.000 C 
ATOM     29  O   UNL     1      49.385   4.967  17.987  0.00  0.00    +0.000 OA
ATOM     30  N   UNL     1      47.937   4.454  16.302  0.00  0.00    +0.000 N 
ATOM     31  C   UNL     1      47.049   4.721  15.193  0.00  0.00    +0.000 C 
ATOM     32  C   UNL     1      47.944   3.054  16.730  0.00  0.00    +0.000 C 
ENDBRANCH  27  28
ENDBRANCH  20  25
ENDBRANCH  19  20
ENDBRANCH   1  19
TORSDOF 6
ENDMDL
MODEL 5
REMARK VINA RESULT:    -6.630      1.804      2.027
REMARK INTER + INTRA:          -9.961
REMARK INTER:                  -8.788
REMARK INTRA:                  -1.173
REMARK UNBOUND:                -1.005
REMARK  Name = 
REMARK  11 active torsions:
REMARK  status: ('A' for Active; 'I' for Inactive)
REMARK    1  A    between atoms: C_1  and  C_2
REMARK    2  A    between atoms: C_5  and  O_6
REMARK    3  A    between atoms: O_6  and  C_7
REMARK    4  A    between atoms: C_7  and  C_8
REMARK    5  A    between atoms: C_8  and  C_11
REMARK    6  A    between atoms: N_16  and  C_17
REMARK    7  A    between atoms: C_20  and  C_21
REMARK    8  A    between atoms: C_20  and  C_22
REMARK    9  A    between atoms: C_26  and  C_27
REMARK   10  A    between atoms: N_29  and  C_30
REMARK   11  A    between atoms: N_29  and  C_31
REMARK                            x       y       z     vdW  Elec       q    Type
REMARK                         _______ _______ _______ _____ _____    ______ ____
ROOT
ATOM      1  C   UNL     1      48.407   3.121  17.043  0.00  0.00    +0.000 C 
ATOM      2  F   UNL     1      47.781   2.636  18.159  0.00  0.00    +0.000 F 
ATOM      3  F   UNL     1      49.022   2.037  16.478  0.00  0.00    +0.000 F 
ENDROOT
BRANCH   1   4
ATOM      4  C   UNL     1      49.424   4.195  17.404  0.00  0.00    +0.000 A 
ATOM      5  C   UNL     1      50.743   3.903  17.725  0.00  0.00    +0.000 A 
ATOM      6  C   UNL     1      51.592   4.949  18.061  0.00  0.00    +0.000 A 
ATOM      7  N   UNL     1      51.216   6.261  18.109  0.00  0.00    +0.000 NA
ATOM      8  C   UNL     1      49.950   6.559  17.760  0.00  0.00    +0.000 A 
ATOM      9  N   UNL     1      49.476   7.873  17.750  0.00  0.00    +0.000 N 
ATOM     10  C   UNL     1      49.043   5.554  17.399  0.00  0.00    +0.000 A 
ATOM     11  H   UNL     1      49.181   8.142  16.816  0.00  0.00    +0.000 HD
BRANCH   9  12
ATOM     12  C   UNL     1      50.195   8.918  18.482  0.00  0.00    +0.000 C 
ATOM     13  C   UNL     1      50.793  10.024  17.623  0.00  0.00    +0.000 C 
ATOM     14  O   UNL     1      50.084  11.255  17.851  0.00  0.00    +0.000 OA
ATOM     15  C   UNL     1      49.057  11.063  18.832  0.00  0.00    +0.000 C 
ATOM     16  C   UNL     1      47.714  11.319  18.138  0.00  0.00    +0.000 C 
ATOM     17  C   UNL     1      49.238  12.092  19.955  0.00  0.00    +0.000 C 
ATOM     18  C   UNL     1      49.198   9.642  19.378  0.00  0.00    +0.000 C 
ENDBRANCH   9  12
ENDBRANCH   1   4
BRANCH   1  19
ATOM     19  C   UNL     1      47.336   3.642  16.065  0.00  0.00    +0.000 C 
BRANCH  19  20
ATOM     20  O   UNL     1      47.552   3.166  14.712  0.00  0.00    +0.000 OA
BRANCH  20  25
ATOM     21  C   UNL     1      44.511   5.597  10.643  0.00  0.00    +0.000 C 
ATOM     22  C   UNL     1      45.290   5.125  11.830  0.00  0.00    +0.000 A 
ATOM     23  C   UNL     1      45.291   3.738  12.032  0.00  0.00    +0.000 A 
ATOM     24  N   UNL     1      45.992   3.072  12.967  0.00  0.00    +0.000 NA
ATOM     25  C   UNL     1      46.753   3.812  13.788  0.00  0.00    +0.000 A 
ATOM     26  C   UNL     1      46.792   5.200  13.720  0.00  0.00    +0.000 A 
ATOM     27  C   UNL     1      46.044   5.896  12.734  0.00  0.00    +0.000 A 
BRANCH  27  28
ATOM     28  C   UNL     1      46.340   7.372  12.708  0.00  0.00    +0.000 C 
ATOM     29  O   UNL     1      45.409   8.090  13.105  0.00  0.00    +0.000 OA
ATOM     30  N   UNL     1      47.508   7.978  12.221  0.00  0.00    +0.000 N 
ATOM     31  C   UNL     1      48.730   7.336  11.792  0.00  0.00    +0.000 C 
ATOM     32  C   UNL     1      47.552   9.440  12.156  0.00  0.00    +0.000 C 
ENDBRANCH  27  28
ENDBRANCH  20  25
ENDBRANCH  19  20
ENDBRANCH   1  19
TORSDOF 6
ENDMDL
MODEL 6
REMARK VINA RESULT:    -6.557      2.482      7.065
REMARK INTER + INTRA:          -9.862
REMARK INTER:                  -8.385
REMARK INTRA:                  -1.478
REMARK UNBOUND:                -1.005
REMARK  Name = 
REMARK  11 active torsions:
REMARK  status: ('A' for Active; 'I' for Inactive)
REMARK    1  A    between atoms: C_1  and  C_2
REMARK    2  A    between atoms: C_5  and  O_6
REMARK    3  A    between atoms: O_6  and  C_7
REMARK    4  A    between atoms: C_7  and  C_8
REMARK    5  A    between atoms: C_8  and  C_11
REMARK    6  A    between atoms: N_16  and  C_17
REMARK    7  A    between atoms: C_20  and  C_21
REMARK    8  A    between atoms: C_20  and  C_22
REMARK    9  A    between atoms: C_26  and  C_27
REMARK   10  A    between atoms: N_29  and  C_30
REMARK   11  A    between atoms: N_29  and  C_31
REMARK                            x       y       z     vdW  Elec       q    Type
REMARK                         _______ _______ _______ _____ _____    ______ ____
ROOT
ATOM      1  C   UNL     1      48.593   4.683  19.441  0.00  0.00    +0.000 C 
ATOM      2  F   UNL     1      49.848   5.213  19.563  0.00  0.00    +0.000 F 
ATOM      3  F   UNL     1      48.480   3.786  20.468  0.00  0.00    +0.000 F 
ENDROOT
BRANCH   1   4
ATOM      4  C   UNL     1      48.415   3.992  18.095  0.00  0.00    +0.000 A 
ATOM      5  C   UNL     1      49.108   2.841  17.744  0.00  0.00    +0.000 A 
ATOM      6  C   UNL     1      48.895   2.294  16.487  0.00  0.00    +0.000 A 
ATOM      7  N   UNL     1      48.048   2.818  15.553  0.00  0.00    +0.000 NA
ATOM      8  C   UNL     1      47.340   3.912  15.897  0.00  0.00    +0.000 A 
ATOM      9  N   UNL     1      46.428   4.508  15.023  0.00  0.00    +0.000 N 
ATOM     10  C   UNL     1      47.498   4.508  17.155  0.00  0.00    +0.000 A 
ATOM     11  H   UNL     1      45.491   4.491  15.415  0.00  0.00    +0.000 HD
BRANCH   9  12
ATOM     12  C   UNL     1      46.490   4.220  13.589  0.00  0.00    +0.000 C 
ATOM     13  C   UNL     1      45.159   3.872  12.934  0.00  0.00    +0.000 C 
ATOM     14  O   UNL     1      44.763   4.932  12.045  0.00  0.00    +0.000 OA
ATOM     15  C   UNL     1      45.752   5.967  12.034  0.00  0.00    +0.000 C 
ATOM     16  C   UNL     1      45.091   7.233  12.591  0.00  0.00    +0.000 C 
ATOM     17  C   UNL     1      46.184   6.231  10.586  0.00  0.00    +0.000 C 
ATOM     18  C   UNL     1      46.939   5.484  12.868  0.00  0.00    +0.000 C 
ENDBRANCH   9  12
ENDBRANCH   1   4
BRANCH   1  19
ATOM     19  C   UNL     1      47.561   5.807  19.655  0.00  0.00    +0.000 C 
BRANCH  19  20
ATOM     20  O   UNL     1      48.069   6.860  20.513  0.00  0.00    +0.000 OA
BRANCH  20  25
ATOM     21  C   UNL     1      47.435  11.910  18.101  0.00  0.00    +0.000 C 
ATOM     22  C   UNL     1      47.770  10.548  18.622  0.00  0.00    +0.000 A 
ATOM     23  C   UNL     1      47.366  10.296  19.941  0.00  0.00    +0.000 A 
ATOM     24  N   UNL     1      47.468   9.123  20.591  0.00  0.00    +0.000 NA
ATOM     25  C   UNL     1      48.017   8.104  19.913  0.00  0.00    +0.000 A 
ATOM     26  C   UNL     1      48.504   8.247  18.618  0.00  0.00    +0.000 A 
ATOM     27  C   UNL     1      48.400   9.490  17.941  0.00  0.00    +0.000 A 
BRANCH  27  28
ATOM     28  C   UNL     1      48.826   9.408  16.498  0.00  0.00    +0.000 C 
ATOM     29  O   UNL     1      47.919   9.094  15.713  0.00  0.00    +0.000 OA
ATOM     30  N   UNL     1      50.128   9.578  16.005  0.00  0.00    +0.000 N 
ATOM     31  C   UNL     1      51.302  10.017  16.724  0.00  0.00    +0.000 C 
ATOM     32  C   UNL     1      50.366   9.324  14.583  0.00  0.00    +0.000 C 
ENDBRANCH  27  28
ENDBRANCH  20  25
ENDBRANCH  19  20
ENDBRANCH   1  19
TORSDOF 6
ENDMDL
MODEL 7
REMARK VINA RESULT:    -6.454      3.532      7.522
REMARK INTER + INTRA:          -9.723
REMARK INTER:                  -7.977
REMARK INTRA:                  -1.746
REMARK UNBOUND:                -1.005
REMARK  Name = 
REMARK  11 active torsions:
REMARK  status: ('A' for Active; 'I' for Inactive)
REMARK    1  A    between atoms: C_1  and  C_2
REMARK    2  A    between atoms: C_5  and  O_6
REMARK    3  A    between atoms: O_6  and  C_7
REMARK    4  A    between atoms: C_7  and  C_8
REMARK    5  A    between atoms: C_8  and  C_11
REMARK    6  A    between atoms: N_16  and  C_17
REMARK    7  A    between atoms: C_20  and  C_21
REMARK    8  A    between atoms: C_20  and  C_22
REMARK    9  A    between atoms: C_26  and  C_27
REMARK   10  A    between atoms: N_29  and  C_30
REMARK   11  A    between atoms: N_29  and  C_31
REMARK                            x       y       z     vdW  Elec       q    Type
REMARK                         _______ _______ _______ _____ _____    ______ ____
ROOT
ATOM      1  C   UNL     1      45.883   5.423  12.684  0.00  0.00    +0.000 C 
ATOM      2  F   UNL     1      45.610   5.000  11.412  0.00  0.00    +0.000 F 
ATOM      3  F   UNL     1      44.663   5.671  13.250  0.00  0.00    +0.000 F 
ENDROOT
BRANCH   1   4
ATOM      4  C   UNL     1      46.742   6.681  12.673  0.00  0.00    +0.000 A 
ATOM      5  C   UNL     1      46.201   7.960  12.633  0.00  0.00    +0.000 A 
ATOM      6  C   UNL     1      47.065   9.046  12.605  0.00  0.00    +0.000 A 
ATOM      7  N   UNL     1      48.427   8.947  12.605  0.00  0.00    +0.000 NA
ATOM      8  C   UNL     1      48.962   7.713  12.685  0.00  0.00    +0.000 A 
ATOM      9  N   UNL     1      50.343   7.506  12.719  0.00  0.00    +0.000 N 
ATOM     10  C   UNL     1      48.148   6.573  12.728  0.00  0.00    +0.000 A 
ATOM     11  H   UNL     1      50.617   7.049  13.583  0.00  0.00    +0.000 HD
BRANCH   9  12
ATOM     12  C   UNL     1      51.254   8.565  12.278  0.00  0.00    +0.000 C 
ATOM     13  C   UNL     1      52.677   8.467  12.813  0.00  0.00    +0.000 C 
ATOM     14  O   UNL     1      53.578   8.137  11.741  0.00  0.00    +0.000 OA
ATOM     15  C   UNL     1      52.862   8.030  10.505  0.00  0.00    +0.000 C 
ATOM     16  C   UNL     1      52.994   6.578  10.028  0.00  0.00    +0.000 C 
ATOM     17  C   UNL     1      53.514   8.952   9.466  0.00  0.00    +0.000 C 
ATOM     18  C   UNL     1      51.417   8.454  10.768  0.00  0.00    +0.000 C 
ENDBRANCH   9  12
ENDBRANCH   1   4
BRANCH   1  19
ATOM     19  C   UNL     1      46.555   4.270  13.453  0.00  0.00    +0.000 C 
BRANCH  19  20
ATOM     20  O   UNL     1      46.190   4.262  14.857  0.00  0.00    +0.000 OA
BRANCH  20  25
ATOM     21  C   UNL     1      50.408   4.135  18.585  0.00  0.00    +0.000 C 
ATOM     22  C   UNL     1      49.402   4.305  17.491  0.00  0.00    +0.000 A 
ATOM     23  C   UNL     1      48.586   3.190  17.251  0.00  0.00    +0.000 A 
ATOM     24  N   UNL     1      47.553   3.134  16.392  0.00  0.00    +0.000 NA
ATOM     25  C   UNL     1      47.290   4.248  15.692  0.00  0.00    +0.000 A 
ATOM     26  C   UNL     1      48.064   5.398  15.805  0.00  0.00    +0.000 A 
ATOM     27  C   UNL     1      49.156   5.448  16.709  0.00  0.00    +0.000 A 
BRANCH  27  28
ATOM     28  C   UNL     1      49.767   6.821  16.813  0.00  0.00    +0.000 C 
ATOM     29  O   UNL     1      50.490   7.135  15.856  0.00  0.00    +0.000 OA
ATOM     30  N   UNL     1      49.648   7.704  17.896  0.00  0.00    +0.000 N 
ATOM     31  C   UNL     1      48.805   7.573  19.063  0.00  0.00    +0.000 C 
ATOM     32  C   UNL     1      50.431   8.942  17.867  0.00  0.00    +0.000 C 
ENDBRANCH  27  28
ENDBRANCH  20  25
ENDBRANCH  19  20
ENDBRANCH   1  19
TORSDOF 6
ENDMDL
MODEL 8
REMARK VINA RESULT:    -6.166      3.618      6.238
REMARK INTER + INTRA:          -9.334
REMARK INTER:                  -7.790
REMARK INTRA:                  -1.543
REMARK UNBOUND:                -1.005
REMARK  Name = 
REMARK  11 active torsions:
REMARK  status: ('A' for Active; 'I' for Inactive)
REMARK    1  A    between atoms: C_1  and  C_2
REMARK    2  A    between atoms: C_5  and  O_6
REMARK    3  A    between atoms: O_6  and  C_7
REMARK    4  A    between atoms: C_7  and  C_8
REMARK    5  A    between atoms: C_8  and  C_11
REMARK    6  A    between atoms: N_16  and  C_17
REMARK    7  A    between atoms: C_20  and  C_21
REMARK    8  A    between atoms: C_20  and  C_22
REMARK    9  A    between atoms: C_26  and  C_27
REMARK   10  A    between atoms: N_29  and  C_30
REMARK   11  A    between atoms: N_29  and  C_31
REMARK                            x       y       z     vdW  Elec       q    Type
REMARK                         _______ _______ _______ _____ _____    ______ ____
ROOT
ATOM      1  C   UNL     1      45.329   6.536  11.867  0.00  0.00    +0.000 C 
ATOM      2  F   UNL     1      44.023   6.277  11.558  0.00  0.00    +0.000 F 
ATOM      3  F   UNL     1      45.975   6.609  10.663  0.00  0.00    +0.000 F 
ENDROOT
BRANCH   1   4
ATOM      4  C   UNL     1      45.921   5.433  12.734  0.00  0.00    +0.000 A 
ATOM      5  C   UNL     1      45.852   4.089  12.391  0.00  0.00    +0.000 A 
ATOM      6  C   UNL     1      46.402   3.153  13.256  0.00  0.00    +0.000 A 
ATOM      7  N   UNL     1      47.007   3.462  14.441  0.00  0.00    +0.000 NA
ATOM      8  C   UNL     1      47.116   4.765  14.764  0.00  0.00    +0.000 A 
ATOM      9  N   UNL     1      47.741   5.185  15.940  0.00  0.00    +0.000 N 
ATOM     10  C   UNL     1      46.593   5.762  13.931  0.00  0.00    +0.000 A 
ATOM     11  H   UNL     1      48.546   5.768  15.731  0.00  0.00    +0.000 HD
BRANCH   9  12
ATOM     12  C   UNL     1      47.948   4.240  17.040  0.00  0.00    +0.000 C 
ATOM     13  C   UNL     1      49.386   3.784  17.248  0.00  0.00    +0.000 C 
ATOM     14  O   UNL     1      49.896   4.327  18.478  0.00  0.00    +0.000 OA
ATOM     15  C   UNL     1      48.887   5.104  19.134  0.00  0.00    +0.000 C 
ATOM     16  C   UNL     1      49.391   6.551  19.187  0.00  0.00    +0.000 C 
ATOM     17  C   UNL     1      48.711   4.589  20.568  0.00  0.00    +0.000 C 
ATOM     18  C   UNL     1      47.589   4.941  18.343  0.00  0.00    +0.000 C 
ENDBRANCH   9  12
ENDBRANCH   1   4
BRANCH   1  19
ATOM     19  C   UNL     1      45.410   7.915  12.550  0.00  0.00    +0.000 C 
BRANCH  19  20
ATOM     20  O   UNL     1      46.325   8.811  11.870  0.00  0.00    +0.000 OA
BRANCH  20  25
ATOM     21  C   UNL     1      51.402   9.231  14.271  0.00  0.00    +0.000 C 
ATOM     22  C   UNL     1      50.140   8.980  13.508  0.00  0.00    +0.000 A 
ATOM     23  C   UNL     1      48.955   9.176  14.232  0.00  0.00    +0.000 A 
ATOM     24  N   UNL     1      47.705   9.108  13.740  0.00  0.00    +0.000 NA
ATOM     25  C   UNL     1      47.586   8.813  12.437  0.00  0.00    +0.000 A 
ATOM     26  C   UNL     1      48.686   8.545  11.630  0.00  0.00    +0.000 A 
ATOM     27  C   UNL     1      50.002   8.613  12.157  0.00  0.00    +0.000 A 
BRANCH  27  28
ATOM     28  C   UNL     1      51.065   8.457  11.101  0.00  0.00    +0.000 C 
ATOM     29  O   UNL     1      51.298   7.283  10.778  0.00  0.00    +0.000 OA
ATOM     30  N   UNL     1      51.830   9.486  10.533  0.00  0.00    +0.000 N 
ATOM     31  C   UNL     1      51.673  10.913  10.707  0.00  0.00    +0.000 C 
ATOM     32  C   UNL     1      52.912   9.117   9.618  0.00  0.00    +0.000 C 
ENDBRANCH  27  28
ENDBRANCH  20  25
ENDBRANCH  19  20
ENDBRANCH   1  19
TORSDOF 6
ENDMDL
MODEL 9
REMARK VINA RESULT:    -6.117      3.770      8.923
REMARK INTER + INTRA:          -9.267
REMARK INTER:                  -8.214
REMARK INTRA:                  -1.053
REMARK UNBOUND:                -1.005
REMARK  Name = 
REMARK  11 active torsions:
REMARK  status: ('A' for Active; 'I' for Inactive)
REMARK    1  A    between atoms: C_1  and  C_2
REMARK    2  A    between atoms: C_5  and  O_6
REMARK    3  A    between atoms: O_6  and  C_7
REMARK    4  A    between atoms: C_7  and  C_8
REMARK    5  A    between atoms: C_8  and  C_11
REMARK    6  A    between atoms: N_16  and  C_17
REMARK    7  A    between atoms: C_20  and  C_21
REMARK    8  A    between atoms: C_20  and  C_22
REMARK    9  A    between atoms: C_26  and  C_27
REMARK   10  A    between atoms: N_29  and  C_30
REMARK   11  A    between atoms: N_29  and  C_31
REMARK                            x       y       z     vdW  Elec       q    Type
REMARK                         _______ _______ _______ _____ _____    ______ ____
ROOT
ATOM      1  C   UNL     1      49.721   9.364  12.340  0.00  0.00    +0.000 C 
ATOM      2  F   UNL     1      49.914  10.482  13.104  0.00  0.00    +0.000 F 
ATOM      3  F   UNL     1      50.206   9.687  11.102  0.00  0.00    +0.000 F 
ENDROOT
BRANCH   1   4
ATOM      4  C   UNL     1      48.244   8.996  12.264  0.00  0.00    +0.000 A 
ATOM      5  C   UNL     1      47.229   9.937  12.376  0.00  0.00    +0.000 A 
ATOM      6  C   UNL     1      45.912   9.503  12.315  0.00  0.00    +0.000 A 
ATOM      7  N   UNL     1      45.537   8.199  12.160  0.00  0.00    +0.000 NA
ATOM      8  C   UNL     1      46.514   7.284  12.009  0.00  0.00    +0.000 A 
ATOM      9  N   UNL     1      46.234   5.929  11.818  0.00  0.00    +0.000 N 
ATOM     10  C   UNL     1      47.864   7.654  12.049  0.00  0.00    +0.000 A 
ATOM     11  H   UNL     1      46.596   5.610  10.924  0.00  0.00    +0.000 HD
BRANCH   9  12
ATOM     12  C   UNL     1      44.914   5.396  12.162  0.00  0.00    +0.000 C 
ATOM     13  C   UNL     1      43.816   5.662  11.140  0.00  0.00    +0.000 C 
ATOM     14  O   UNL     1      43.433   4.428  10.506  0.00  0.00    +0.000 OA
ATOM     15  C   UNL     1      44.183   3.336  11.049  0.00  0.00    +0.000 C 
ATOM     16  C   UNL     1      45.033   2.758   9.912  0.00  0.00    +0.000 C 
ATOM     17  C   UNL     1      43.211   2.255  11.538  0.00  0.00    +0.000 C 
ATOM     18  C   UNL     1      45.013   3.877  12.214  0.00  0.00    +0.000 C 
ENDBRANCH   9  12
ENDBRANCH   1   4
BRANCH   1  19
ATOM     19  C   UNL     1      50.573   8.219  12.918  0.00  0.00    +0.000 C 
BRANCH  19  20
ATOM     20  O   UNL     1      51.492   8.682  13.940  0.00  0.00    +0.000 OA
BRANCH  20  25
ATOM     21  C   UNL     1      52.395   4.670  17.788  0.00  0.00    +0.000 C 
ATOM     22  C   UNL     1      51.984   5.780  16.872  0.00  0.00    +0.000 A 
ATOM     23  C   UNL     1      53.037   6.439  16.222  0.00  0.00    +0.000 A 
ATOM     24  N   UNL     1      52.915   7.397  15.286  0.00  0.00    +0.000 NA
ATOM     25  C   UNL     1      51.667   7.759  14.954  0.00  0.00    +0.000 A 
ATOM     26  C   UNL     1      50.545   7.215  15.570  0.00  0.00    +0.000 A 
ATOM     27  C   UNL     1      50.681   6.210  16.562  0.00  0.00    +0.000 A 
BRANCH  27  28
ATOM     28  C   UNL     1      49.360   5.627  16.990  0.00  0.00    +0.000 C 
ATOM     29  O   UNL     1      48.838   4.872  16.156  0.00  0.00    +0.000 OA
ATOM     30  N   UNL     1      48.668   5.916  18.176  0.00  0.00    +0.000 N 
ATOM     31  C   UNL     1      49.124   6.697  19.304  0.00  0.00    +0.000 C 
ATOM     32  C   UNL     1      47.329   5.350  18.349  0.00  0.00    +0.000 C 
ENDBRANCH  27  28
ENDBRANCH  20  25
ENDBRANCH  19  20
ENDBRANCH   1  19
TORSDOF 6
ENDMDL
