MODEL 1
REMARK VINA RESULT:    -8.289      0.000      0.000
REMARK INTER + INTRA:         -11.950
REMARK INTER:                 -11.197
REMARK INTRA:                  -0.753
REMARK UNBOUND:                -0.753
REMARK  Name = 
REMARK  7 active torsions:
REMARK  status: ('A' for Active; 'I' for Inactive)
REMARK    1  A    between atoms: C_1  and  C_2
REMARK    2  A    between atoms: C_7  and  C_8
REMARK    3  A    between atoms: C_13  and  C_14
REMARK    4  A    between atoms: C_14  and  C_15
REMARK    5  A    between atoms: C_15  and  O_16
REMARK    6  A    between atoms: O_16  and  C_17
REMARK    7  A    between atoms: C_20  and  C_21
REMARK                            x       y       z     vdW  Elec       q    Type
REMARK                         _______ _______ _______ _____ _____    ______ ____
ROOT
ATOM      1  C   UNL     1      49.727  11.126  14.680  0.00  0.00    +0.000 C 
ATOM      2  C   UNL     1      48.847  10.183  13.869  0.00  0.00    +0.000 C 
ATOM      3  C   UNL     1      49.318   8.718  14.037  0.00  0.00    +0.000 C 
ATOM      4  N   UNL     1      48.587   7.834  13.119  0.00  0.00    +0.000 N 
ATOM      5  C   UNL     1      47.827   6.756  13.518  0.00  0.00    +0.000 A 
ATOM      6  C   UNL     1      48.103   6.083  14.692  0.00  0.00    +0.000 A 
ATOM      7  C   UNL     1      47.307   5.003  15.040  0.00  0.00    +0.000 A 
ATOM      8  N   UNL     1      46.282   4.596  14.255  0.00  0.00    +0.000 NA
ATOM      9  C   UNL     1      46.085   5.277  13.115  0.00  0.00    +0.000 A 
ATOM     10  N   UNL     1      46.817   6.340  12.731  0.00  0.00    +0.000 NA
ATOM     11  C   UNL     1      48.545   8.300  11.727  0.00  0.00    +0.000 C 
ATOM     12  C   UNL     1      48.079   9.760  11.674  0.00  0.00    +0.000 C 
ATOM     13  O   UNL     1      48.910  10.602  12.494  0.00  0.00    +0.000 OA
ENDROOT
BRANCH   7  14
ATOM     14  C   UNL     1      47.598   4.253  16.329  0.00  0.00    +0.000 C 
ATOM     15  F   UNL     1      48.831   4.541  16.851  0.00  0.00    +0.000 F 
ATOM     16  F   UNL     1      46.714   4.541  17.327  0.00  0.00    +0.000 F 
ATOM     17  F   UNL     1      47.578   2.899  16.180  0.00  0.00    +0.000 F 
ENDBRANCH   7  14
BRANCH   9  18
ATOM     18  C   UNL     1      44.939   4.846  12.239  0.00  0.00    +0.000 C 
BRANCH  18  19
ATOM     19  C   UNL     1      44.916   5.677  10.967  0.00  0.00    +0.000 C 
BRANCH  19  20
ATOM     20  O   UNL     1      44.201   4.983   9.928  0.00  0.00    +0.000 OA
BRANCH  20  21
ATOM     21  C   UNL     1      45.025   4.162   9.176  0.00  0.00    +0.000 A 
ATOM     22  N   UNL     1      45.855   4.745   8.276  0.00  0.00    +0.000 NA
ATOM     23  C   UNL     1      46.643   3.931   7.534  0.00  0.00    +0.000 A 
ATOM     24  C   UNL     1      46.652   2.548   7.639  0.00  0.00    +0.000 A 
ATOM     25  C   UNL     1      45.799   1.969   8.584  0.00  0.00    +0.000 A 
ATOM     26  C   UNL     1      44.970   2.781   9.364  0.00  0.00    +0.000 A 
ATOM     27 CL   UNL     1      43.919   2.045  10.510  0.00  0.00    +0.000 Cl
BRANCH  24  28
ATOM     28  C   UNL     1      47.517   1.680   6.802  0.00  0.00    +0.000 C 
ATOM     29  N   UNL     1      48.648   2.205   6.244  0.00  0.00    +0.000 N 
ATOM     30  O   UNL     1      47.219   0.508   6.602  0.00  0.00    +0.000 OA
ATOM     31  H   UNL     1      48.962   3.160   6.305  0.00  0.00    +0.000 HD
ATOM     32  H   UNL     1      49.190   1.580   5.659  0.00  0.00    +0.000 HD
ENDBRANCH  24  28
ENDBRANCH  20  21
ENDBRANCH  19  20
ENDBRANCH  18  19
ENDBRANCH   9  18
TORSDOF 6
ENDMDL
MODEL 2
REMARK VINA RESULT:    -7.331      1.677      2.076
REMARK INTER + INTRA:         -10.655
REMARK INTER:                 -10.303
REMARK INTRA:                  -0.352
REMARK UNBOUND:                -0.753
REMARK  Name = 
REMARK  7 active torsions:
REMARK  status: ('A' for Active; 'I' for Inactive)
REMARK    1  A    between atoms: C_1  and  C_2
REMARK    2  A    between atoms: C_7  and  C_8
REMARK    3  A    between atoms: C_13  and  C_14
REMARK    4  A    between atoms: C_14  and  C_15
REMARK    5  A    between atoms: C_15  and  O_16
REMARK    6  A    between atoms: O_16  and  C_17
REMARK    7  A    between atoms: C_20  and  C_21
REMARK                            x       y       z     vdW  Elec       q    Type
REMARK                         _______ _______ _______ _____ _____    ______ ____
ROOT
ATOM      1  C   UNL     1      49.820  10.195  17.621  0.00  0.00    +0.000 C 
ATOM      2  C   UNL     1      49.125   9.438  16.496  0.00  0.00    +0.000 C 
ATOM      3  C   UNL     1      49.647   7.984  16.414  0.00  0.00    +0.000 C 
ATOM      4  N   UNL     1      49.112   7.311  15.223  0.00  0.00    +0.000 N 
ATOM      5  C   UNL     1      48.363   6.155  15.253  0.00  0.00    +0.000 A 
ATOM      6  C   UNL     1      48.499   5.243  16.281  0.00  0.00    +0.000 A 
ATOM      7  C   UNL     1      47.722   4.095  16.256  0.00  0.00    +0.000 A 
ATOM      8  N   UNL     1      46.850   3.851  15.250  0.00  0.00    +0.000 NA
ATOM      9  C   UNL     1      46.788   4.764  14.269  0.00  0.00    +0.000 A 
ATOM     10  N   UNL     1      47.507   5.903  14.245  0.00  0.00    +0.000 NA
ATOM     11  C   UNL     1      49.252   8.075  13.976  0.00  0.00    +0.000 C 
ATOM     12  C   UNL     1      48.717   9.500  14.168  0.00  0.00    +0.000 C 
ATOM     13  O   UNL     1      49.368  10.155  15.272  0.00  0.00    +0.000 OA
ENDROOT
BRANCH   7  14
ATOM     14  C   UNL     1      47.860   3.083  17.381  0.00  0.00    +0.000 C 
ATOM     15  F   UNL     1      48.739   2.074  17.091  0.00  0.00    +0.000 F 
ATOM     16  F   UNL     1      48.321   3.633  18.541  0.00  0.00    +0.000 F 
ATOM     17  F   UNL     1      46.689   2.461  17.692  0.00  0.00    +0.000 F 
ENDBRANCH   7  14
BRANCH   9  18
ATOM     18  C   UNL     1      45.811   4.515  13.150  0.00  0.00    +0.000 C 
BRANCH  18  19
ATOM     19  C   UNL     1      44.786   5.635  13.096  0.00  0.00    +0.000 C 
BRANCH  19  20
ATOM     20  O   UNL     1      43.872   5.425  12.003  0.00  0.00    +0.000 OA
BRANCH  20  21
ATOM     21  C   UNL     1      44.482   4.834  10.909  0.00  0.00    +0.000 A 
ATOM     22  N   UNL     1      45.296   5.601  10.142  0.00  0.00    +0.000 NA
ATOM     23  C   UNL     1      45.873   5.017   9.065  0.00  0.00    +0.000 A 
ATOM     24  C   UNL     1      45.683   3.691   8.703  0.00  0.00    +0.000 A 
ATOM     25  C   UNL     1      44.851   2.915   9.518  0.00  0.00    +0.000 A 
ATOM     26  C   UNL     1      44.238   3.488  10.634  0.00  0.00    +0.000 A 
ATOM     27 CL   UNL     1      43.208   2.517  11.613  0.00  0.00    +0.000 Cl
BRANCH  24  28
ATOM     28  C   UNL     1      46.317   3.081   7.509  0.00  0.00    +0.000 C 
ATOM     29  N   UNL     1      46.819   3.893   6.532  0.00  0.00    +0.000 N 
ATOM     30  O   UNL     1      46.385   1.863   7.390  0.00  0.00    +0.000 OA
ATOM     31  H   UNL     1      46.777   4.900   6.506  0.00  0.00    +0.000 HD
ATOM     32  H   UNL     1      47.217   3.430   5.724  0.00  0.00    +0.000 HD
ENDBRANCH  24  28
ENDBRANCH  20  21
ENDBRANCH  19  20
ENDBRANCH  18  19
ENDBRANCH   9  18
TORSDOF 6
ENDMDL
MODEL 3
REMARK VINA RESULT:    -7.175      3.719      4.485
REMARK INTER + INTRA:         -10.444
REMARK INTER:                  -9.731
REMARK INTRA:                  -0.714
REMARK UNBOUND:                -0.753
REMARK  Name = 
REMARK  7 active torsions:
REMARK  status: ('A' for Active; 'I' for Inactive)
REMARK    1  A    between atoms: C_1  and  C_2
REMARK    2  A    between atoms: C_7  and  C_8
REMARK    3  A    between atoms: C_13  and  C_14
REMARK    4  A    between atoms: C_14  and  C_15
REMARK    5  A    between atoms: C_15  and  O_16
REMARK    6  A    between atoms: O_16  and  C_17
REMARK    7  A    between atoms: C_20  and  C_21
REMARK                            x       y       z     vdW  Elec       q    Type
REMARK                         _______ _______ _______ _____ _____    ______ ____
ROOT
ATOM      1  C   UNL     1      51.078  10.213  11.042  0.00  0.00    +0.000 C 
ATOM      2  C   UNL     1      50.036   9.190  11.476  0.00  0.00    +0.000 C 
ATOM      3  C   UNL     1      48.766   9.898  12.007  0.00  0.00    +0.000 C 
ATOM      4  N   UNL     1      47.838   8.920  12.589  0.00  0.00    +0.000 N 
ATOM      5  C   UNL     1      46.540   8.731  12.165  0.00  0.00    +0.000 A 
ATOM      6  C   UNL     1      45.828   9.754  11.571  0.00  0.00    +0.000 A 
ATOM      7  C   UNL     1      44.524   9.507  11.169  0.00  0.00    +0.000 A 
ATOM      8  N   UNL     1      43.942   8.299  11.352  0.00  0.00    +0.000 NA
ATOM      9  C   UNL     1      44.681   7.358  11.960  0.00  0.00    +0.000 A 
ATOM     10  N   UNL     1      45.955   7.535  12.362  0.00  0.00    +0.000 NA
ATOM     11  C   UNL     1      48.453   7.985  13.541  0.00  0.00    +0.000 C 
ATOM     12  C   UNL     1      49.704   7.350  12.922  0.00  0.00    +0.000 C 
ATOM     13  O   UNL     1      50.636   8.356  12.483  0.00  0.00    +0.000 OA
ENDROOT
BRANCH   7  14
ATOM     14  C   UNL     1      43.728  10.623  10.513  0.00  0.00    +0.000 C 
ATOM     15  F   UNL     1      44.515  11.634  10.032  0.00  0.00    +0.000 F 
ATOM     16  F   UNL     1      42.998  10.200   9.441  0.00  0.00    +0.000 F 
ATOM     17  F   UNL     1      42.847  11.225  11.361  0.00  0.00    +0.000 F 
ENDBRANCH   7  14
BRANCH   9  18
ATOM     18  C   UNL     1      44.053   6.004  12.158  0.00  0.00    +0.000 C 
BRANCH  18  19
ATOM     19  C   UNL     1      44.803   4.960  11.347  0.00  0.00    +0.000 C 
BRANCH  19  20
ATOM     20  O   UNL     1      44.240   4.852  10.026  0.00  0.00    +0.000 OA
BRANCH  20  21
ATOM     21  C   UNL     1      45.076   4.182   9.148  0.00  0.00    +0.000 A 
ATOM     22  N   UNL     1      45.882   4.921   8.347  0.00  0.00    +0.000 NA
ATOM     23  C   UNL     1      46.682   4.256   7.479  0.00  0.00    +0.000 A 
ATOM     24  C   UNL     1      46.726   2.874   7.364  0.00  0.00    +0.000 A 
ATOM     25  C   UNL     1      45.897   2.131   8.212  0.00  0.00    +0.000 A 
ATOM     26  C   UNL     1      45.057   2.788   9.115  0.00  0.00    +0.000 A 
ATOM     27 CL   UNL     1      44.036   1.853  10.137  0.00  0.00    +0.000 Cl
BRANCH  24  28
ATOM     28  C   UNL     1      47.602   2.172   6.395  0.00  0.00    +0.000 C 
ATOM     29  N   UNL     1      48.139   2.873   5.353  0.00  0.00    +0.000 N 
ATOM     30  O   UNL     1      47.838   0.976   6.518  0.00  0.00    +0.000 OA
ATOM     31  H   UNL     1      47.977   3.842   5.131  0.00  0.00    +0.000 HD
ATOM     32  H   UNL     1      48.708   2.344   4.703  0.00  0.00    +0.000 HD
ENDBRANCH  24  28
ENDBRANCH  20  21
ENDBRANCH  19  20
ENDBRANCH  18  19
ENDBRANCH   9  18
TORSDOF 6
ENDMDL
MODEL 4
REMARK VINA RESULT:    -6.921      4.759      7.321
REMARK INTER + INTRA:         -10.101
REMARK INTER:                  -9.620
REMARK INTRA:                  -0.481
REMARK UNBOUND:                -0.753
REMARK  Name = 
REMARK  7 active torsions:
REMARK  status: ('A' for Active; 'I' for Inactive)
REMARK    1  A    between atoms: C_1  and  C_2
REMARK    2  A    between atoms: C_7  and  C_8
REMARK    3  A    between atoms: C_13  and  C_14
REMARK    4  A    between atoms: C_14  and  C_15
REMARK    5  A    between atoms: C_15  and  O_16
REMARK    6  A    between atoms: O_16  and  C_17
REMARK    7  A    between atoms: C_20  and  C_21
REMARK                            x       y       z     vdW  Elec       q    Type
REMARK                         _______ _______ _______ _____ _____    ______ ____
ROOT
ATOM      1  C   UNL     1      47.403  11.308  10.794  0.00  0.00    +0.000 C 
ATOM      2  C   UNL     1      47.591  10.085  11.684  0.00  0.00    +0.000 C 
ATOM      3  C   UNL     1      46.221   9.480  12.075  0.00  0.00    +0.000 C 
ATOM      4  N   UNL     1      46.395   8.416  13.073  0.00  0.00    +0.000 N 
ATOM      5  C   UNL     1      45.981   7.114  12.901  0.00  0.00    +0.000 A 
ATOM      6  C   UNL     1      44.922   6.805  12.071  0.00  0.00    +0.000 A 
ATOM      7  C   UNL     1      44.547   5.476  11.941  0.00  0.00    +0.000 A 
ATOM      8  N   UNL     1      45.187   4.490  12.610  0.00  0.00    +0.000 NA
ATOM      9  C   UNL     1      46.190   4.862  13.422  0.00  0.00    +0.000 A 
ATOM     10  N   UNL     1      46.607   6.133  13.580  0.00  0.00    +0.000 NA
ATOM     11  C   UNL     1      47.242   8.784  14.216  0.00  0.00    +0.000 C 
ATOM     12  C   UNL     1      48.565   9.381  13.720  0.00  0.00    +0.000 C 
ATOM     13  O   UNL     1      48.335  10.500  12.845  0.00  0.00    +0.000 OA
ENDROOT
BRANCH   7  14
ATOM     14  C   UNL     1      43.384   5.121  11.030  0.00  0.00    +0.000 C 
ATOM     15  F   UNL     1      43.762   4.914   9.730  0.00  0.00    +0.000 F 
ATOM     16  F   UNL     1      42.745   3.974  11.401  0.00  0.00    +0.000 F 
ATOM     17  F   UNL     1      42.428   6.090  10.975  0.00  0.00    +0.000 F 
ENDBRANCH   7  14
BRANCH   9  18
ATOM     18  C   UNL     1      46.922   3.775  14.162  0.00  0.00    +0.000 C 
BRANCH  18  19
ATOM     19  C   UNL     1      47.272   4.245  15.564  0.00  0.00    +0.000 C 
BRANCH  19  20
ATOM     20  O   UNL     1      47.399   3.119  16.454  0.00  0.00    +0.000 OA
BRANCH  20  21
ATOM     21  C   UNL     1      48.713   2.889  16.830  0.00  0.00    +0.000 A 
ATOM     22  N   UNL     1      49.363   1.842  16.266  0.00  0.00    +0.000 NA
ATOM     23  C   UNL     1      50.640   1.616  16.656  0.00  0.00    +0.000 A 
ATOM     24  C   UNL     1      51.318   2.387  17.589  0.00  0.00    +0.000 A 
ATOM     25  C   UNL     1      50.632   3.472  18.146  0.00  0.00    +0.000 A 
ATOM     26  C   UNL     1      49.312   3.730  17.768  0.00  0.00    +0.000 A 
ATOM     27 CL   UNL     1      48.485   5.062  18.478  0.00  0.00    +0.000 Cl
BRANCH  24  28
ATOM     28  C   UNL     1      52.713   2.107  18.007  0.00  0.00    +0.000 C 
ATOM     29  N   UNL     1      53.670   3.064  17.820  0.00  0.00    +0.000 N 
ATOM     30  O   UNL     1      53.011   1.029  18.508  0.00  0.00    +0.000 OA
ATOM     31  H   UNL     1      53.546   3.961  17.380  0.00  0.00    +0.000 HD
ATOM     32  H   UNL     1      54.612   2.815  18.096  0.00  0.00    +0.000 HD
ENDBRANCH  24  28
ENDBRANCH  20  21
ENDBRANCH  19  20
ENDBRANCH  18  19
ENDBRANCH   9  18
TORSDOF 6
ENDMDL
MODEL 5
REMARK VINA RESULT:    -6.853      4.099      6.032
REMARK INTER + INTRA:         -10.009
REMARK INTER:                  -9.032
REMARK INTRA:                  -0.978
REMARK UNBOUND:                -0.753
REMARK  Name = 
REMARK  7 active torsions:
REMARK  status: ('A' for Active; 'I' for Inactive)
REMARK    1  A    between atoms: C_1  and  C_2
REMARK    2  A    between atoms: C_7  and  C_8
REMARK    3  A    between atoms: C_13  and  C_14
REMARK    4  A    between atoms: C_14  and  C_15
REMARK    5  A    between atoms: C_15  and  O_16
REMARK    6  A    between atoms: O_16  and  C_17
REMARK    7  A    between atoms: C_20  and  C_21
REMARK                            x       y       z     vdW  Elec       q    Type
REMARK                         _______ _______ _______ _____ _____    ______ ____
ROOT
ATOM      1  C   UNL     1      54.457   4.830  20.655  0.00  0.00    +0.000 C 
ATOM      2  C   UNL     1      53.726   5.577  19.546  0.00  0.00    +0.000 C 
ATOM      3  C   UNL     1      52.992   4.585  18.613  0.00  0.00    +0.000 C 
ATOM      4  N   UNL     1      52.440   5.288  17.447  0.00  0.00    +0.000 N 
ATOM      5  C   UNL     1      51.105   5.298  17.106  0.00  0.00    +0.000 A 
ATOM      6  C   UNL     1      50.269   4.258  17.462  0.00  0.00    +0.000 A 
ATOM      7  C   UNL     1      48.936   4.321  17.087  0.00  0.00    +0.000 A 
ATOM      8  N   UNL     1      48.447   5.366  16.380  0.00  0.00    +0.000 NA
ATOM      9  C   UNL     1      49.319   6.329  16.043  0.00  0.00    +0.000 A 
ATOM     10  N   UNL     1      50.620   6.329  16.389  0.00  0.00    +0.000 NA
ATOM     11  C   UNL     1      53.390   6.174  16.761  0.00  0.00    +0.000 C 
ATOM     12  C   UNL     1      54.068   7.104  17.775  0.00  0.00    +0.000 C 
ATOM     13  O   UNL     1      54.701   6.355  18.828  0.00  0.00    +0.000 OA
ENDROOT
BRANCH   7  14
ATOM     14  C   UNL     1      48.004   3.184  17.472  0.00  0.00    +0.000 C 
ATOM     15  F   UNL     1      48.136   2.801  18.780  0.00  0.00    +0.000 F 
ATOM     16  F   UNL     1      46.685   3.500  17.326  0.00  0.00    +0.000 F 
ATOM     17  F   UNL     1      48.208   2.051  16.743  0.00  0.00    +0.000 F 
ENDBRANCH   7  14
BRANCH   9  18
ATOM     18  C   UNL     1      48.786   7.506  15.270  0.00  0.00    +0.000 C 
BRANCH  18  19
ATOM     19  C   UNL     1      49.028   7.304  13.783  0.00  0.00    +0.000 C 
BRANCH  19  20
ATOM     20  O   UNL     1      48.577   5.998  13.375  0.00  0.00    +0.000 OA
BRANCH  20  21
ATOM     21  C   UNL     1      47.275   6.011  12.903  0.00  0.00    +0.000 A 
ATOM     22  N   UNL     1      46.845   7.121  12.254  0.00  0.00    +0.000 NA
ATOM     23  C   UNL     1      45.564   7.130  11.812  0.00  0.00    +0.000 A 
ATOM     24  C   UNL     1      44.675   6.079  11.981  0.00  0.00    +0.000 A 
ATOM     25  C   UNL     1      45.146   4.937  12.640  0.00  0.00    +0.000 A 
ATOM     26  C   UNL     1      46.461   4.898  13.111  0.00  0.00    +0.000 A 
ATOM     27 CL   UNL     1      47.013   3.489  13.931  0.00  0.00    +0.000 Cl
BRANCH  24  28
ATOM     28  C   UNL     1      43.273   6.121  11.499  0.00  0.00    +0.000 C 
ATOM     29  N   UNL     1      42.722   7.323  11.157  0.00  0.00    +0.000 N 
ATOM     30  O   UNL     1      42.609   5.095  11.415  0.00  0.00    +0.000 OA
ATOM     31  H   UNL     1      43.159   8.228  11.229  0.00  0.00    +0.000 HD
ATOM     32  H   UNL     1      41.754   7.304  10.860  0.00  0.00    +0.000 HD
ENDBRANCH  24  28
ENDBRANCH  20  21
ENDBRANCH  19  20
ENDBRANCH  18  19
ENDBRANCH   9  18
TORSDOF 6
ENDMDL
MODEL 6
REMARK VINA RESULT:    -6.704      4.154      8.800
REMARK INTER + INTRA:          -9.808
REMARK INTER:                  -8.621
REMARK INTRA:                  -1.187
REMARK UNBOUND:                -0.753
REMARK  Name = 
REMARK  7 active torsions:
REMARK  status: ('A' for Active; 'I' for Inactive)
REMARK    1  A    between atoms: C_1  and  C_2
REMARK    2  A    between atoms: C_7  and  C_8
REMARK    3  A    between atoms: C_13  and  C_14
REMARK    4  A    between atoms: C_14  and  C_15
REMARK    5  A    between atoms: C_15  and  O_16
REMARK    6  A    between atoms: O_16  and  C_17
REMARK    7  A    between atoms: C_20  and  C_21
REMARK                            x       y       z     vdW  Elec       q    Type
REMARK                         _______ _______ _______ _____ _____    ______ ____
ROOT
ATOM      1  C   UNL     1      44.038   2.788  10.684  0.00  0.00    +0.000 C 
ATOM      2  C   UNL     1      44.935   3.926  11.153  0.00  0.00    +0.000 C 
ATOM      3  C   UNL     1      44.838   4.098  12.688  0.00  0.00    +0.000 C 
ATOM      4  N   UNL     1      45.560   5.304  13.117  0.00  0.00    +0.000 N 
ATOM      5  C   UNL     1      46.600   5.308  14.021  0.00  0.00    +0.000 A 
ATOM      6  C   UNL     1      46.705   4.332  14.992  0.00  0.00    +0.000 A 
ATOM      7  C   UNL     1      47.771   4.390  15.877  0.00  0.00    +0.000 A 
ATOM      8  N   UNL     1      48.693   5.377  15.812  0.00  0.00    +0.000 NA
ATOM      9  C   UNL     1      48.517   6.309  14.862  0.00  0.00    +0.000 A 
ATOM     10  N   UNL     1      47.510   6.299  13.968  0.00  0.00    +0.000 NA
ATOM     11  C   UNL     1      45.235   6.515  12.351  0.00  0.00    +0.000 C 
ATOM     12  C   UNL     1      45.350   6.233  10.848  0.00  0.00    +0.000 C 
ATOM     13  O   UNL     1      44.523   5.120  10.462  0.00  0.00    +0.000 OA
ENDROOT
BRANCH   7  14
ATOM     14  C   UNL     1      47.900   3.322  16.951  0.00  0.00    +0.000 C 
ATOM     15  F   UNL     1      48.578   3.754  18.059  0.00  0.00    +0.000 F 
ATOM     16  F   UNL     1      46.695   2.887  17.419  0.00  0.00    +0.000 F 
ATOM     17  F   UNL     1      48.569   2.213  16.530  0.00  0.00    +0.000 F 
ENDBRANCH   7  14
BRANCH   9  18
ATOM     18  C   UNL     1      49.543   7.406  14.768  0.00  0.00    +0.000 C 
BRANCH  18  19
ATOM     19  C   UNL     1      50.604   7.220  15.840  0.00  0.00    +0.000 C 
BRANCH  19  20
ATOM     20  O   UNL     1      50.525   8.280  16.812  0.00  0.00    +0.000 OA
BRANCH  20  21
ATOM     21  C   UNL     1      49.770   7.928  17.919  0.00  0.00    +0.000 A 
ATOM     22  N   UNL     1      50.213   6.908  18.694  0.00  0.00    +0.000 NA
ATOM     23  C   UNL     1      49.457   6.561  19.763  0.00  0.00    +0.000 A 
ATOM     24  C   UNL     1      48.267   7.184  20.110  0.00  0.00    +0.000 A 
ATOM     25  C   UNL     1      47.837   8.244  19.304  0.00  0.00    +0.000 A 
ATOM     26  C   UNL     1      48.592   8.624  18.192  0.00  0.00    +0.000 A 
ATOM     27 CL   UNL     1      48.036   9.922  17.208  0.00  0.00    +0.000 Cl
BRANCH  24  28
ATOM     28  C   UNL     1      47.451   6.773  21.279  0.00  0.00    +0.000 C 
ATOM     29  N   UNL     1      47.194   5.447  21.479  0.00  0.00    +0.000 N 
ATOM     30  O   UNL     1      47.005   7.610  22.054  0.00  0.00    +0.000 OA
ATOM     31  H   UNL     1      47.471   4.683  20.885  0.00  0.00    +0.000 HD
ATOM     32  H   UNL     1      46.610   5.220  22.275  0.00  0.00    +0.000 HD
ENDBRANCH  24  28
ENDBRANCH  20  21
ENDBRANCH  19  20
ENDBRANCH  18  19
ENDBRANCH   9  18
TORSDOF 6
ENDMDL
MODEL 7
REMARK VINA RESULT:    -6.681      5.211      7.883
REMARK INTER + INTRA:          -9.777
REMARK INTER:                  -8.856
REMARK INTRA:                  -0.921
REMARK UNBOUND:                -0.753
REMARK  Name = 
REMARK  7 active torsions:
REMARK  status: ('A' for Active; 'I' for Inactive)
REMARK    1  A    between atoms: C_1  and  C_2
REMARK    2  A    between atoms: C_7  and  C_8
REMARK    3  A    between atoms: C_13  and  C_14
REMARK    4  A    between atoms: C_14  and  C_15
REMARK    5  A    between atoms: C_15  and  O_16
REMARK    6  A    between atoms: O_16  and  C_17
REMARK    7  A    between atoms: C_20  and  C_21
REMARK                            x       y       z     vdW  Elec       q    Type
REMARK                         _______ _______ _______ _____ _____    ______ ____
ROOT
ATOM      1  C   UNL     1      51.208   8.534  11.443  0.00  0.00    +0.000 C 
ATOM      2  C   UNL     1      50.777   7.947  12.781  0.00  0.00    +0.000 C 
ATOM      3  C   UNL     1      49.235   7.831  12.853  0.00  0.00    +0.000 C 
ATOM      4  N   UNL     1      48.812   7.436  14.203  0.00  0.00    +0.000 N 
ATOM      5  C   UNL     1      48.075   6.307  14.488  0.00  0.00    +0.000 A 
ATOM      6  C   UNL     1      47.220   5.758  13.552  0.00  0.00    +0.000 A 
ATOM      7  C   UNL     1      46.500   4.624  13.897  0.00  0.00    +0.000 A 
ATOM      8  N   UNL     1      46.612   4.058  15.121  0.00  0.00    +0.000 NA
ATOM      9  C   UNL     1      47.439   4.658  15.992  0.00  0.00    +0.000 A 
ATOM     10  N   UNL     1      48.173   5.752  15.711  0.00  0.00    +0.000 NA
ATOM     11  C   UNL     1      49.411   8.227  15.287  0.00  0.00    +0.000 C 
ATOM     12  C   UNL     1      50.933   8.288  15.115  0.00  0.00    +0.000 C 
ATOM     13  O   UNL     1      51.290   8.802  13.818  0.00  0.00    +0.000 OA
ENDROOT
BRANCH   7  14
ATOM     14  C   UNL     1      45.557   4.008  12.877  0.00  0.00    +0.000 C 
ATOM     15  F   UNL     1      45.600   4.632  11.659  0.00  0.00    +0.000 F 
ATOM     16  F   UNL     1      45.833   2.698  12.616  0.00  0.00    +0.000 F 
ATOM     17  F   UNL     1      44.249   4.054  13.258  0.00  0.00    +0.000 F 
ENDBRANCH   7  14
BRANCH   9  18
ATOM     18  C   UNL     1      47.586   4.031  17.352  0.00  0.00    +0.000 C 
BRANCH  18  19
ATOM     19  C   UNL     1      48.306   2.698  17.236  0.00  0.00    +0.000 C 
BRANCH  19  20
ATOM     20  O   UNL     1      49.446   2.819  16.364  0.00  0.00    +0.000 OA
BRANCH  20  21
ATOM     21  C   UNL     1      50.637   2.521  17.006  0.00  0.00    +0.000 A 
ATOM     22  N   UNL     1      50.985   1.216  17.129  0.00  0.00    +0.000 NA
ATOM     23  C   UNL     1      52.142   0.936  17.775  0.00  0.00    +0.000 A 
ATOM     24  C   UNL     1      52.987   1.897  18.311  0.00  0.00    +0.000 A 
ATOM     25  C   UNL     1      52.616   3.238  18.158  0.00  0.00    +0.000 A 
ATOM     26  C   UNL     1      51.426   3.560  17.500  0.00  0.00    +0.000 A 
ATOM     27 CL   UNL     1      50.983   5.215  17.337  0.00  0.00    +0.000 Cl
BRANCH  24  28
ATOM     28  C   UNL     1      54.242   1.560  19.026  0.00  0.00    +0.000 C 
ATOM     29  N   UNL     1      55.101   2.564  19.374  0.00  0.00    +0.000 N 
ATOM     30  O   UNL     1      54.515   0.397  19.297  0.00  0.00    +0.000 OA
ATOM     31  H   UNL     1      54.999   3.544  19.163  0.00  0.00    +0.000 HD
ATOM     32  H   UNL     1      55.957   2.281  19.836  0.00  0.00    +0.000 HD
ENDBRANCH  24  28
ENDBRANCH  20  21
ENDBRANCH  19  20
ENDBRANCH  18  19
ENDBRANCH   9  18
TORSDOF 6
ENDMDL
MODEL 8
REMARK VINA RESULT:    -6.582      3.215      7.081
REMARK INTER + INTRA:          -9.644
REMARK INTER:                  -8.764
REMARK INTRA:                  -0.880
REMARK UNBOUND:                -0.753
REMARK  Name = 
REMARK  7 active torsions:
REMARK  status: ('A' for Active; 'I' for Inactive)
REMARK    1  A    between atoms: C_1  and  C_2
REMARK    2  A    between atoms: C_7  and  C_8
REMARK    3  A    between atoms: C_13  and  C_14
REMARK    4  A    between atoms: C_14  and  C_15
REMARK    5  A    between atoms: C_15  and  O_16
REMARK    6  A    between atoms: O_16  and  C_17
REMARK    7  A    between atoms: C_20  and  C_21
REMARK                            x       y       z     vdW  Elec       q    Type
REMARK                         _______ _______ _______ _____ _____    ______ ____
ROOT
ATOM      1  C   UNL     1      44.361   2.067   9.906  0.00  0.00    +0.000 C 
ATOM      2  C   UNL     1      45.128   3.337  10.254  0.00  0.00    +0.000 C 
ATOM      3  C   UNL     1      44.900   3.722  11.736  0.00  0.00    +0.000 C 
ATOM      4  N   UNL     1      45.490   5.037  12.021  0.00  0.00    +0.000 N 
ATOM      5  C   UNL     1      46.454   5.265  12.980  0.00  0.00    +0.000 A 
ATOM      6  C   UNL     1      46.559   4.455  14.093  0.00  0.00    +0.000 A 
ATOM      7  C   UNL     1      47.545   4.736  15.026  0.00  0.00    +0.000 A 
ATOM      8  N   UNL     1      48.391   5.781  14.871  0.00  0.00    +0.000 NA
ATOM      9  C   UNL     1      48.216   6.544  13.781  0.00  0.00    +0.000 A 
ATOM     10  N   UNL     1      47.285   6.314  12.835  0.00  0.00    +0.000 NA
ATOM     11  C   UNL     1      45.132   6.089  11.061  0.00  0.00    +0.000 C 
ATOM     12  C   UNL     1      45.383   5.602   9.629  0.00  0.00    +0.000 C 
ATOM     13  O   UNL     1      44.679   4.375   9.364  0.00  0.00    +0.000 OA
ENDROOT
BRANCH   7  14
ATOM     14  C   UNL     1      47.674   3.852  16.256  0.00  0.00    +0.000 C 
ATOM     15  F   UNL     1      48.626   4.292  17.136  0.00  0.00    +0.000 F 
ATOM     16  F   UNL     1      46.523   3.779  16.984  0.00  0.00    +0.000 F 
ATOM     17  F   UNL     1      48.022   2.568  15.962  0.00  0.00    +0.000 F 
ENDBRANCH   7  14
BRANCH   9  18
ATOM     18  C   UNL     1      49.158   7.702  13.587  0.00  0.00    +0.000 C 
BRANCH  18  19
ATOM     19  C   UNL     1      48.807   8.450  12.312  0.00  0.00    +0.000 C 
BRANCH  19  20
ATOM     20  O   UNL     1      48.525   9.832  12.603  0.00  0.00    +0.000 OA
BRANCH  20  21
ATOM     21  C   UNL     1      47.225  10.186  12.281  0.00  0.00    +0.000 A 
ATOM     22  N   UNL     1      46.235   9.306  12.571  0.00  0.00    +0.000 NA
ATOM     23  C   UNL     1      44.970   9.654  12.236  0.00  0.00    +0.000 A 
ATOM     24  C   UNL     1      44.629  10.849  11.619  0.00  0.00    +0.000 A 
ATOM     25  C   UNL     1      45.665  11.749  11.343  0.00  0.00    +0.000 A 
ATOM     26  C   UNL     1      46.981  11.418  11.674  0.00  0.00    +0.000 A 
ATOM     27 CL   UNL     1      48.240  12.535  11.312  0.00  0.00    +0.000 Cl
BRANCH  24  28
ATOM     28  C   UNL     1      43.236  11.199  11.250  0.00  0.00    +0.000 C 
ATOM     29  N   UNL     1      42.242  11.039  12.172  0.00  0.00    +0.000 N 
ATOM     30  O   UNL     1      42.973  11.619  10.129  0.00  0.00    +0.000 OA
ATOM     31  H   UNL     1      42.337  10.662  13.102  0.00  0.00    +0.000 HD
ATOM     32  H   UNL     1      41.304  11.265  11.864  0.00  0.00    +0.000 HD
ENDBRANCH  24  28
ENDBRANCH  20  21
ENDBRANCH  19  20
ENDBRANCH  18  19
ENDBRANCH   9  18
TORSDOF 6
ENDMDL
MODEL 9
REMARK VINA RESULT:    -6.440      3.420      4.840
REMARK INTER + INTRA:          -9.451
REMARK INTER:                  -8.631
REMARK INTRA:                  -0.821
REMARK UNBOUND:                -0.753
REMARK  Name = 
REMARK  7 active torsions:
REMARK  status: ('A' for Active; 'I' for Inactive)
REMARK    1  A    between atoms: C_1  and  C_2
REMARK    2  A    between atoms: C_7  and  C_8
REMARK    3  A    between atoms: C_13  and  C_14
REMARK    4  A    between atoms: C_14  and  C_15
REMARK    5  A    between atoms: C_15  and  O_16
REMARK    6  A    between atoms: O_16  and  C_17
REMARK    7  A    between atoms: C_20  and  C_21
REMARK                            x       y       z     vdW  Elec       q    Type
REMARK                         _______ _______ _______ _____ _____    ______ ____
ROOT
ATOM      1  C   UNL     1      46.198  10.264  20.955  0.00  0.00    +0.000 C 
ATOM      2  C   UNL     1      46.871  10.123  19.595  0.00  0.00    +0.000 C 
ATOM      3  C   UNL     1      47.977   9.042  19.644  0.00  0.00    +0.000 C 
ATOM      4  N   UNL     1      48.742   9.033  18.389  0.00  0.00    +0.000 N 
ATOM      5  C   UNL     1      48.871   7.936  17.565  0.00  0.00    +0.000 A 
ATOM      6  C   UNL     1      48.781   6.652  18.066  0.00  0.00    +0.000 A 
ATOM      7  C   UNL     1      48.923   5.587  17.189  0.00  0.00    +0.000 A 
ATOM      8  N   UNL     1      49.154   5.781  15.870  0.00  0.00    +0.000 NA
ATOM      9  C   UNL     1      49.258   7.053  15.454  0.00  0.00    +0.000 A 
ATOM     10  N   UNL     1      49.117   8.127  16.255  0.00  0.00    +0.000 NA
ATOM     11  C   UNL     1      49.208  10.354  17.948  0.00  0.00    +0.000 C 
ATOM     12  C   UNL     1      48.041  11.350  17.947  0.00  0.00    +0.000 C 
ATOM     13  O   UNL     1      47.407  11.410  19.238  0.00  0.00    +0.000 OA
ENDROOT
BRANCH   7  14
ATOM     14  C   UNL     1      48.826   4.169  17.725  0.00  0.00    +0.000 C 
ATOM     15  F   UNL     1      49.614   3.281  17.043  0.00  0.00    +0.000 F 
ATOM     16  F   UNL     1      49.216   4.062  19.028  0.00  0.00    +0.000 F 
ATOM     17  F   UNL     1      47.566   3.654  17.661  0.00  0.00    +0.000 F 
ENDBRANCH   7  14
BRANCH   9  18
ATOM     18  C   UNL     1      49.499   7.286  13.987  0.00  0.00    +0.000 C 
BRANCH  18  19
ATOM     19  C   UNL     1      48.190   7.619  13.291  0.00  0.00    +0.000 C 
BRANCH  19  20
ATOM     20  O   UNL     1      47.106   6.874  13.879  0.00  0.00    +0.000 OA
BRANCH  20  21
ATOM     21  C   UNL     1      46.406   6.130  12.943  0.00  0.00    +0.000 A 
ATOM     22  N   UNL     1      45.855   6.786  11.891  0.00  0.00    +0.000 NA
ATOM     23  C   UNL     1      45.158   6.051  10.992  0.00  0.00    +0.000 A 
ATOM     24  C   UNL     1      44.977   4.679  11.081  0.00  0.00    +0.000 A 
ATOM     25  C   UNL     1      45.567   4.021  12.166  0.00  0.00    +0.000 A 
ATOM     26  C   UNL     1      46.290   4.751  13.113  0.00  0.00    +0.000 A 
ATOM     27 CL   UNL     1      46.996   3.922  14.446  0.00  0.00    +0.000 Cl
BRANCH  24  28
ATOM     28  C   UNL     1      44.195   3.901  10.089  0.00  0.00    +0.000 C 
ATOM     29  N   UNL     1      44.132   4.341   8.798  0.00  0.00    +0.000 N 
ATOM     30  O   UNL     1      43.605   2.880  10.419  0.00  0.00    +0.000 OA
ATOM     31  H   UNL     1      44.539   5.186   8.428  0.00  0.00    +0.000 HD
ATOM     32  H   UNL     1      43.564   3.792   8.164  0.00  0.00    +0.000 HD
ENDBRANCH  24  28
ENDBRANCH  20  21
ENDBRANCH  19  20
ENDBRANCH  18  19
ENDBRANCH   9  18
TORSDOF 6
ENDMDL
