MODEL 1
REMARK VINA RESULT:    -7.496      0.000      0.000
REMARK INTER + INTRA:         -13.272
REMARK INTER:                 -12.098
REMARK INTRA:                  -1.174
REMARK UNBOUND:                -1.174
REMARK  Name = 
REMARK  12 active torsions:
REMARK  status: ('A' for Active; 'I' for Inactive)
REMARK    1  A    between atoms: C_1  and  C_2
REMARK    2  A    between atoms: C_2  and  N_3
REMARK    3  A    between atoms: C_2  and  C_11
REMARK    4  A    between atoms: N_3  and  C_4
REMARK    5  A    between atoms: C_4  and  C_5
REMARK    6  A    between atoms: C_14  and  C_15
REMARK    7  A    between atoms: C_15  and  N_16
REMARK    8  A    between atoms: N_16  and  C_17
REMARK    9  A    between atoms: N_16  and  C_20
REMARK   10  A    between atoms: C_17  and  C_18
REMARK   11  A    between atoms: C_18  and  O_19
REMARK   12  A    between atoms: C_20  and  C_21
REMARK                            x       y       z     vdW  Elec       q    Type
REMARK                         _______ _______ _______ _____ _____    ______ ____
ROOT
ATOM      1  C   UNL     1      47.770   7.227  13.451  0.00  0.00    +0.000 A 
ATOM      2  C   UNL     1      46.862   8.202  13.000  0.00  0.00    +0.000 A 
ATOM      3  C   UNL     1      45.728   7.842  12.257  0.00  0.00    +0.000 A 
ATOM      4  C   UNL     1      45.492   6.500  11.931  0.00  0.00    +0.000 A 
ATOM      5  C   UNL     1      46.362   5.523  12.413  0.00  0.00    +0.000 A 
ATOM      6  C   UNL     1      47.486   5.883  13.158  0.00  0.00    +0.000 A 
ENDROOT
BRANCH   1   8
ATOM      7  C   UNL     1      50.066   8.334  13.264  0.00  0.00    +0.000 C 
ATOM      8  C   UNL     1      49.043   7.650  14.191  0.00  0.00    +0.000 C 
BRANCH   8   9
ATOM      9  N   UNL     1      49.628   6.503  14.919  0.00  0.00    +0.000 NA
ATOM     10  H   UNL     1      49.307   5.649  14.460  0.00  0.00    +0.000 HD
BRANCH   9  11
ATOM     11  C   UNL     1      49.183   6.456  16.319  0.00  0.00    +0.000 C 
BRANCH  11  12
ATOM     12  C   UNL     1      48.697   5.108  16.792  0.00  0.00    +0.000 A 
ATOM     13  C   UNL     1      47.340   4.799  16.801  0.00  0.00    +0.000 A 
ATOM     14  N   UNL     1      46.870   3.558  17.076  0.00  0.00    +0.000 NA
ATOM     15  C   UNL     1      47.816   2.630  17.343  0.00  0.00    +0.000 A 
ATOM     16  C   UNL     1      49.166   2.929  17.354  0.00  0.00    +0.000 A 
ATOM     17  N   UNL     1      49.637   4.168  17.083  0.00  0.00    +0.000 NA
ENDBRANCH  11  12
ENDBRANCH   9  11
ENDBRANCH   8   9
ENDBRANCH   1   8
BRANCH   4  18
ATOM     18  C   UNL     1      44.336   6.099  11.040  0.00  0.00    +0.000 C 
BRANCH  18  19
ATOM     19  N   UNL     1      44.315   4.652  10.707  0.00  0.00    +0.000 NA
BRANCH  19  20
ATOM     20  C   UNL     1      43.201   3.964  11.402  0.00  0.00    +0.000 C 
BRANCH  20  21
ATOM     21  C   UNL     1      43.602   2.686  12.163  0.00  0.00    +0.000 C 
BRANCH  21  22
ATOM     22  O   UNL     1      42.831   1.571  11.720  0.00  0.00    +0.000 OA
ATOM     23  H   UNL     1      43.431   0.807  11.671  0.00  0.00    +0.000 HD
ENDBRANCH  21  22
ENDBRANCH  20  21
ENDBRANCH  19  20
BRANCH  19  24
ATOM     24  C   UNL     1      44.158   4.514   9.235  0.00  0.00    +0.000 C 
BRANCH  24  25
ATOM     25  C   UNL     1      45.196   3.636   8.560  0.00  0.00    +0.000 A 
ATOM     26  C   UNL     1      45.244   2.269   8.828  0.00  0.00    +0.000 A 
ATOM     27  C   UNL     1      46.181   1.488   8.161  0.00  0.00    +0.000 A 
ATOM     28  C   UNL     1      47.045   2.090   7.252  0.00  0.00    +0.000 A 
ATOM     29  C   UNL     1      46.943   3.457   7.058  0.00  0.00    +0.000 A 
ATOM     30  N   UNL     1      46.042   4.240   7.688  0.00  0.00    +0.000 NA
ENDBRANCH  24  25
ENDBRANCH  19  24
ENDBRANCH  18  19
ENDBRANCH   4  18
TORSDOF 11
ENDMDL
MODEL 2
REMARK VINA RESULT:    -7.282      1.420      2.132
REMARK INTER + INTRA:         -12.926
REMARK INTER:                 -12.260
REMARK INTRA:                  -0.666
REMARK UNBOUND:                -1.174
REMARK  Name = 
REMARK  12 active torsions:
REMARK  status: ('A' for Active; 'I' for Inactive)
REMARK    1  A    between atoms: C_1  and  C_2
REMARK    2  A    between atoms: C_2  and  N_3
REMARK    3  A    between atoms: C_2  and  C_11
REMARK    4  A    between atoms: N_3  and  C_4
REMARK    5  A    between atoms: C_4  and  C_5
REMARK    6  A    between atoms: C_14  and  C_15
REMARK    7  A    between atoms: C_15  and  N_16
REMARK    8  A    between atoms: N_16  and  C_17
REMARK    9  A    between atoms: N_16  and  C_20
REMARK   10  A    between atoms: C_17  and  C_18
REMARK   11  A    between atoms: C_18  and  O_19
REMARK   12  A    between atoms: C_20  and  C_21
REMARK                            x       y       z     vdW  Elec       q    Type
REMARK                         _______ _______ _______ _____ _____    ______ ____
ROOT
ATOM      1  C   UNL     1      47.835   6.126  14.362  0.00  0.00    +0.000 A 
ATOM      2  C   UNL     1      47.130   4.939  14.094  0.00  0.00    +0.000 A 
ATOM      3  C   UNL     1      46.373   4.799  12.921  0.00  0.00    +0.000 A 
ATOM      4  C   UNL     1      46.288   5.854  12.004  0.00  0.00    +0.000 A 
ATOM      5  C   UNL     1      47.020   7.017  12.239  0.00  0.00    +0.000 A 
ATOM      6  C   UNL     1      47.778   7.151  13.404  0.00  0.00    +0.000 A 
ENDROOT
BRANCH   1   8
ATOM      7  C   UNL     1      49.928   7.032  15.516  0.00  0.00    +0.000 C 
ATOM      8  C   UNL     1      48.590   6.287  15.685  0.00  0.00    +0.000 C 
BRANCH   8   9
ATOM      9  N   UNL     1      48.760   4.976  16.350  0.00  0.00    +0.000 NA
ATOM     10  H   UNL     1      47.892   4.765  16.843  0.00  0.00    +0.000 HD
BRANCH   9  11
ATOM     11  C   UNL     1      49.846   4.999  17.339  0.00  0.00    +0.000 C 
BRANCH  11  12
ATOM     12  C   UNL     1      50.572   3.690  17.524  0.00  0.00    +0.000 A 
ATOM     13  C   UNL     1      50.012   2.493  17.084  0.00  0.00    +0.000 A 
ATOM     14  N   UNL     1      50.687   1.318  17.095  0.00  0.00    +0.000 NA
ATOM     15  C   UNL     1      51.953   1.385  17.565  0.00  0.00    +0.000 A 
ATOM     16  C   UNL     1      52.514   2.564  18.021  0.00  0.00    +0.000 A 
ATOM     17  N   UNL     1      51.840   3.737  18.015  0.00  0.00    +0.000 NA
ENDBRANCH  11  12
ENDBRANCH   9  11
ENDBRANCH   8   9
ENDBRANCH   1   8
BRANCH   4  18
ATOM     18  C   UNL     1      45.392   5.769  10.787  0.00  0.00    +0.000 C 
BRANCH  18  19
ATOM     19  N   UNL     1      44.716   4.456  10.636  0.00  0.00    +0.000 NA
BRANCH  19  20
ATOM     20  C   UNL     1      43.461   4.411  11.426  0.00  0.00    +0.000 C 
BRANCH  20  21
ATOM     21  C   UNL     1      43.307   3.173  12.329  0.00  0.00    +0.000 C 
BRANCH  21  22
ATOM     22  O   UNL     1      42.934   2.031  11.561  0.00  0.00    +0.000 OA
ATOM     23  H   UNL     1      42.580   2.355  10.716  0.00  0.00    +0.000 HD
ENDBRANCH  21  22
ENDBRANCH  20  21
ENDBRANCH  19  20
BRANCH  19  24
ATOM     24  C   UNL     1      44.416   4.248   9.195  0.00  0.00    +0.000 C 
BRANCH  24  25
ATOM     25  C   UNL     1      45.408   3.367   8.456  0.00  0.00    +0.000 A 
ATOM     26  C   UNL     1      45.487   2.004   8.737  0.00  0.00    +0.000 A 
ATOM     27  C   UNL     1      46.378   1.221   8.012  0.00  0.00    +0.000 A 
ATOM     28  C   UNL     1      47.167   1.817   7.033  0.00  0.00    +0.000 A 
ATOM     29  C   UNL     1      47.040   3.180   6.830  0.00  0.00    +0.000 A 
ATOM     30  N   UNL     1      46.182   3.965   7.515  0.00  0.00    +0.000 NA
ENDBRANCH  24  25
ENDBRANCH  19  24
ENDBRANCH  18  19
ENDBRANCH   4  18
TORSDOF 11
ENDMDL
MODEL 3
REMARK VINA RESULT:    -7.158      2.215      8.349
REMARK INTER + INTRA:         -12.726
REMARK INTER:                 -11.630
REMARK INTRA:                  -1.096
REMARK UNBOUND:                -1.174
REMARK  Name = 
REMARK  12 active torsions:
REMARK  status: ('A' for Active; 'I' for Inactive)
REMARK    1  A    between atoms: C_1  and  C_2
REMARK    2  A    between atoms: C_2  and  N_3
REMARK    3  A    between atoms: C_2  and  C_11
REMARK    4  A    between atoms: N_3  and  C_4
REMARK    5  A    between atoms: C_4  and  C_5
REMARK    6  A    between atoms: C_14  and  C_15
REMARK    7  A    between atoms: C_15  and  N_16
REMARK    8  A    between atoms: N_16  and  C_17
REMARK    9  A    between atoms: N_16  and  C_20
REMARK   10  A    between atoms: C_17  and  C_18
REMARK   11  A    between atoms: C_18  and  O_19
REMARK   12  A    between atoms: C_20  and  C_21
REMARK                            x       y       z     vdW  Elec       q    Type
REMARK                         _______ _______ _______ _____ _____    ______ ____
ROOT
ATOM      1  C   UNL     1      45.185   4.329  11.668  0.00  0.00    +0.000 A 
ATOM      2  C   UNL     1      45.490   5.574  11.090  0.00  0.00    +0.000 A 
ATOM      3  C   UNL     1      46.314   6.496  11.755  0.00  0.00    +0.000 A 
ATOM      4  C   UNL     1      46.829   6.196  13.023  0.00  0.00    +0.000 A 
ATOM      5  C   UNL     1      46.569   4.946  13.582  0.00  0.00    +0.000 A 
ATOM      6  C   UNL     1      45.755   4.029  12.915  0.00  0.00    +0.000 A 
ENDROOT
BRANCH   1   8
ATOM      7  C   UNL     1      43.363   2.558  11.949  0.00  0.00    +0.000 C 
ATOM      8  C   UNL     1      44.220   3.373  10.960  0.00  0.00    +0.000 C 
BRANCH   8   9
ATOM      9  N   UNL     1      44.949   2.507  10.007  0.00  0.00    +0.000 NA
ATOM     10  H   UNL     1      45.943   2.572  10.229  0.00  0.00    +0.000 HD
BRANCH   9  11
ATOM     11  C   UNL     1      44.767   2.947   8.617  0.00  0.00    +0.000 C 
BRANCH  11  12
ATOM     12  C   UNL     1      45.946   2.702   7.708  0.00  0.00    +0.000 A 
ATOM     13  C   UNL     1      46.710   1.543   7.824  0.00  0.00    +0.000 A 
ATOM     14  N   UNL     1      47.682   1.212   6.940  0.00  0.00    +0.000 NA
ATOM     15  C   UNL     1      47.862   2.088   5.927  0.00  0.00    +0.000 A 
ATOM     16  C   UNL     1      47.122   3.251   5.811  0.00  0.00    +0.000 A 
ATOM     17  N   UNL     1      46.154   3.585   6.695  0.00  0.00    +0.000 NA
ENDBRANCH  11  12
ENDBRANCH   9  11
ENDBRANCH   8   9
ENDBRANCH   1   8
BRANCH   4  18
ATOM     18  C   UNL     1      47.630   7.214  13.807  0.00  0.00    +0.000 C 
BRANCH  18  19
ATOM     19  N   UNL     1      48.871   6.663  14.406  0.00  0.00    +0.000 NA
BRANCH  19  20
ATOM     20  C   UNL     1      50.058   7.443  13.977  0.00  0.00    +0.000 C 
BRANCH  20  21
ATOM     21  C   UNL     1      49.944   8.082  12.581  0.00  0.00    +0.000 C 
BRANCH  21  22
ATOM     22  O   UNL     1      50.582   7.269  11.599  0.00  0.00    +0.000 OA
ATOM     23  H   UNL     1      51.524   7.512  11.591  0.00  0.00    +0.000 HD
ENDBRANCH  21  22
ENDBRANCH  20  21
ENDBRANCH  19  20
BRANCH  19  24
ATOM     24  C   UNL     1      48.738   6.713  15.885  0.00  0.00    +0.000 C 
BRANCH  24  25
ATOM     25  C   UNL     1      48.777   5.362  16.577  0.00  0.00    +0.000 A 
ATOM     26  C   UNL     1      47.595   4.680  16.858  0.00  0.00    +0.000 A 
ATOM     27  C   UNL     1      47.670   3.427  17.456  0.00  0.00    +0.000 A 
ATOM     28  C   UNL     1      48.918   2.893  17.761  0.00  0.00    +0.000 A 
ATOM     29  C   UNL     1      50.042   3.644  17.466  0.00  0.00    +0.000 A 
ATOM     30  N   UNL     1      50.001   4.861  16.884  0.00  0.00    +0.000 NA
ENDBRANCH  24  25
ENDBRANCH  19  24
ENDBRANCH  18  19
ENDBRANCH   4  18
TORSDOF 11
ENDMDL
MODEL 4
REMARK VINA RESULT:    -7.097      2.497      8.289
REMARK INTER + INTRA:         -12.627
REMARK INTER:                 -11.468
REMARK INTRA:                  -1.159
REMARK UNBOUND:                -1.174
REMARK  Name = 
REMARK  12 active torsions:
REMARK  status: ('A' for Active; 'I' for Inactive)
REMARK    1  A    between atoms: C_1  and  C_2
REMARK    2  A    between atoms: C_2  and  N_3
REMARK    3  A    between atoms: C_2  and  C_11
REMARK    4  A    between atoms: N_3  and  C_4
REMARK    5  A    between atoms: C_4  and  C_5
REMARK    6  A    between atoms: C_14  and  C_15
REMARK    7  A    between atoms: C_15  and  N_16
REMARK    8  A    between atoms: N_16  and  C_17
REMARK    9  A    between atoms: N_16  and  C_20
REMARK   10  A    between atoms: C_17  and  C_18
REMARK   11  A    between atoms: C_18  and  O_19
REMARK   12  A    between atoms: C_20  and  C_21
REMARK                            x       y       z     vdW  Elec       q    Type
REMARK                         _______ _______ _______ _____ _____    ______ ____
ROOT
ATOM      1  C   UNL     1      45.476   4.977  11.694  0.00  0.00    +0.000 A 
ATOM      2  C   UNL     1      45.949   6.205  11.195  0.00  0.00    +0.000 A 
ATOM      3  C   UNL     1      46.820   7.003  11.953  0.00  0.00    +0.000 A 
ATOM      4  C   UNL     1      47.216   6.599  13.234  0.00  0.00    +0.000 A 
ATOM      5  C   UNL     1      46.789   5.363  13.717  0.00  0.00    +0.000 A 
ATOM      6  C   UNL     1      45.928   4.567  12.959  0.00  0.00    +0.000 A 
ENDROOT
BRANCH   1   8
ATOM      7  C   UNL     1      43.038   4.243  11.466  0.00  0.00    +0.000 C 
ATOM      8  C   UNL     1      44.464   4.161  10.885  0.00  0.00    +0.000 C 
BRANCH   8   9
ATOM      9  N   UNL     1      44.925   2.764  10.731  0.00  0.00    +0.000 NA
ATOM     10  H   UNL     1      45.945   2.768  10.780  0.00  0.00    +0.000 HD
BRANCH   9  11
ATOM     11  C   UNL     1      44.539   2.198   9.431  0.00  0.00    +0.000 C 
BRANCH  11  12
ATOM     12  C   UNL     1      45.616   2.225   8.375  0.00  0.00    +0.000 A 
ATOM     13  C   UNL     1      45.976   3.417   7.752  0.00  0.00    +0.000 A 
ATOM     14  N   UNL     1      47.033   3.515   6.908  0.00  0.00    +0.000 NA
ATOM     15  C   UNL     1      47.722   2.369   6.712  0.00  0.00    +0.000 A 
ATOM     16  C   UNL     1      47.363   1.175   7.312  0.00  0.00    +0.000 A 
ATOM     17  N   UNL     1      46.306   1.075   8.151  0.00  0.00    +0.000 NA
ENDBRANCH  11  12
ENDBRANCH   9  11
ENDBRANCH   8   9
ENDBRANCH   1   8
BRANCH   4  18
ATOM     18  C   UNL     1      48.066   7.492  14.112  0.00  0.00    +0.000 C 
BRANCH  18  19
ATOM     19  N   UNL     1      49.212   6.791  14.743  0.00  0.00    +0.000 NA
BRANCH  19  20
ATOM     20  C   UNL     1      50.482   7.512  14.484  0.00  0.00    +0.000 C 
BRANCH  20  21
ATOM     21  C   UNL     1      51.418   7.634  15.702  0.00  0.00    +0.000 C 
BRANCH  21  22
ATOM     22  O   UNL     1      52.286   6.506  15.787  0.00  0.00    +0.000 OA
ATOM     23  H   UNL     1      51.801   5.804  16.253  0.00  0.00    +0.000 HD
ENDBRANCH  21  22
ENDBRANCH  20  21
ENDBRANCH  19  20
BRANCH  19  24
ATOM     24  C   UNL     1      48.963   6.710  16.205  0.00  0.00    +0.000 C 
BRANCH  24  25
ATOM     25  C   UNL     1      48.871   5.300  16.762  0.00  0.00    +0.000 A 
ATOM     26  C   UNL     1      47.627   4.719  17.007  0.00  0.00    +0.000 A 
ATOM     27  C   UNL     1      47.579   3.412  17.477  0.00  0.00    +0.000 A 
ATOM     28  C   UNL     1      48.768   2.724  17.696  0.00  0.00    +0.000 A 
ATOM     29  C   UNL     1      49.961   3.380  17.445  0.00  0.00    +0.000 A 
ATOM     30  N   UNL     1      50.039   4.646  16.985  0.00  0.00    +0.000 NA
ENDBRANCH  24  25
ENDBRANCH  19  24
ENDBRANCH  18  19
ENDBRANCH   4  18
TORSDOF 11
ENDMDL
MODEL 5
REMARK VINA RESULT:    -6.759      1.592      2.349
REMARK INTER + INTRA:         -12.082
REMARK INTER:                 -11.045
REMARK INTRA:                  -1.037
REMARK UNBOUND:                -1.174
REMARK  Name = 
REMARK  12 active torsions:
REMARK  status: ('A' for Active; 'I' for Inactive)
REMARK    1  A    between atoms: C_1  and  C_2
REMARK    2  A    between atoms: C_2  and  N_3
REMARK    3  A    between atoms: C_2  and  C_11
REMARK    4  A    between atoms: N_3  and  C_4
REMARK    5  A    between atoms: C_4  and  C_5
REMARK    6  A    between atoms: C_14  and  C_15
REMARK    7  A    between atoms: C_15  and  N_16
REMARK    8  A    between atoms: N_16  and  C_17
REMARK    9  A    between atoms: N_16  and  C_20
REMARK   10  A    between atoms: C_17  and  C_18
REMARK   11  A    between atoms: C_18  and  O_19
REMARK   12  A    between atoms: C_20  and  C_21
REMARK                            x       y       z     vdW  Elec       q    Type
REMARK                         _______ _______ _______ _____ _____    ______ ____
ROOT
ATOM      1  C   UNL     1      47.082   8.652  12.316  0.00  0.00    +0.000 A 
ATOM      2  C   UNL     1      47.594   7.443  11.812  0.00  0.00    +0.000 A 
ATOM      3  C   UNL     1      46.736   6.437  11.341  0.00  0.00    +0.000 A 
ATOM      4  C   UNL     1      45.347   6.614  11.387  0.00  0.00    +0.000 A 
ATOM      5  C   UNL     1      44.833   7.827  11.843  0.00  0.00    +0.000 A 
ATOM      6  C   UNL     1      45.689   8.829  12.304  0.00  0.00    +0.000 A 
ENDROOT
BRANCH   1   8
ATOM      7  C   UNL     1      48.675  10.587  11.812  0.00  0.00    +0.000 C 
ATOM      8  C   UNL     1      48.033   9.702  12.898  0.00  0.00    +0.000 C 
BRANCH   8   9
ATOM      9  N   UNL     1      49.044   9.064  13.768  0.00  0.00    +0.000 NA
ATOM     10  H   UNL     1      49.128   8.088  13.480  0.00  0.00    +0.000 HD
BRANCH   9  11
ATOM     11  C   UNL     1      48.645   9.084  15.182  0.00  0.00    +0.000 C 
BRANCH  11  12
ATOM     12  C   UNL     1      48.785   7.768  15.907  0.00  0.00    +0.000 A 
ATOM     13  C   UNL     1      48.465   6.568  15.278  0.00  0.00    +0.000 A 
ATOM     14  N   UNL     1      48.713   5.357  15.835  0.00  0.00    +0.000 NA
ATOM     15  C   UNL     1      49.299   5.393  17.053  0.00  0.00    +0.000 A 
ATOM     16  C   UNL     1      49.605   6.579  17.695  0.00  0.00    +0.000 A 
ATOM     17  N   UNL     1      49.355   7.788  17.142  0.00  0.00    +0.000 NA
ENDBRANCH  11  12
ENDBRANCH   9  11
ENDBRANCH   8   9
ENDBRANCH   1   8
BRANCH   4  18
ATOM     18  C   UNL     1      44.399   5.503  10.987  0.00  0.00    +0.000 C 
BRANCH  18  19
ATOM     19  N   UNL     1      45.086   4.251  10.582  0.00  0.00    +0.000 NA
BRANCH  19  20
ATOM     20  C   UNL     1      44.889   3.187  11.597  0.00  0.00    +0.000 C 
BRANCH  20  21
ATOM     21  C   UNL     1      43.457   3.078  12.153  0.00  0.00    +0.000 C 
BRANCH  21  22
ATOM     22  O   UNL     1      42.833   1.875  11.710  0.00  0.00    +0.000 OA
ATOM     23  H   UNL     1      41.956   2.115  11.365  0.00  0.00    +0.000 HD
ENDBRANCH  21  22
ENDBRANCH  20  21
ENDBRANCH  19  20
BRANCH  19  24
ATOM     24  C   UNL     1      44.529   3.815   9.275  0.00  0.00    +0.000 C 
BRANCH  24  25
ATOM     25  C   UNL     1      45.490   3.029   8.401  0.00  0.00    +0.000 A 
ATOM     26  C   UNL     1      46.217   3.670   7.399  0.00  0.00    +0.000 A 
ATOM     27  C   UNL     1      47.118   2.927   6.645  0.00  0.00    +0.000 A 
ATOM     28  C   UNL     1      47.265   1.568   6.905  0.00  0.00    +0.000 A 
ATOM     29  C   UNL     1      46.491   1.005   7.905  0.00  0.00    +0.000 A 
ATOM     30  N   UNL     1      45.612   1.701   8.656  0.00  0.00    +0.000 NA
ENDBRANCH  24  25
ENDBRANCH  19  24
ENDBRANCH  18  19
ENDBRANCH   4  18
TORSDOF 11
ENDMDL
MODEL 6
REMARK VINA RESULT:    -6.215      2.648      7.896
REMARK INTER + INTRA:         -11.205
REMARK INTER:                  -9.982
REMARK INTRA:                  -1.223
REMARK UNBOUND:                -1.174
REMARK  Name = 
REMARK  12 active torsions:
REMARK  status: ('A' for Active; 'I' for Inactive)
REMARK    1  A    between atoms: C_1  and  C_2
REMARK    2  A    between atoms: C_2  and  N_3
REMARK    3  A    between atoms: C_2  and  C_11
REMARK    4  A    between atoms: N_3  and  C_4
REMARK    5  A    between atoms: C_4  and  C_5
REMARK    6  A    between atoms: C_14  and  C_15
REMARK    7  A    between atoms: C_15  and  N_16
REMARK    8  A    between atoms: N_16  and  C_17
REMARK    9  A    between atoms: N_16  and  C_20
REMARK   10  A    between atoms: C_17  and  C_18
REMARK   11  A    between atoms: C_18  and  O_19
REMARK   12  A    between atoms: C_20  and  C_21
REMARK                            x       y       z     vdW  Elec       q    Type
REMARK                         _______ _______ _______ _____ _____    ______ ____
ROOT
ATOM      1  C   UNL     1      45.233   5.712  11.956  0.00  0.00    +0.000 A 
ATOM      2  C   UNL     1      45.731   5.173  13.156  0.00  0.00    +0.000 A 
ATOM      3  C   UNL     1      46.969   5.588  13.673  0.00  0.00    +0.000 A 
ATOM      4  C   UNL     1      47.741   6.533  12.986  0.00  0.00    +0.000 A 
ATOM      5  C   UNL     1      47.234   7.105  11.821  0.00  0.00    +0.000 A 
ATOM      6  C   UNL     1      46.000   6.697  11.312  0.00  0.00    +0.000 A 
ENDROOT
BRANCH   1   8
ATOM      7  C   UNL     1      42.808   5.055  12.429  0.00  0.00    +0.000 C 
ATOM      8  C   UNL     1      43.919   5.187  11.369  0.00  0.00    +0.000 C 
BRANCH   8   9
ATOM      9  N   UNL     1      44.145   3.922  10.635  0.00  0.00    +0.000 NA
ATOM     10  H   UNL     1      45.008   3.508  10.992  0.00  0.00    +0.000 HD
BRANCH   9  11
ATOM     11  C   UNL     1      44.316   4.147   9.193  0.00  0.00    +0.000 C 
BRANCH  11  12
ATOM     12  C   UNL     1      45.389   3.314   8.537  0.00  0.00    +0.000 A 
ATOM     13  C   UNL     1      45.505   1.953   8.810  0.00  0.00    +0.000 A 
ATOM     14  N   UNL     1      46.354   1.138   8.138  0.00  0.00    +0.000 NA
ATOM     15  C   UNL     1      47.087   1.739   7.174  0.00  0.00    +0.000 A 
ATOM     16  C   UNL     1      46.993   3.092   6.905  0.00  0.00    +0.000 A 
ATOM     17  N   UNL     1      46.149   3.908   7.578  0.00  0.00    +0.000 NA
ENDBRANCH  11  12
ENDBRANCH   9  11
ENDBRANCH   8   9
ENDBRANCH   1   8
BRANCH   4  18
ATOM     18  C   UNL     1      49.125   6.916  13.466  0.00  0.00    +0.000 C 
BRANCH  18  19
ATOM     19  N   UNL     1      49.127   8.008  14.471  0.00  0.00    +0.000 NA
BRANCH  19  20
ATOM     20  C   UNL     1      49.721   7.550  15.750  0.00  0.00    +0.000 C 
BRANCH  20  21
ATOM     21  C   UNL     1      49.093   6.271  16.337  0.00  0.00    +0.000 C 
BRANCH  21  22
ATOM     22  O   UNL     1      48.029   6.595  17.230  0.00  0.00    +0.000 OA
ATOM     23  H   UNL     1      47.227   6.160  16.893  0.00  0.00    +0.000 HD
ENDBRANCH  21  22
ENDBRANCH  20  21
ENDBRANCH  19  20
BRANCH  19  24
ATOM     24  C   UNL     1      49.912   9.145  13.925  0.00  0.00    +0.000 C 
BRANCH  24  25
ATOM     25  C   UNL     1      49.210   9.946  12.843  0.00  0.00    +0.000 A 
ATOM     26  C   UNL     1      49.850  10.207  11.632  0.00  0.00    +0.000 A 
ATOM     27  C   UNL     1      49.163  10.908  10.648  0.00  0.00    +0.000 A 
ATOM     28  C   UNL     1      47.862  11.333  10.899  0.00  0.00    +0.000 A 
ATOM     29  C   UNL     1      47.307  11.049  12.135  0.00  0.00    +0.000 A 
ATOM     30  N   UNL     1      47.947  10.367  13.107  0.00  0.00    +0.000 NA
ENDBRANCH  24  25
ENDBRANCH  19  24
ENDBRANCH  18  19
ENDBRANCH   4  18
TORSDOF 11
ENDMDL
MODEL 7
REMARK VINA RESULT:    -6.144      2.531      8.832
REMARK INTER + INTRA:         -11.090
REMARK INTER:                 -10.742
REMARK INTRA:                  -0.348
REMARK UNBOUND:                -1.174
REMARK  Name = 
REMARK  12 active torsions:
REMARK  status: ('A' for Active; 'I' for Inactive)
REMARK    1  A    between atoms: C_1  and  C_2
REMARK    2  A    between atoms: C_2  and  N_3
REMARK    3  A    between atoms: C_2  and  C_11
REMARK    4  A    between atoms: N_3  and  C_4
REMARK    5  A    between atoms: C_4  and  C_5
REMARK    6  A    between atoms: C_14  and  C_15
REMARK    7  A    between atoms: C_15  and  N_16
REMARK    8  A    between atoms: N_16  and  C_17
REMARK    9  A    between atoms: N_16  and  C_20
REMARK   10  A    between atoms: C_17  and  C_18
REMARK   11  A    between atoms: C_18  and  O_19
REMARK   12  A    between atoms: C_20  and  C_21
REMARK                            x       y       z     vdW  Elec       q    Type
REMARK                         _______ _______ _______ _____ _____    ______ ____
ROOT
ATOM      1  C   UNL     1      45.490   4.792  11.961  0.00  0.00    +0.000 A 
ATOM      2  C   UNL     1      45.708   4.161  13.200  0.00  0.00    +0.000 A 
ATOM      3  C   UNL     1      46.649   4.667  14.110  0.00  0.00    +0.000 A 
ATOM      4  C   UNL     1      47.407   5.800  13.788  0.00  0.00    +0.000 A 
ATOM      5  C   UNL     1      47.164   6.457  12.583  0.00  0.00    +0.000 A 
ATOM      6  C   UNL     1      46.222   5.956  11.682  0.00  0.00    +0.000 A 
ENDROOT
BRANCH   1   8
ATOM      7  C   UNL     1      43.042   4.373  11.355  0.00  0.00    +0.000 C 
ATOM      8  C   UNL     1      44.517   4.177  10.951  0.00  0.00    +0.000 C 
BRANCH   8   9
ATOM      9  N   UNL     1      44.846   2.755  10.709  0.00  0.00    +0.000 NA
ATOM     10  H   UNL     1      45.848   2.640  10.862  0.00  0.00    +0.000 HD
BRANCH   9  11
ATOM     11  C   UNL     1      44.552   2.351   9.327  0.00  0.00    +0.000 C 
BRANCH  11  12
ATOM     12  C   UNL     1      45.735   2.357   8.392  0.00  0.00    +0.000 A 
ATOM     13  C   UNL     1      46.371   1.171   8.035  0.00  0.00    +0.000 A 
ATOM     14  N   UNL     1      47.340   1.113   7.088  0.00  0.00    +0.000 NA
ATOM     15  C   UNL     1      47.649   2.293   6.506  0.00  0.00    +0.000 A 
ATOM     16  C   UNL     1      47.036   3.480   6.864  0.00  0.00    +0.000 A 
ATOM     17  N   UNL     1      46.072   3.541   7.812  0.00  0.00    +0.000 NA
ENDBRANCH  11  12
ENDBRANCH   9  11
ENDBRANCH   8   9
ENDBRANCH   1   8
BRANCH   4  18
ATOM     18  C   UNL     1      48.502   6.300  14.705  0.00  0.00    +0.000 C 
BRANCH  18  19
ATOM     19  N   UNL     1      48.286   5.960  16.133  0.00  0.00    +0.000 NA
BRANCH  19  20
ATOM     20  C   UNL     1      48.541   4.520  16.380  0.00  0.00    +0.000 C 
BRANCH  20  21
ATOM     21  C   UNL     1      47.949   3.971  17.691  0.00  0.00    +0.000 C 
BRANCH  21  22
ATOM     22  O   UNL     1      46.614   3.512  17.489  0.00  0.00    +0.000 OA
ATOM     23  H   UNL     1      46.560   3.175  16.579  0.00  0.00    +0.000 HD
ENDBRANCH  21  22
ENDBRANCH  20  21
ENDBRANCH  19  20
BRANCH  19  24
ATOM     24  C   UNL     1      49.207   6.786  16.955  0.00  0.00    +0.000 C 
BRANCH  24  25
ATOM     25  C   UNL     1      48.532   7.860  17.789  0.00  0.00    +0.000 A 
ATOM     26  C   UNL     1      48.033   7.560  19.056  0.00  0.00    +0.000 A 
ATOM     27  C   UNL     1      47.457   8.577  19.808  0.00  0.00    +0.000 A 
ATOM     28  C   UNL     1      47.390   9.861  19.277  0.00  0.00    +0.000 A 
ATOM     29  C   UNL     1      47.891  10.071  18.004  0.00  0.00    +0.000 A 
ATOM     30  N   UNL     1      48.459   9.105  17.252  0.00  0.00    +0.000 NA
ENDBRANCH  24  25
ENDBRANCH  19  24
ENDBRANCH  18  19
ENDBRANCH   4  18
TORSDOF 11
ENDMDL
MODEL 8
REMARK VINA RESULT:    -5.896      3.008      7.982
REMARK INTER + INTRA:         -10.689
REMARK INTER:                  -9.972
REMARK INTRA:                  -0.717
REMARK UNBOUND:                -1.174
REMARK  Name = 
REMARK  12 active torsions:
REMARK  status: ('A' for Active; 'I' for Inactive)
REMARK    1  A    between atoms: C_1  and  C_2
REMARK    2  A    between atoms: C_2  and  N_3
REMARK    3  A    between atoms: C_2  and  C_11
REMARK    4  A    between atoms: N_3  and  C_4
REMARK    5  A    between atoms: C_4  and  C_5
REMARK    6  A    between atoms: C_14  and  C_15
REMARK    7  A    between atoms: C_15  and  N_16
REMARK    8  A    between atoms: N_16  and  C_17
REMARK    9  A    between atoms: N_16  and  C_20
REMARK   10  A    between atoms: C_17  and  C_18
REMARK   11  A    between atoms: C_18  and  O_19
REMARK   12  A    between atoms: C_20  and  C_21
REMARK                            x       y       z     vdW  Elec       q    Type
REMARK                         _______ _______ _______ _____ _____    ______ ____
ROOT
ATOM      1  C   UNL     1      45.500   4.840  11.945  0.00  0.00    +0.000 A 
ATOM      2  C   UNL     1      46.008   4.416  13.187  0.00  0.00    +0.000 A 
ATOM      3  C   UNL     1      47.048   5.116  13.817  0.00  0.00    +0.000 A 
ATOM      4  C   UNL     1      47.616   6.242  13.206  0.00  0.00    +0.000 A 
ATOM      5  C   UNL     1      47.087   6.695  11.998  0.00  0.00    +0.000 A 
ATOM      6  C   UNL     1      46.048   6.001  11.376  0.00  0.00    +0.000 A 
ENDROOT
BRANCH   1   8
ATOM      7  C   UNL     1      43.148   3.849  12.092  0.00  0.00    +0.000 C 
ATOM      8  C   UNL     1      44.421   4.015  11.238  0.00  0.00    +0.000 C 
BRANCH   8   9
ATOM      9  N   UNL     1      44.968   2.716  10.792  0.00  0.00    +0.000 NA
ATOM     10  H   UNL     1      45.984   2.803  10.759  0.00  0.00    +0.000 HD
BRANCH   9  11
ATOM     11  C   UNL     1      44.503   2.358   9.444  0.00  0.00    +0.000 C 
BRANCH  11  12
ATOM     12  C   UNL     1      45.584   2.270   8.396  0.00  0.00    +0.000 A 
ATOM     13  C   UNL     1      46.027   3.409   7.728  0.00  0.00    +0.000 A 
ATOM     14  N   UNL     1      47.091   3.402   6.889  0.00  0.00    +0.000 NA
ATOM     15  C   UNL     1      47.702   2.205   6.744  0.00  0.00    +0.000 A 
ATOM     16  C   UNL     1      47.261   1.064   7.388  0.00  0.00    +0.000 A 
ATOM     17  N   UNL     1      46.196   1.068   8.222  0.00  0.00    +0.000 NA
ENDBRANCH  11  12
ENDBRANCH   9  11
ENDBRANCH   8   9
ENDBRANCH   1   8
BRANCH   4  18
ATOM     18  C   UNL     1      48.809   6.949  13.812  0.00  0.00    +0.000 C 
BRANCH  18  19
ATOM     19  N   UNL     1      48.477   8.261  14.422  0.00  0.00    +0.000 NA
BRANCH  19  20
ATOM     20  C   UNL     1      48.956   8.330  15.824  0.00  0.00    +0.000 C 
BRANCH  20  21
ATOM     21  C   UNL     1      48.971   6.983  16.571  0.00  0.00    +0.000 C 
BRANCH  21  22
ATOM     22  O   UNL     1      49.287   7.174  17.949  0.00  0.00    +0.000 OA
ATOM     23  H   UNL     1      50.046   6.601  18.152  0.00  0.00    +0.000 HD
ENDBRANCH  21  22
ENDBRANCH  20  21
ENDBRANCH  19  20
BRANCH  19  24
ATOM     24  C   UNL     1      49.121   9.328  13.612  0.00  0.00    +0.000 C 
BRANCH  24  25
ATOM     25  C   UNL     1      50.372   8.899  12.867  0.00  0.00    +0.000 A 
ATOM     26  C   UNL     1      50.299   8.519  11.528  0.00  0.00    +0.000 A 
ATOM     27  C   UNL     1      51.471   8.171  10.866  0.00  0.00    +0.000 A 
ATOM     28  C   UNL     1      52.679   8.207  11.555  0.00  0.00    +0.000 A 
ATOM     29  C   UNL     1      52.661   8.579  12.889  0.00  0.00    +0.000 A 
ATOM     30  N   UNL     1      51.541   8.925  13.557  0.00  0.00    +0.000 NA
ENDBRANCH  24  25
ENDBRANCH  19  24
ENDBRANCH  18  19
ENDBRANCH   4  18
TORSDOF 11
ENDMDL
MODEL 9
REMARK VINA RESULT:    -5.864      3.860      8.038
REMARK INTER + INTRA:         -10.638
REMARK INTER:                  -9.765
REMARK INTRA:                  -0.873
REMARK UNBOUND:                -1.174
REMARK  Name = 
REMARK  12 active torsions:
REMARK  status: ('A' for Active; 'I' for Inactive)
REMARK    1  A    between atoms: C_1  and  C_2
REMARK    2  A    between atoms: C_2  and  N_3
REMARK    3  A    between atoms: C_2  and  C_11
REMARK    4  A    between atoms: N_3  and  C_4
REMARK    5  A    between atoms: C_4  and  C_5
REMARK    6  A    between atoms: C_14  and  C_15
REMARK    7  A    between atoms: C_15  and  N_16
REMARK    8  A    between atoms: N_16  and  C_17
REMARK    9  A    between atoms: N_16  and  C_20
REMARK   10  A    between atoms: C_17  and  C_18
REMARK   11  A    between atoms: C_18  and  O_19
REMARK   12  A    between atoms: C_20  and  C_21
REMARK                            x       y       z     vdW  Elec       q    Type
REMARK                         _______ _______ _______ _____ _____    ______ ____
ROOT
ATOM      1  C   UNL     1      44.651   4.513  11.456  0.00  0.00    +0.000 A 
ATOM      2  C   UNL     1      45.357   5.388  10.610  0.00  0.00    +0.000 A 
ATOM      3  C   UNL     1      45.841   6.617  11.086  0.00  0.00    +0.000 A 
ATOM      4  C   UNL     1      45.609   7.002  12.412  0.00  0.00    +0.000 A 
ATOM      5  C   UNL     1      44.951   6.121  13.269  0.00  0.00    +0.000 A 
ATOM      6  C   UNL     1      44.476   4.897  12.795  0.00  0.00    +0.000 A 
ENDROOT
BRANCH   1   8
ATOM      7  C   UNL     1      43.264   2.423  11.949  0.00  0.00    +0.000 C 
ATOM      8  C   UNL     1      44.062   3.215  10.895  0.00  0.00    +0.000 C 
BRANCH   8   9
ATOM      9  N   UNL     1      45.118   2.396  10.261  0.00  0.00    +0.000 NA
ATOM     10  H   UNL     1      45.972   2.954  10.239  0.00  0.00    +0.000 HD
BRANCH   9  11
ATOM     11  C   UNL     1      44.778   2.037   8.876  0.00  0.00    +0.000 C 
BRANCH  11  12
ATOM     12  C   UNL     1      45.888   2.229   7.874  0.00  0.00    +0.000 A 
ATOM     13  C   UNL     1      46.845   1.238   7.669  0.00  0.00    +0.000 A 
ATOM     14  N   UNL     1      47.771   1.303   6.680  0.00  0.00    +0.000 NA
ATOM     15  C   UNL     1      47.700   2.403   5.897  0.00  0.00    +0.000 A 
ATOM     16  C   UNL     1      46.765   3.401   6.101  0.00  0.00    +0.000 A 
ATOM     17  N   UNL     1      45.844   3.340   7.090  0.00  0.00    +0.000 NA
ENDBRANCH  11  12
ENDBRANCH   9  11
ENDBRANCH   8   9
ENDBRANCH   1   8
BRANCH   4  18
ATOM     18  C   UNL     1      46.026   8.366  12.919  0.00  0.00    +0.000 C 
BRANCH  18  19
ATOM     19  N   UNL     1      46.045   9.413  11.867  0.00  0.00    +0.000 NA
BRANCH  19  20
ATOM     20  C   UNL     1      44.757  10.148  11.828  0.00  0.00    +0.000 C 
BRANCH  20  21
ATOM     21  C   UNL     1      44.867  11.628  11.414  0.00  0.00    +0.000 C 
BRANCH  21  22
ATOM     22  O   UNL     1      43.954  11.926  10.360  0.00  0.00    +0.000 OA
ATOM     23  H   UNL     1      44.211  11.384   9.594  0.00  0.00    +0.000 HD
ENDBRANCH  21  22
ENDBRANCH  20  21
ENDBRANCH  19  20
BRANCH  19  24
ATOM     24  C   UNL     1      47.157  10.353  12.163  0.00  0.00    +0.000 C 
BRANCH  24  25
ATOM     25  C   UNL     1      48.493   9.693  12.455  0.00  0.00    +0.000 A 
ATOM     26  C   UNL     1      49.045   9.754  13.733  0.00  0.00    +0.000 A 
ATOM     27  C   UNL     1      50.250   9.104  13.974  0.00  0.00    +0.000 A 
ATOM     28  C   UNL     1      50.872   8.416  12.936  0.00  0.00    +0.000 A 
ATOM     29  C   UNL     1      50.265   8.421  11.692  0.00  0.00    +0.000 A 
ATOM     30  N   UNL     1      49.095   9.039  11.429  0.00  0.00    +0.000 NA
ENDBRANCH  24  25
ENDBRANCH  19  24
ENDBRANCH  18  19
ENDBRANCH   4  18
TORSDOF 11
ENDMDL
