MODEL 1
REMARK VINA RESULT:    -8.044      0.000      0.000
REMARK INTER + INTRA:         -11.739
REMARK INTER:                 -10.865
REMARK INTRA:                  -0.874
REMARK UNBOUND:                -0.874
REMARK  Name = 
REMARK  7 active torsions:
REMARK  status: ('A' for Active; 'I' for Inactive)
REMARK    1  A    between atoms: C_1  and  N_2
REMARK    2  A    between atoms: C_4  and  C_5
REMARK    3  A    between atoms: N_7  and  C_8
REMARK    4  A    between atoms: C_8  and  C_9
REMARK    5  A    between atoms: C_12  and  N_13
REMARK    6  A    between atoms: N_13  and  C_14
REMARK    7  A    between atoms: C_14  and  C_15
REMARK                            x       y       z     vdW  Elec       q    Type
REMARK                         _______ _______ _______ _____ _____    ______ ____
ROOT
ATOM      1  C   UNL     1      46.919   8.008  13.109  0.00  0.00    +0.000 C 
ENDROOT
BRANCH   1   2
ATOM      2  C   UNL     1      46.228   6.927  12.336  0.00  0.00    +0.000 A 
ATOM      3  C   UNL     1      45.189   6.201  12.922  0.00  0.00    +0.000 A 
ATOM      4  C   UNL     1      44.478   5.258  12.178  0.00  0.00    +0.000 A 
ATOM      5  C   UNL     1      44.798   4.988  10.845  0.00  0.00    +0.000 A 
ATOM      6  C   UNL     1      45.858   5.704  10.276  0.00  0.00    +0.000 A 
ATOM      7  C   UNL     1      46.572   6.658  11.009  0.00  0.00    +0.000 A 
BRANCH   5   8
ATOM      8  N   UNL     1      44.072   4.129  10.049  0.00  0.00    +0.000 N 
ATOM      9  H   UNL     1      43.426   4.525   9.369  0.00  0.00    +0.000 HD
BRANCH   8  10
ATOM     10  C   UNL     1      44.396   2.727   9.834  0.00  0.00    +0.000 C 
BRANCH  10  11
ATOM     11  C   UNL     1      45.590   2.582   8.859  0.00  0.00    +0.000 C 
ATOM     12  C   UNL     1      45.379   3.447   7.603  0.00  0.00    +0.000 C 
ATOM     13  C   UNL     1      46.547   3.311   6.634  0.00  0.00    +0.000 C 
ATOM     14  C   UNL     1      46.847   1.842   6.347  0.00  0.00    +0.000 C 
ATOM     15  C   UNL     1      46.995   1.039   7.637  0.00  0.00    +0.000 C 
ATOM     16  N   UNL     1      45.799   1.174   8.467  0.00  0.00    +0.000 NA
ATOM     17  H   UNL     1      45.894   0.599   9.305  0.00  0.00    +0.000 HD
ENDBRANCH  10  11
ENDBRANCH   8  10
ENDBRANCH   5   8
ENDBRANCH   1   2
BRANCH   1  20
ATOM     18  C   UNL     1      48.559   6.924  14.525  0.00  0.00    +0.000 C 
ATOM     19  O   UNL     1      49.249   6.686  13.544  0.00  0.00    +0.000 OA
ATOM     20  N   UNL     1      47.360   7.590  14.412  0.00  0.00    +0.000 N 
ATOM     21  H   UNL     1      46.815   7.761  15.253  0.00  0.00    +0.000 HD
BRANCH  18  25
ATOM     22  C   UNL     1      50.570   7.218  18.929  0.00  0.00    +0.000 C 
ATOM     23  N   UNL     1      49.821   6.666  17.826  0.00  0.00    +0.000 N 
ATOM     24  N   UNL     1      49.682   7.348  16.671  0.00  0.00    +0.000 NA
ATOM     25  C   UNL     1      48.932   6.526  15.895  0.00  0.00    +0.000 A 
ATOM     26  C   UNL     1      48.601   5.316  16.583  0.00  0.00    +0.000 A 
ATOM     27  C   UNL     1      47.916   4.119  16.416  0.00  0.00    +0.000 A 
ATOM     28 CL   UNL     1      47.107   3.726  14.981  0.00  0.00    +0.000 Cl
ATOM     29  N   UNL     1      47.852   3.193  17.387  0.00  0.00    +0.000 NA
ATOM     30  C   UNL     1      48.479   3.467  18.537  0.00  0.00    +0.000 A 
ATOM     31  N   UNL     1      49.175   4.571  18.844  0.00  0.00    +0.000 NA
ATOM     32  C   UNL     1      49.198   5.453  17.827  0.00  0.00    +0.000 A 
ENDBRANCH  18  25
ENDBRANCH   1  20
TORSDOF 6
ENDMDL
MODEL 2
REMARK VINA RESULT:    -8.021      2.027      2.750
REMARK INTER + INTRA:         -11.709
REMARK INTER:                 -10.889
REMARK INTRA:                  -0.820
REMARK UNBOUND:                -0.874
REMARK  Name = 
REMARK  7 active torsions:
REMARK  status: ('A' for Active; 'I' for Inactive)
REMARK    1  A    between atoms: C_1  and  N_2
REMARK    2  A    between atoms: C_4  and  C_5
REMARK    3  A    between atoms: N_7  and  C_8
REMARK    4  A    between atoms: C_8  and  C_9
REMARK    5  A    between atoms: C_12  and  N_13
REMARK    6  A    between atoms: N_13  and  C_14
REMARK    7  A    between atoms: C_14  and  C_15
REMARK                            x       y       z     vdW  Elec       q    Type
REMARK                         _______ _______ _______ _____ _____    ______ ____
ROOT
ATOM      1  C   UNL     1      47.929   6.549  13.600  0.00  0.00    +0.000 C 
ENDROOT
BRANCH   1   2
ATOM      2  C   UNL     1      46.861   5.853  12.812  0.00  0.00    +0.000 A 
ATOM      3  C   UNL     1      46.419   6.392  11.602  0.00  0.00    +0.000 A 
ATOM      4  C   UNL     1      45.493   5.702  10.817  0.00  0.00    +0.000 A 
ATOM      5  C   UNL     1      44.959   4.477  11.226  0.00  0.00    +0.000 A 
ATOM      6  C   UNL     1      45.391   3.959  12.453  0.00  0.00    +0.000 A 
ATOM      7  C   UNL     1      46.325   4.637  13.243  0.00  0.00    +0.000 A 
BRANCH   5   8
ATOM      8  N   UNL     1      44.109   3.722  10.447  0.00  0.00    +0.000 N 
ATOM      9  H   UNL     1      43.324   4.185   9.993  0.00  0.00    +0.000 HD
BRANCH   8  10
ATOM     10  C   UNL     1      44.422   2.403   9.920  0.00  0.00    +0.000 C 
BRANCH  10  11
ATOM     11  C   UNL     1      45.599   2.477   8.917  0.00  0.00    +0.000 C 
ATOM     12  C   UNL     1      45.288   3.471   7.783  0.00  0.00    +0.000 C 
ATOM     13  C   UNL     1      46.439   3.551   6.786  0.00  0.00    +0.000 C 
ATOM     14  C   UNL     1      46.847   2.158   6.313  0.00  0.00    +0.000 C 
ATOM     15  C   UNL     1      47.091   1.217   7.490  0.00  0.00    +0.000 C 
ATOM     16  N   UNL     1      45.909   1.150   8.348  0.00  0.00    +0.000 NA
ATOM     17  H   UNL     1      46.070   0.486   9.107  0.00  0.00    +0.000 HD
ENDBRANCH  10  11
ENDBRANCH   8  10
ENDBRANCH   5   8
ENDBRANCH   1   2
BRANCH   1  20
ATOM     18  C   UNL     1      48.921   6.442  15.807  0.00  0.00    +0.000 C 
ATOM     19  O   UNL     1      50.027   6.633  15.319  0.00  0.00    +0.000 OA
ATOM     20  N   UNL     1      47.793   6.384  15.021  0.00  0.00    +0.000 N 
ATOM     21  H   UNL     1      46.895   6.217  15.468  0.00  0.00    +0.000 HD
BRANCH  18  25
ATOM     22  C   UNL     1      48.667   4.181  20.090  0.00  0.00    +0.000 C 
ATOM     23  N   UNL     1      48.583   5.253  19.128  0.00  0.00    +0.000 N 
ATOM     24  N   UNL     1      48.883   5.044  17.830  0.00  0.00    +0.000 NA
ATOM     25  C   UNL     1      48.694   6.257  17.251  0.00  0.00    +0.000 A 
ATOM     26  C   UNL     1      48.270   7.231  18.210  0.00  0.00    +0.000 A 
ATOM     27  C   UNL     1      47.916   8.570  18.320  0.00  0.00    +0.000 A 
ATOM     28 CL   UNL     1      47.910   9.622  16.993  0.00  0.00    +0.000 Cl
ATOM     29  N   UNL     1      47.556   9.118  19.493  0.00  0.00    +0.000 NA
ATOM     30  C   UNL     1      47.550   8.319  20.566  0.00  0.00    +0.000 A 
ATOM     31  N   UNL     1      47.864   7.016  20.615  0.00  0.00    +0.000 NA
ATOM     32  C   UNL     1      48.213   6.535  19.407  0.00  0.00    +0.000 A 
ENDBRANCH  18  25
ENDBRANCH   1  20
TORSDOF 6
ENDMDL
MODEL 3
REMARK VINA RESULT:    -7.882      1.261      1.747
REMARK INTER + INTRA:         -11.520
REMARK INTER:                 -10.583
REMARK INTRA:                  -0.937
REMARK UNBOUND:                -0.874
REMARK  Name = 
REMARK  7 active torsions:
REMARK  status: ('A' for Active; 'I' for Inactive)
REMARK    1  A    between atoms: C_1  and  N_2
REMARK    2  A    between atoms: C_4  and  C_5
REMARK    3  A    between atoms: N_7  and  C_8
REMARK    4  A    between atoms: C_8  and  C_9
REMARK    5  A    between atoms: C_12  and  N_13
REMARK    6  A    between atoms: N_13  and  C_14
REMARK    7  A    between atoms: C_14  and  C_15
REMARK                            x       y       z     vdW  Elec       q    Type
REMARK                         _______ _______ _______ _____ _____    ______ ____
ROOT
ATOM      1  C   UNL     1      47.714   8.495  13.912  0.00  0.00    +0.000 C 
ENDROOT
BRANCH   1   2
ATOM      2  C   UNL     1      46.810   7.854  12.904  0.00  0.00    +0.000 A 
ATOM      3  C   UNL     1      47.187   6.662  12.282  0.00  0.00    +0.000 A 
ATOM      4  C   UNL     1      46.311   6.010  11.413  0.00  0.00    +0.000 A 
ATOM      5  C   UNL     1      45.052   6.538  11.114  0.00  0.00    +0.000 A 
ATOM      6  C   UNL     1      44.695   7.746  11.725  0.00  0.00    +0.000 A 
ATOM      7  C   UNL     1      45.561   8.404  12.604  0.00  0.00    +0.000 A 
BRANCH   5   8
ATOM      8  N   UNL     1      44.123   5.888  10.330  0.00  0.00    +0.000 N 
ATOM      9  H   UNL     1      43.833   6.325   9.458  0.00  0.00    +0.000 HD
BRANCH   8  10
ATOM     10  C   UNL     1      43.782   4.479  10.447  0.00  0.00    +0.000 C 
BRANCH  10  11
ATOM     11  C   UNL     1      44.345   3.677   9.249  0.00  0.00    +0.000 C 
ATOM     12  C   UNL     1      45.041   2.391   9.731  0.00  0.00    +0.000 C 
ATOM     13  C   UNL     1      45.604   1.593   8.560  0.00  0.00    +0.000 C 
ATOM     14  C   UNL     1      46.463   2.479   7.662  0.00  0.00    +0.000 C 
ATOM     15  C   UNL     1      45.725   3.756   7.264  0.00  0.00    +0.000 C 
ATOM     16  N   UNL     1      45.288   4.487   8.452  0.00  0.00    +0.000 NA
ATOM     17  H   UNL     1      44.834   5.358   8.173  0.00  0.00    +0.000 HD
ENDBRANCH  10  11
ENDBRANCH   8  10
ENDBRANCH   5   8
ENDBRANCH   1   2
BRANCH   1  20
ATOM     18  C   UNL     1      49.110   7.001  15.212  0.00  0.00    +0.000 C 
ATOM     19  O   UNL     1      49.977   7.062  14.350  0.00  0.00    +0.000 OA
ATOM     20  N   UNL     1      47.926   7.691  15.085  0.00  0.00    +0.000 N 
ATOM     21  H   UNL     1      47.231   7.607  15.822  0.00  0.00    +0.000 HD
BRANCH  18  25
ATOM     22  C   UNL     1      50.791   5.609  19.543  0.00  0.00    +0.000 C 
ATOM     23  N   UNL     1      49.991   5.594  18.342  0.00  0.00    +0.000 N 
ATOM     24  N   UNL     1      50.152   6.535  17.390  0.00  0.00    +0.000 NA
ATOM     25  C   UNL     1      49.243   6.198  16.440  0.00  0.00    +0.000 A 
ATOM     26  C   UNL     1      48.509   5.028  16.813  0.00  0.00    +0.000 A 
ATOM     27  C   UNL     1      47.503   4.182  16.362  0.00  0.00    +0.000 A 
ATOM     28 CL   UNL     1      46.718   4.411  14.879  0.00  0.00    +0.000 Cl
ATOM     29  N   UNL     1      47.088   3.123  17.078  0.00  0.00    +0.000 NA
ATOM     30  C   UNL     1      47.684   2.909  18.256  0.00  0.00    +0.000 A 
ATOM     31  N   UNL     1      48.662   3.634  18.820  0.00  0.00    +0.000 NA
ATOM     32  C   UNL     1      49.027   4.675  18.049  0.00  0.00    +0.000 A 
ENDBRANCH  18  25
ENDBRANCH   1  20
TORSDOF 6
ENDMDL
MODEL 4
REMARK VINA RESULT:    -7.836      1.793      2.074
REMARK INTER + INTRA:         -11.459
REMARK INTER:                 -10.658
REMARK INTRA:                  -0.801
REMARK UNBOUND:                -0.874
REMARK  Name = 
REMARK  7 active torsions:
REMARK  status: ('A' for Active; 'I' for Inactive)
REMARK    1  A    between atoms: C_1  and  N_2
REMARK    2  A    between atoms: C_4  and  C_5
REMARK    3  A    between atoms: N_7  and  C_8
REMARK    4  A    between atoms: C_8  and  C_9
REMARK    5  A    between atoms: C_12  and  N_13
REMARK    6  A    between atoms: N_13  and  C_14
REMARK    7  A    between atoms: C_14  and  C_15
REMARK                            x       y       z     vdW  Elec       q    Type
REMARK                         _______ _______ _______ _____ _____    ______ ____
ROOT
ATOM      1  C   UNL     1      48.012   6.650  13.636  0.00  0.00    +0.000 C 
ENDROOT
BRANCH   1   2
ATOM      2  C   UNL     1      47.047   5.661  13.059  0.00  0.00    +0.000 A 
ATOM      3  C   UNL     1      46.254   6.011  11.964  0.00  0.00    +0.000 A 
ATOM      4  C   UNL     1      45.422   5.066  11.361  0.00  0.00    +0.000 A 
ATOM      5  C   UNL     1      45.331   3.759  11.847  0.00  0.00    +0.000 A 
ATOM      6  C   UNL     1      46.112   3.426  12.961  0.00  0.00    +0.000 A 
ATOM      7  C   UNL     1      46.956   4.362  13.567  0.00  0.00    +0.000 A 
BRANCH   5   8
ATOM      8  N   UNL     1      44.590   2.771  11.235  0.00  0.00    +0.000 N 
ATOM      9  H   UNL     1      44.021   2.160  11.816  0.00  0.00    +0.000 HD
BRANCH   8  10
ATOM     10  C   UNL     1      44.260   2.742   9.818  0.00  0.00    +0.000 C 
BRANCH  10  11
ATOM     11  C   UNL     1      45.534   2.536   8.963  0.00  0.00    +0.000 C 
ATOM     12  C   UNL     1      45.565   3.525   7.783  0.00  0.00    +0.000 C 
ATOM     13  C   UNL     1      46.814   3.331   6.931  0.00  0.00    +0.000 C 
ATOM     14  C   UNL     1      46.978   1.867   6.532  0.00  0.00    +0.000 C 
ATOM     15  C   UNL     1      46.887   0.944   7.746  0.00  0.00    +0.000 C 
ATOM     16  N   UNL     1      45.627   1.152   8.457  0.00  0.00    +0.000 NA
ATOM     17  H   UNL     1      45.561   0.500   9.240  0.00  0.00    +0.000 HD
ENDBRANCH  10  11
ENDBRANCH   8  10
ENDBRANCH   5   8
ENDBRANCH   1   2
BRANCH   1  20
ATOM     18  C   UNL     1      48.900   6.755  15.888  0.00  0.00    +0.000 C 
ATOM     19  O   UNL     1      50.007   6.451  15.465  0.00  0.00    +0.000 OA
ATOM     20  N   UNL     1      47.822   6.883  15.042  0.00  0.00    +0.000 N 
ATOM     21  H   UNL     1      46.918   7.131  15.437  0.00  0.00    +0.000 HD
BRANCH  18  25
ATOM     22  C   UNL     1      47.758   9.220  19.906  0.00  0.00    +0.000 C 
ATOM     23  N   UNL     1      48.116   8.098  19.072  0.00  0.00    +0.000 N 
ATOM     24  N   UNL     1      48.302   8.252  17.745  0.00  0.00    +0.000 NA
ATOM     25  C   UNL     1      48.617   7.005  17.312  0.00  0.00    +0.000 A 
ATOM     26  C   UNL     1      48.626   6.065  18.392  0.00  0.00    +0.000 A 
ATOM     27  C   UNL     1      48.846   4.721  18.665  0.00  0.00    +0.000 A 
ATOM     28 CL   UNL     1      49.261   3.603  17.463  0.00  0.00    +0.000 Cl
ATOM     29  N   UNL     1      48.743   4.221  19.908  0.00  0.00    +0.000 NA
ATOM     30  C   UNL     1      48.415   5.072  20.886  0.00  0.00    +0.000 A 
ATOM     31  N   UNL     1      48.174   6.387  20.776  0.00  0.00    +0.000 NA
ATOM     32  C   UNL     1      48.297   6.819  19.507  0.00  0.00    +0.000 A 
ENDBRANCH  18  25
ENDBRANCH   1  20
TORSDOF 6
ENDMDL
MODEL 5
REMARK VINA RESULT:    -7.628      2.230      3.134
REMARK INTER + INTRA:         -11.178
REMARK INTER:                 -10.373
REMARK INTRA:                  -0.805
REMARK UNBOUND:                -0.874
REMARK  Name = 
REMARK  7 active torsions:
REMARK  status: ('A' for Active; 'I' for Inactive)
REMARK    1  A    between atoms: C_1  and  N_2
REMARK    2  A    between atoms: C_4  and  C_5
REMARK    3  A    between atoms: N_7  and  C_8
REMARK    4  A    between atoms: C_8  and  C_9
REMARK    5  A    between atoms: C_12  and  N_13
REMARK    6  A    between atoms: N_13  and  C_14
REMARK    7  A    between atoms: C_14  and  C_15
REMARK                            x       y       z     vdW  Elec       q    Type
REMARK                         _______ _______ _______ _____ _____    ______ ____
ROOT
ATOM      1  C   UNL     1      47.110   4.562  14.870  0.00  0.00    +0.000 C 
ENDROOT
BRANCH   1   2
ATOM      2  C   UNL     1      46.489   4.742  13.519  0.00  0.00    +0.000 A 
ATOM      3  C   UNL     1      46.729   5.906  12.787  0.00  0.00    +0.000 A 
ATOM      4  C   UNL     1      46.231   6.041  11.489  0.00  0.00    +0.000 A 
ATOM      5  C   UNL     1      45.457   5.039  10.897  0.00  0.00    +0.000 A 
ATOM      6  C   UNL     1      45.202   3.887  11.651  0.00  0.00    +0.000 A 
ATOM      7  C   UNL     1      45.704   3.737  12.948  0.00  0.00    +0.000 A 
BRANCH   5   8
ATOM      8  N   UNL     1      45.016   5.092   9.592  0.00  0.00    +0.000 N 
ATOM      9  H   UNL     1      45.463   5.747   8.954  0.00  0.00    +0.000 HD
BRANCH   8  10
ATOM     10  C   UNL     1      44.223   4.059   8.944  0.00  0.00    +0.000 C 
BRANCH  10  11
ATOM     11  C   UNL     1      45.090   3.238   7.958  0.00  0.00    +0.000 C 
ATOM     12  C   UNL     1      45.715   2.021   8.663  0.00  0.00    +0.000 C 
ATOM     13  C   UNL     1      46.574   1.206   7.702  0.00  0.00    +0.000 C 
ATOM     14  C   UNL     1      47.576   2.101   6.977  0.00  0.00    +0.000 C 
ATOM     15  C   UNL     1      46.891   3.311   6.345  0.00  0.00    +0.000 C 
ATOM     16  N   UNL     1      46.153   4.068   7.355  0.00  0.00    +0.000 NA
ATOM     17  H   UNL     1      45.734   4.896   6.928  0.00  0.00    +0.000 HD
ENDBRANCH  10  11
ENDBRANCH   8  10
ENDBRANCH   5   8
ENDBRANCH   1   2
BRANCH   1  20
ATOM     18  C   UNL     1      48.671   5.740  16.300  0.00  0.00    +0.000 C 
ATOM     19  O   UNL     1      49.224   4.682  16.569  0.00  0.00    +0.000 OA
ATOM     20  N   UNL     1      47.591   5.787  15.448  0.00  0.00    +0.000 N 
ATOM     21  H   UNL     1      47.159   6.687  15.258  0.00  0.00    +0.000 HD
BRANCH  18  25
ATOM     22  C   UNL     1      51.003   9.982  16.598  0.00  0.00    +0.000 C 
ATOM     23  N   UNL     1      50.126   8.900  16.975  0.00  0.00    +0.000 N 
ATOM     24  N   UNL     1      49.979   7.819  16.182  0.00  0.00    +0.000 NA
ATOM     25  C   UNL     1      49.095   7.038  16.853  0.00  0.00    +0.000 A 
ATOM     26  C   UNL     1      48.690   7.649  18.083  0.00  0.00    +0.000 A 
ATOM     27  C   UNL     1      47.875   7.437  19.187  0.00  0.00    +0.000 A 
ATOM     28 CL   UNL     1      46.931   6.043  19.370  0.00  0.00    +0.000 Cl
ATOM     29  N   UNL     1      47.783   8.332  20.186  0.00  0.00    +0.000 NA
ATOM     30  C   UNL     1      48.513   9.448  20.079  0.00  0.00    +0.000 A 
ATOM     31  N   UNL     1      49.339   9.789  19.079  0.00  0.00    +0.000 NA
ATOM     32  C   UNL     1      49.383   8.849  18.116  0.00  0.00    +0.000 A 
ENDBRANCH  18  25
ENDBRANCH   1  20
TORSDOF 6
ENDMDL
MODEL 6
REMARK VINA RESULT:    -7.062      3.630      5.267
REMARK INTER + INTRA:         -10.412
REMARK INTER:                  -9.788
REMARK INTRA:                  -0.625
REMARK UNBOUND:                -0.874
REMARK  Name = 
REMARK  7 active torsions:
REMARK  status: ('A' for Active; 'I' for Inactive)
REMARK    1  A    between atoms: C_1  and  N_2
REMARK    2  A    between atoms: C_4  and  C_5
REMARK    3  A    between atoms: N_7  and  C_8
REMARK    4  A    between atoms: C_8  and  C_9
REMARK    5  A    between atoms: C_12  and  N_13
REMARK    6  A    between atoms: N_13  and  C_14
REMARK    7  A    between atoms: C_14  and  C_15
REMARK                            x       y       z     vdW  Elec       q    Type
REMARK                         _______ _______ _______ _____ _____    ______ ____
ROOT
ATOM      1  C   UNL     1      46.597   7.370  13.137  0.00  0.00    +0.000 C 
ENDROOT
BRANCH   1   2
ATOM      2  C   UNL     1      46.146   6.083  12.518  0.00  0.00    +0.000 A 
ATOM      3  C   UNL     1      46.285   4.882  13.217  0.00  0.00    +0.000 A 
ATOM      4  C   UNL     1      45.781   3.692  12.687  0.00  0.00    +0.000 A 
ATOM      5  C   UNL     1      45.155   3.657  11.438  0.00  0.00    +0.000 A 
ATOM      6  C   UNL     1      45.044   4.864  10.736  0.00  0.00    +0.000 A 
ATOM      7  C   UNL     1      45.536   6.063  11.261  0.00  0.00    +0.000 A 
BRANCH   5   8
ATOM      8  N   UNL     1      44.570   2.525  10.914  0.00  0.00    +0.000 N 
ATOM      9  H   UNL     1      44.061   1.906  11.541  0.00  0.00    +0.000 HD
BRANCH   8  10
ATOM     10  C   UNL     1      44.302   2.311   9.500  0.00  0.00    +0.000 C 
BRANCH  10  11
ATOM     11  C   UNL     1      45.619   2.310   8.687  0.00  0.00    +0.000 C 
ATOM     12  C   UNL     1      45.527   3.281   7.496  0.00  0.00    +0.000 C 
ATOM     13  C   UNL     1      46.818   3.287   6.685  0.00  0.00    +0.000 C 
ATOM     14  C   UNL     1      47.230   1.866   6.310  0.00  0.00    +0.000 C 
ATOM     15  C   UNL     1      47.252   0.950   7.532  0.00  0.00    +0.000 C 
ATOM     16  N   UNL     1      45.953   0.955   8.201  0.00  0.00    +0.000 NA
ATOM     17  H   UNL     1      45.968   0.307   8.991  0.00  0.00    +0.000 HD
ENDBRANCH  10  11
ENDBRANCH   8  10
ENDBRANCH   5   8
ENDBRANCH   1   2
BRANCH   1  20
ATOM     18  C   UNL     1      48.982   7.570  12.765  0.00  0.00    +0.000 C 
ATOM     19  O   UNL     1      49.186   6.706  13.606  0.00  0.00    +0.000 OA
ATOM     20  N   UNL     1      47.705   7.978  12.453  0.00  0.00    +0.000 N 
ATOM     21  H   UNL     1      47.582   8.705  11.752  0.00  0.00    +0.000 HD
BRANCH  18  25
ATOM     22  C   UNL     1      52.642   8.157   9.636  0.00  0.00    +0.000 C 
ATOM     23  N   UNL     1      51.668   8.495  10.646  0.00  0.00    +0.000 N 
ATOM     24  N   UNL     1      50.800   7.572  11.108  0.00  0.00    +0.000 NA
ATOM     25  C   UNL     1      50.059   8.249  12.022  0.00  0.00    +0.000 A 
ATOM     26  C   UNL     1      50.478   9.614  12.124  0.00  0.00    +0.000 A 
ATOM     27  C   UNL     1      50.193  10.793  12.802  0.00  0.00    +0.000 A 
ATOM     28 CL   UNL     1      48.963  10.904  13.960  0.00  0.00    +0.000 Cl
ATOM     29  N   UNL     1      50.881  11.926  12.578  0.00  0.00    +0.000 NA
ATOM     30  C   UNL     1      51.861  11.879  11.669  0.00  0.00    +0.000 A 
ATOM     31  N   UNL     1      52.248  10.822  10.941  0.00  0.00    +0.000 NA
ATOM     32  C   UNL     1      51.519   9.724  11.216  0.00  0.00    +0.000 A 
ENDBRANCH  18  25
ENDBRANCH   1  20
TORSDOF 6
ENDMDL
MODEL 7
REMARK VINA RESULT:    -6.993      1.935      2.475
REMARK INTER + INTRA:         -10.319
REMARK INTER:                  -9.373
REMARK INTRA:                  -0.947
REMARK UNBOUND:                -0.874
REMARK  Name = 
REMARK  7 active torsions:
REMARK  status: ('A' for Active; 'I' for Inactive)
REMARK    1  A    between atoms: C_1  and  N_2
REMARK    2  A    between atoms: C_4  and  C_5
REMARK    3  A    between atoms: N_7  and  C_8
REMARK    4  A    between atoms: C_8  and  C_9
REMARK    5  A    between atoms: C_12  and  N_13
REMARK    6  A    between atoms: N_13  and  C_14
REMARK    7  A    between atoms: C_14  and  C_15
REMARK                            x       y       z     vdW  Elec       q    Type
REMARK                         _______ _______ _______ _____ _____    ______ ____
ROOT
ATOM      1  C   UNL     1      48.996   7.411  13.672  0.00  0.00    +0.000 C 
ENDROOT
BRANCH   1   2
ATOM      2  C   UNL     1      47.864   6.628  13.081  0.00  0.00    +0.000 A 
ATOM      3  C   UNL     1      47.306   5.561  13.787  0.00  0.00    +0.000 A 
ATOM      4  C   UNL     1      46.190   4.887  13.286  0.00  0.00    +0.000 A 
ATOM      5  C   UNL     1      45.619   5.234  12.059  0.00  0.00    +0.000 A 
ATOM      6  C   UNL     1      46.203   6.290  11.348  0.00  0.00    +0.000 A 
ATOM      7  C   UNL     1      47.315   6.978  11.845  0.00  0.00    +0.000 A 
BRANCH   5   8
ATOM      8  N   UNL     1      44.470   4.655  11.565  0.00  0.00    +0.000 N 
ATOM      9  H   UNL     1      43.851   4.173  12.214  0.00  0.00    +0.000 HD
BRANCH   8  10
ATOM     10  C   UNL     1      43.873   4.968  10.276  0.00  0.00    +0.000 C 
BRANCH  10  11
ATOM     11  C   UNL     1      44.356   3.974   9.192  0.00  0.00    +0.000 C 
ATOM     12  C   UNL     1      44.775   2.636   9.825  0.00  0.00    +0.000 C 
ATOM     13  C   UNL     1      45.256   1.649   8.767  0.00  0.00    +0.000 C 
ATOM     14  C   UNL     1      46.317   2.285   7.872  0.00  0.00    +0.000 C 
ATOM     15  C   UNL     1      45.849   3.630   7.321  0.00  0.00    +0.000 C 
ATOM     16  N   UNL     1      45.478   4.532   8.411  0.00  0.00    +0.000 NA
ATOM     17  H   UNL     1      45.208   5.440   8.030  0.00  0.00    +0.000 HD
ENDBRANCH  10  11
ENDBRANCH   8  10
ENDBRANCH   5   8
ENDBRANCH   1   2
BRANCH   1  20
ATOM     18  C   UNL     1      49.649   7.271  16.001  0.00  0.00    +0.000 C 
ATOM     19  O   UNL     1      50.578   6.536  15.696  0.00  0.00    +0.000 OA
ATOM     20  N   UNL     1      48.789   7.770  15.048  0.00  0.00    +0.000 N 
ATOM     21  H   UNL     1      48.026   8.372  15.347  0.00  0.00    +0.000 HD
BRANCH  18  25
ATOM     22  C   UNL     1      49.732   9.984  20.020  0.00  0.00    +0.000 C 
ATOM     23  N   UNL     1      49.407   8.882  19.147  0.00  0.00    +0.000 N 
ATOM     24  N   UNL     1      49.868   8.841  17.881  0.00  0.00    +0.000 NA
ATOM     25  C   UNL     1      49.362   7.683  17.386  0.00  0.00    +0.000 A 
ATOM     26  C   UNL     1      48.573   6.999  18.365  0.00  0.00    +0.000 A 
ATOM     27  C   UNL     1      47.813   5.850  18.543  0.00  0.00    +0.000 A 
ATOM     28 CL   UNL     1      47.594   4.703  17.315  0.00  0.00    +0.000 Cl
ATOM     29  N   UNL     1      47.200   5.574  19.706  0.00  0.00    +0.000 NA
ATOM     30  C   UNL     1      47.348   6.456  20.701  0.00  0.00    +0.000 A 
ATOM     31  N   UNL     1      48.046   7.602  20.678  0.00  0.00    +0.000 NA
ATOM     32  C   UNL     1      48.632   7.812  19.485  0.00  0.00    +0.000 A 
ENDBRANCH  18  25
ENDBRANCH   1  20
TORSDOF 6
ENDMDL
MODEL 8
REMARK VINA RESULT:    -6.916      3.191      4.949
REMARK INTER + INTRA:         -10.215
REMARK INTER:                  -9.439
REMARK INTRA:                  -0.776
REMARK UNBOUND:                -0.874
REMARK  Name = 
REMARK  7 active torsions:
REMARK  status: ('A' for Active; 'I' for Inactive)
REMARK    1  A    between atoms: C_1  and  N_2
REMARK    2  A    between atoms: C_4  and  C_5
REMARK    3  A    between atoms: N_7  and  C_8
REMARK    4  A    between atoms: C_8  and  C_9
REMARK    5  A    between atoms: C_12  and  N_13
REMARK    6  A    between atoms: N_13  and  C_14
REMARK    7  A    between atoms: C_14  and  C_15
REMARK                            x       y       z     vdW  Elec       q    Type
REMARK                         _______ _______ _______ _____ _____    ______ ____
ROOT
ATOM      1  C   UNL     1      47.061   6.148  14.217  0.00  0.00    +0.000 C 
ENDROOT
BRANCH   1   2
ATOM      2  C   UNL     1      46.433   5.444  13.054  0.00  0.00    +0.000 A 
ATOM      3  C   UNL     1      45.995   4.125  13.185  0.00  0.00    +0.000 A 
ATOM      4  C   UNL     1      45.324   3.495  12.135  0.00  0.00    +0.000 A 
ATOM      5  C   UNL     1      45.098   4.144  10.919  0.00  0.00    +0.000 A 
ATOM      6  C   UNL     1      45.564   5.458  10.791  0.00  0.00    +0.000 A 
ATOM      7  C   UNL     1      46.229   6.103  11.839  0.00  0.00    +0.000 A 
BRANCH   5   8
ATOM      8  N   UNL     1      44.368   3.593   9.888  0.00  0.00    +0.000 N 
ATOM      9  H   UNL     1      43.566   3.010  10.118  0.00  0.00    +0.000 HD
BRANCH   8  10
ATOM     10  C   UNL     1      44.413   4.048   8.507  0.00  0.00    +0.000 C 
BRANCH  10  11
ATOM     11  C   UNL     1      45.263   3.087   7.640  0.00  0.00    +0.000 C 
ATOM     12  C   UNL     1      45.848   1.950   8.498  0.00  0.00    +0.000 C 
ATOM     13  C   UNL     1      46.691   0.999   7.655  0.00  0.00    +0.000 C 
ATOM     14  C   UNL     1      47.724   1.768   6.836  0.00  0.00    +0.000 C 
ATOM     15  C   UNL     1      47.079   2.908   6.052  0.00  0.00    +0.000 C 
ATOM     16  N   UNL     1      46.355   3.805   6.951  0.00  0.00    +0.000 NA
ATOM     17  H   UNL     1      45.964   4.585   6.420  0.00  0.00    +0.000 HD
ENDBRANCH  10  11
ENDBRANCH   8  10
ENDBRANCH   5   8
ENDBRANCH   1   2
BRANCH   1  20
ATOM     18  C   UNL     1      48.843   7.750  13.857  0.00  0.00    +0.000 C 
ATOM     19  O   UNL     1      49.672   6.873  14.057  0.00  0.00    +0.000 OA
ATOM     20  N   UNL     1      47.493   7.485  13.914  0.00  0.00    +0.000 N 
ATOM     21  H   UNL     1      46.839   8.246  13.748  0.00  0.00    +0.000 HD
BRANCH  18  25
ATOM     22  C   UNL     1      49.008  12.577  14.295  0.00  0.00    +0.000 C 
ATOM     23  N   UNL     1      49.263  11.267  13.748  0.00  0.00    +0.000 N 
ATOM     24  N   UNL     1      48.750  10.162  14.326  0.00  0.00    +0.000 NA
ATOM     25  C   UNL     1      49.199   9.146  13.547  0.00  0.00    +0.000 A 
ATOM     26  C   UNL     1      50.004   9.633  12.468  0.00  0.00    +0.000 A 
ATOM     27  C   UNL     1      50.733   9.196  11.369  0.00  0.00    +0.000 A 
ATOM     28 CL   UNL     1      50.865   7.560  10.956  0.00  0.00    +0.000 Cl
ATOM     29  N   UNL     1      51.383  10.051  10.561  0.00  0.00    +0.000 NA
ATOM     30  C   UNL     1      51.303  11.354  10.855  0.00  0.00    +0.000 A 
ATOM     31  N   UNL     1      50.642  11.920  11.875  0.00  0.00    +0.000 NA
ATOM     32  C   UNL     1      50.015  11.008  12.641  0.00  0.00    +0.000 A 
ENDBRANCH  18  25
ENDBRANCH   1  20
TORSDOF 6
ENDMDL
MODEL 9
REMARK VINA RESULT:    -6.556      2.347      2.960
REMARK INTER + INTRA:          -9.730
REMARK INTER:                  -8.849
REMARK INTRA:                  -0.880
REMARK UNBOUND:                -0.874
REMARK  Name = 
REMARK  7 active torsions:
REMARK  status: ('A' for Active; 'I' for Inactive)
REMARK    1  A    between atoms: C_1  and  N_2
REMARK    2  A    between atoms: C_4  and  C_5
REMARK    3  A    between atoms: N_7  and  C_8
REMARK    4  A    between atoms: C_8  and  C_9
REMARK    5  A    between atoms: C_12  and  N_13
REMARK    6  A    between atoms: N_13  and  C_14
REMARK    7  A    between atoms: C_14  and  C_15
REMARK                            x       y       z     vdW  Elec       q    Type
REMARK                         _______ _______ _______ _____ _____    ______ ____
ROOT
ATOM      1  C   UNL     1      47.045   8.210  12.959  0.00  0.00    +0.000 C 
ENDROOT
BRANCH   1   2
ATOM      2  C   UNL     1      46.409   6.922  12.537  0.00  0.00    +0.000 A 
ATOM      3  C   UNL     1      46.871   5.710  13.053  0.00  0.00    +0.000 A 
ATOM      4  C   UNL     1      46.223   4.513  12.738  0.00  0.00    +0.000 A 
ATOM      5  C   UNL     1      45.122   4.485  11.878  0.00  0.00    +0.000 A 
ATOM      6  C   UNL     1      44.683   5.704  11.347  0.00  0.00    +0.000 A 
ATOM      7  C   UNL     1      45.319   6.909  11.664  0.00  0.00    +0.000 A 
BRANCH   5   8
ATOM      8  N   UNL     1      44.401   3.342  11.606  0.00  0.00    +0.000 N 
ATOM      9  H   UNL     1      43.869   2.912  12.359  0.00  0.00    +0.000 HD
BRANCH   8  10
ATOM     10  C   UNL     1      44.037   2.892  10.271  0.00  0.00    +0.000 C 
BRANCH  10  11
ATOM     11  C   UNL     1      45.292   2.763   9.374  0.00  0.00    +0.000 C 
ATOM     12  C   UNL     1      45.290   3.839   8.274  0.00  0.00    +0.000 C 
ATOM     13  C   UNL     1      46.520   3.719   7.381  0.00  0.00    +0.000 C 
ATOM     14  C   UNL     1      46.684   2.291   6.868  0.00  0.00    +0.000 C 
ATOM     15  C   UNL     1      46.626   1.278   8.009  0.00  0.00    +0.000 C 
ATOM     16  N   UNL     1      45.381   1.421   8.762  0.00  0.00    +0.000 NA
ATOM     17  H   UNL     1      45.337   0.711   9.495  0.00  0.00    +0.000 HD
ENDBRANCH  10  11
ENDBRANCH   8  10
ENDBRANCH   5   8
ENDBRANCH   1   2
BRANCH   1  20
ATOM     18  C   UNL     1      48.900   8.369  14.510  0.00  0.00    +0.000 C 
ATOM     19  O   UNL     1      48.129   8.708  15.397  0.00  0.00    +0.000 OA
ATOM     20  N   UNL     1      48.450   8.092  13.238  0.00  0.00    +0.000 N 
ATOM     21  H   UNL     1      49.127   7.820  12.530  0.00  0.00    +0.000 HD
BRANCH  18  25
ATOM     22  C   UNL     1      53.640   9.240  13.971  0.00  0.00    +0.000 C 
ATOM     23  N   UNL     1      52.434   8.619  14.462  0.00  0.00    +0.000 N 
ATOM     24  N   UNL     1      51.221   9.029  14.038  0.00  0.00    +0.000 NA
ATOM     25  C   UNL     1      50.353   8.229  14.708  0.00  0.00    +0.000 A 
ATOM     26  C   UNL     1      51.044   7.310  15.562  0.00  0.00    +0.000 A 
ATOM     27  C   UNL     1      50.815   6.282  16.467  0.00  0.00    +0.000 A 
ATOM     28 CL   UNL     1      49.258   5.749  16.866  0.00  0.00    +0.000 Cl
ATOM     29  N   UNL     1      51.821   5.642  17.086  0.00  0.00    +0.000 NA
ATOM     30  C   UNL     1      53.067   6.034  16.798  0.00  0.00    +0.000 A 
ATOM     31  N   UNL     1      53.441   7.005  15.951  0.00  0.00    +0.000 NA
ATOM     32  C   UNL     1      52.385   7.601  15.368  0.00  0.00    +0.000 A 
ENDBRANCH  18  25
ENDBRANCH   1  20
TORSDOF 6
ENDMDL
