MODEL 1
REMARK VINA RESULT:    -7.453      0.000      0.000
REMARK INTER + INTRA:         -10.817
REMARK INTER:                 -10.285
REMARK INTRA:                  -0.532
REMARK UNBOUND:                -0.532
REMARK  Name = 
REMARK  8 active torsions:
REMARK  status: ('A' for Active; 'I' for Inactive)
REMARK    1  A    between atoms: C_1  and  C_2
REMARK    2  A    between atoms: C_2  and  C_3
REMARK    3  A    between atoms: C_6  and  C_7
REMARK    4  A    between atoms: C_7  and  O_8
REMARK    5  A    between atoms: O_8  and  C_9
REMARK    6  A    between atoms: C_13  and  C_14
REMARK    7  A    between atoms: C_14  and  N_15
REMARK    8  A    between atoms: C_18  and  C_19
REMARK                            x       y       z     vdW  Elec       q    Type
REMARK                         _______ _______ _______ _____ _____    ______ ____
ROOT
ATOM      1  C   UNL     1      43.808   4.204  10.520  0.00  0.00    +0.000 C 
ENDROOT
BRANCH   1   5
ATOM      2  C   UNL     1      46.979   5.981  12.769  0.00  0.00    +0.000 A 
ATOM      3  C   UNL     1      46.390   6.580  11.663  0.00  0.00    +0.000 A 
ATOM      4  N   UNL     1      45.395   6.028  10.938  0.00  0.00    +0.000 NA
ATOM      5  C   UNL     1      44.929   4.816  11.325  0.00  0.00    +0.000 A 
ATOM      6  C   UNL     1      45.448   4.138  12.421  0.00  0.00    +0.000 A 
ATOM      7  C   UNL     1      46.485   4.725  13.146  0.00  0.00    +0.000 A 
BRANCH   2   9
ATOM      8  C   UNL     1      49.201   7.113  12.620  0.00  0.00    +0.000 C 
ATOM      9  C   UNL     1      48.053   6.710  13.532  0.00  0.00    +0.000 C 
ENDBRANCH   2   9
BRANCH   7  10
ATOM     10  C   UNL     1      47.019   4.010  14.270  0.00  0.00    +0.000 C 
ATOM     11  N   UNL     1      47.459   3.430  15.176  0.00  0.00    +0.000 NA
ENDBRANCH   7  10
ENDBRANCH   1   5
BRANCH   1  12
ATOM     12  O   UNL     1      44.074   4.366   9.125  0.00  0.00    +0.000 OA
BRANCH  12  13
ATOM     13  C   UNL     1      44.924   3.444   8.578  0.00  0.00    +0.000 A 
ATOM     14  C   UNL     1      44.889   2.161   9.108  0.00  0.00    +0.000 A 
ATOM     15  N   UNL     1      45.679   1.141   8.690  0.00  0.00    +0.000 NA
ATOM     16  C   UNL     1      46.538   1.414   7.683  0.00  0.00    +0.000 A 
ATOM     17  C   UNL     1      46.645   2.653   7.060  0.00  0.00    +0.000 A 
ATOM     18  C   UNL     1      45.829   3.683   7.545  0.00  0.00    +0.000 A 
BRANCH  17  19
ATOM     19  C   UNL     1      47.653   2.879   5.968  0.00  0.00    +0.000 C 
BRANCH  19  20
ATOM     20  N   UNL     1      48.523   1.725   5.750  0.00  0.00    +0.000 NA
ATOM     21  H   UNL     1      48.065   0.891   6.120  0.00  0.00    +0.000 HD
ATOM     22  H   UNL     1      49.376   1.843   6.294  0.00  0.00    +0.000 HD
ENDBRANCH  19  20
ENDBRANCH  17  19
ENDBRANCH  12  13
ENDBRANCH   1  12
TORSDOF 7
ENDMDL
MODEL 2
REMARK VINA RESULT:    -7.236      1.691      6.249
REMARK INTER + INTRA:         -10.518
REMARK INTER:                  -9.895
REMARK INTRA:                  -0.623
REMARK UNBOUND:                -0.532
REMARK  Name = 
REMARK  8 active torsions:
REMARK  status: ('A' for Active; 'I' for Inactive)
REMARK    1  A    between atoms: C_1  and  C_2
REMARK    2  A    between atoms: C_2  and  C_3
REMARK    3  A    between atoms: C_6  and  C_7
REMARK    4  A    between atoms: C_7  and  O_8
REMARK    5  A    between atoms: O_8  and  C_9
REMARK    6  A    between atoms: C_13  and  C_14
REMARK    7  A    between atoms: C_14  and  N_15
REMARK    8  A    between atoms: C_18  and  C_19
REMARK                            x       y       z     vdW  Elec       q    Type
REMARK                         _______ _______ _______ _____ _____    ______ ____
ROOT
ATOM      1  C   UNL     1      43.884   3.912   9.966  0.00  0.00    +0.000 C 
ENDROOT
BRANCH   1   5
ATOM      2  C   UNL     1      46.986   2.743   7.269  0.00  0.00    +0.000 A 
ATOM      3  C   UNL     1      46.612   4.063   7.486  0.00  0.00    +0.000 A 
ATOM      4  N   UNL     1      45.629   4.446   8.327  0.00  0.00    +0.000 NA
ATOM      5  C   UNL     1      44.975   3.482   9.017  0.00  0.00    +0.000 A 
ATOM      6  C   UNL     1      45.279   2.133   8.874  0.00  0.00    +0.000 A 
ATOM      7  C   UNL     1      46.291   1.762   7.988  0.00  0.00    +0.000 A 
BRANCH   2   9
ATOM      8  C   UNL     1      47.682   2.454   4.886  0.00  0.00    +0.000 C 
ATOM      9  C   UNL     1      48.130   2.432   6.340  0.00  0.00    +0.000 C 
ENDBRANCH   2   9
BRANCH   7  10
ATOM     10  C   UNL     1      46.588   0.366   7.841  0.00  0.00    +0.000 C 
ATOM     11  N   UNL     1      46.832  -0.764   7.716  0.00  0.00    +0.000 NA
ENDBRANCH   7  10
ENDBRANCH   1   5
BRANCH   1  12
ATOM     12  O   UNL     1      44.115   3.341  11.256  0.00  0.00    +0.000 OA
BRANCH  12  13
ATOM     13  C   UNL     1      45.002   4.017  12.048  0.00  0.00    +0.000 A 
ATOM     14  C   UNL     1      45.814   3.256  12.879  0.00  0.00    +0.000 A 
ATOM     15  N   UNL     1      46.729   3.773  13.734  0.00  0.00    +0.000 NA
ATOM     16  C   UNL     1      46.848   5.119  13.752  0.00  0.00    +0.000 A 
ATOM     17  C   UNL     1      46.107   5.980  12.949  0.00  0.00    +0.000 A 
ATOM     18  C   UNL     1      45.154   5.401  12.103  0.00  0.00    +0.000 A 
BRANCH  17  19
ATOM     19  C   UNL     1      46.280   7.470  13.057  0.00  0.00    +0.000 C 
BRANCH  19  20
ATOM     20  N   UNL     1      45.051   8.207  12.771  0.00  0.00    +0.000 NA
ATOM     21  H   UNL     1      44.298   7.541  12.598  0.00  0.00    +0.000 HD
ATOM     22  H   UNL     1      45.169   8.730  11.905  0.00  0.00    +0.000 HD
ENDBRANCH  19  20
ENDBRANCH  17  19
ENDBRANCH  12  13
ENDBRANCH   1  12
TORSDOF 7
ENDMDL
MODEL 3
REMARK VINA RESULT:    -7.212      1.409      6.275
REMARK INTER + INTRA:         -10.484
REMARK INTER:                 -10.077
REMARK INTRA:                  -0.407
REMARK UNBOUND:                -0.532
REMARK  Name = 
REMARK  8 active torsions:
REMARK  status: ('A' for Active; 'I' for Inactive)
REMARK    1  A    between atoms: C_1  and  C_2
REMARK    2  A    between atoms: C_2  and  C_3
REMARK    3  A    between atoms: C_6  and  C_7
REMARK    4  A    between atoms: C_7  and  O_8
REMARK    5  A    between atoms: O_8  and  C_9
REMARK    6  A    between atoms: C_13  and  C_14
REMARK    7  A    between atoms: C_14  and  N_15
REMARK    8  A    between atoms: C_18  and  C_19
REMARK                            x       y       z     vdW  Elec       q    Type
REMARK                         _______ _______ _______ _____ _____    ______ ____
ROOT
ATOM      1  C   UNL     1      43.886   3.626  10.391  0.00  0.00    +0.000 C 
ENDROOT
BRANCH   1   5
ATOM      2  C   UNL     1      46.719   2.720   7.320  0.00  0.00    +0.000 A 
ATOM      3  C   UNL     1      46.286   4.007   7.613  0.00  0.00    +0.000 A 
ATOM      4  N   UNL     1      45.386   4.307   8.573  0.00  0.00    +0.000 NA
ATOM      5  C   UNL     1      44.884   3.288   9.310  0.00  0.00    +0.000 A 
ATOM      6  C   UNL     1      45.258   1.966   9.098  0.00  0.00    +0.000 A 
ATOM      7  C   UNL     1      46.180   1.682   8.091  0.00  0.00    +0.000 A 
BRANCH   2   9
ATOM      8  C   UNL     1      47.185   2.718   4.866  0.00  0.00    +0.000 C 
ATOM      9  C   UNL     1      47.763   2.505   6.257  0.00  0.00    +0.000 C 
ENDBRANCH   2   9
BRANCH   7  10
ATOM     10  C   UNL     1      46.550   0.312   7.876  0.00  0.00    +0.000 C 
ATOM     11  N   UNL     1      46.853  -0.796   7.694  0.00  0.00    +0.000 NA
ENDBRANCH   7  10
ENDBRANCH   1   5
BRANCH   1  12
ATOM     12  O   UNL     1      43.908   5.033  10.642  0.00  0.00    +0.000 OA
BRANCH  12  13
ATOM     13  C   UNL     1      44.871   5.459  11.515  0.00  0.00    +0.000 A 
ATOM     14  C   UNL     1      45.423   6.713  11.284  0.00  0.00    +0.000 A 
ATOM     15  N   UNL     1      46.397   7.270  12.044  0.00  0.00    +0.000 NA
ATOM     16  C   UNL     1      46.834   6.543  13.096  0.00  0.00    +0.000 A 
ATOM     17  C   UNL     1      46.341   5.288  13.438  0.00  0.00    +0.000 A 
ATOM     18  C   UNL     1      45.356   4.742  12.607  0.00  0.00    +0.000 A 
BRANCH  17  19
ATOM     19  C   UNL     1      46.909   4.532  14.608  0.00  0.00    +0.000 C 
BRANCH  19  20
ATOM     20  N   UNL     1      47.291   3.163  14.268  0.00  0.00    +0.000 NA
ATOM     21  H   UNL     1      48.215   3.176  13.834  0.00  0.00    +0.000 HD
ATOM     22  H   UNL     1      46.652   2.804  13.561  0.00  0.00    +0.000 HD
ENDBRANCH  19  20
ENDBRANCH  17  19
ENDBRANCH  12  13
ENDBRANCH   1  12
TORSDOF 7
ENDMDL
MODEL 4
REMARK VINA RESULT:    -6.770      1.291      2.217
REMARK INTER + INTRA:          -9.875
REMARK INTER:                  -9.380
REMARK INTRA:                  -0.495
REMARK UNBOUND:                -0.532
REMARK  Name = 
REMARK  8 active torsions:
REMARK  status: ('A' for Active; 'I' for Inactive)
REMARK    1  A    between atoms: C_1  and  C_2
REMARK    2  A    between atoms: C_2  and  C_3
REMARK    3  A    between atoms: C_6  and  C_7
REMARK    4  A    between atoms: C_7  and  O_8
REMARK    5  A    between atoms: O_8  and  C_9
REMARK    6  A    between atoms: C_13  and  C_14
REMARK    7  A    between atoms: C_14  and  N_15
REMARK    8  A    between atoms: C_18  and  C_19
REMARK                            x       y       z     vdW  Elec       q    Type
REMARK                         _______ _______ _______ _____ _____    ______ ____
ROOT
ATOM      1  C   UNL     1      43.991   3.670  10.686  0.00  0.00    +0.000 C 
ENDROOT
BRANCH   1   5
ATOM      2  C   UNL     1      46.778   5.396  13.429  0.00  0.00    +0.000 A 
ATOM      3  C   UNL     1      46.325   4.085  13.513  0.00  0.00    +0.000 A 
ATOM      4  N   UNL     1      45.439   3.530  12.661  0.00  0.00    +0.000 NA
ATOM      5  C   UNL     1      44.973   4.296  11.645  0.00  0.00    +0.000 A 
ATOM      6  C   UNL     1      45.370   5.616  11.472  0.00  0.00    +0.000 A 
ATOM      7  C   UNL     1      46.276   6.171  12.375  0.00  0.00    +0.000 A 
BRANCH   2   9
ATOM      8  C   UNL     1      47.816   5.056  15.676  0.00  0.00    +0.000 C 
ATOM      9  C   UNL     1      47.804   5.898  14.409  0.00  0.00    +0.000 C 
ENDBRANCH   2   9
BRANCH   7  10
ATOM     10  C   UNL     1      46.669   7.539  12.190  0.00  0.00    +0.000 C 
ATOM     11  N   UNL     1      46.989   8.647  12.049  0.00  0.00    +0.000 NA
ENDBRANCH   7  10
ENDBRANCH   1   5
BRANCH   1  12
ATOM     12  O   UNL     1      44.297   4.080   9.350  0.00  0.00    +0.000 OA
BRANCH  12  13
ATOM     13  C   UNL     1      45.090   3.223   8.639  0.00  0.00    +0.000 A 
ATOM     14  C   UNL     1      45.174   1.914   9.096  0.00  0.00    +0.000 A 
ATOM     15  N   UNL     1      45.930   0.950   8.516  0.00  0.00    +0.000 NA
ATOM     16  C   UNL     1      46.628   1.308   7.416  0.00  0.00    +0.000 A 
ATOM     17  C   UNL     1      46.604   2.581   6.854  0.00  0.00    +0.000 A 
ATOM     18  C   UNL     1      45.832   3.550   7.505  0.00  0.00    +0.000 A 
BRANCH  17  19
ATOM     19  C   UNL     1      47.439   2.903   5.646  0.00  0.00    +0.000 C 
BRANCH  19  20
ATOM     20  N   UNL     1      48.482   1.909   5.395  0.00  0.00    +0.000 NA
ATOM     21  H   UNL     1      49.110   2.265   4.674  0.00  0.00    +0.000 HD
ATOM     22  H   UNL     1      48.056   1.069   5.007  0.00  0.00    +0.000 HD
ENDBRANCH  19  20
ENDBRANCH  17  19
ENDBRANCH  12  13
ENDBRANCH   1  12
TORSDOF 7
ENDMDL
MODEL 5
REMARK VINA RESULT:    -6.630      1.734      2.219
REMARK INTER + INTRA:          -9.682
REMARK INTER:                  -9.196
REMARK INTRA:                  -0.486
REMARK UNBOUND:                -0.532
REMARK  Name = 
REMARK  8 active torsions:
REMARK  status: ('A' for Active; 'I' for Inactive)
REMARK    1  A    between atoms: C_1  and  C_2
REMARK    2  A    between atoms: C_2  and  C_3
REMARK    3  A    between atoms: C_6  and  C_7
REMARK    4  A    between atoms: C_7  and  O_8
REMARK    5  A    between atoms: O_8  and  C_9
REMARK    6  A    between atoms: C_13  and  C_14
REMARK    7  A    between atoms: C_14  and  N_15
REMARK    8  A    between atoms: C_18  and  C_19
REMARK                            x       y       z     vdW  Elec       q    Type
REMARK                         _______ _______ _______ _____ _____    ______ ____
ROOT
ATOM      1  C   UNL     1      44.514   3.168  11.480  0.00  0.00    +0.000 C 
ENDROOT
BRANCH   1   5
ATOM      2  C   UNL     1      45.622   7.113  12.697  0.00  0.00    +0.000 A 
ATOM      3  C   UNL     1      44.442   6.817  12.026  0.00  0.00    +0.000 A 
ATOM      4  N   UNL     1      44.083   5.579  11.627  0.00  0.00    +0.000 NA
ATOM      5  C   UNL     1      44.922   4.554  11.915  0.00  0.00    +0.000 A 
ATOM      6  C   UNL     1      46.123   4.747  12.587  0.00  0.00    +0.000 A 
ATOM      7  C   UNL     1      46.477   6.039  12.976  0.00  0.00    +0.000 A 
BRANCH   2   9
ATOM      8  C   UNL     1      46.761   9.260  12.118  0.00  0.00    +0.000 C 
ATOM      9  C   UNL     1      45.899   8.526  13.135  0.00  0.00    +0.000 C 
ENDBRANCH   2   9
BRANCH   7  10
ATOM     10  C   UNL     1      47.724   6.225  13.661  0.00  0.00    +0.000 C 
ATOM     11  N   UNL     1      48.735   6.384  14.213  0.00  0.00    +0.000 NA
ENDBRANCH   7  10
ENDBRANCH   1   5
BRANCH   1  12
ATOM     12  O   UNL     1      44.002   3.215  10.146  0.00  0.00    +0.000 OA
BRANCH  12  13
ATOM     13  C   UNL     1      44.938   3.129   9.153  0.00  0.00    +0.000 A 
ATOM     14  C   UNL     1      45.217   4.291   8.445  0.00  0.00    +0.000 A 
ATOM     15  N   UNL     1      46.103   4.369   7.423  0.00  0.00    +0.000 NA
ATOM     16  C   UNL     1      46.754   3.229   7.099  0.00  0.00    +0.000 A 
ATOM     17  C   UNL     1      46.575   2.014   7.750  0.00  0.00    +0.000 A 
ATOM     18  C   UNL     1      45.628   1.976   8.781  0.00  0.00    +0.000 A 
BRANCH  17  19
ATOM     19  C   UNL     1      47.318   0.785   7.302  0.00  0.00    +0.000 C 
BRANCH  19  20
ATOM     20  N   UNL     1      46.682  -0.455   7.743  0.00  0.00    +0.000 NA
ATOM     21  H   UNL     1      46.446  -0.373   8.732  0.00  0.00    +0.000 HD
ATOM     22  H   UNL     1      47.356  -1.217   7.677  0.00  0.00    +0.000 HD
ENDBRANCH  19  20
ENDBRANCH  17  19
ENDBRANCH  12  13
ENDBRANCH   1  12
TORSDOF 7
ENDMDL
MODEL 6
REMARK VINA RESULT:    -5.991      3.180      7.738
REMARK INTER + INTRA:          -8.799
REMARK INTER:                  -8.352
REMARK INTRA:                  -0.447
REMARK UNBOUND:                -0.532
REMARK  Name = 
REMARK  8 active torsions:
REMARK  status: ('A' for Active; 'I' for Inactive)
REMARK    1  A    between atoms: C_1  and  C_2
REMARK    2  A    between atoms: C_2  and  C_3
REMARK    3  A    between atoms: C_6  and  C_7
REMARK    4  A    between atoms: C_7  and  O_8
REMARK    5  A    between atoms: O_8  and  C_9
REMARK    6  A    between atoms: C_13  and  C_14
REMARK    7  A    between atoms: C_14  and  N_15
REMARK    8  A    between atoms: C_18  and  C_19
REMARK                            x       y       z     vdW  Elec       q    Type
REMARK                         _______ _______ _______ _____ _____    ______ ____
ROOT
ATOM      1  C   UNL     1      47.003   5.303  14.299  0.00  0.00    +0.000 C 
ENDROOT
BRANCH   1   5
ATOM      2  C   UNL     1      44.925   4.756  10.604  0.00  0.00    +0.000 A 
ATOM      3  C   UNL     1      45.875   5.748  10.814  0.00  0.00    +0.000 A 
ATOM      4  N   UNL     1      46.531   5.939  11.977  0.00  0.00    +0.000 NA
ATOM      5  C   UNL     1      46.259   5.097  13.002  0.00  0.00    +0.000 A 
ATOM      6  C   UNL     1      45.330   4.069  12.890  0.00  0.00    +0.000 A 
ATOM      7  C   UNL     1      44.655   3.902  11.681  0.00  0.00    +0.000 A 
BRANCH   2   9
ATOM      8  C   UNL     1      45.190   3.839   8.295  0.00  0.00    +0.000 C 
ATOM      9  C   UNL     1      44.286   4.606   9.249  0.00  0.00    +0.000 C 
ENDBRANCH   2   9
BRANCH   7  10
ATOM     10  C   UNL     1      43.691   2.843  11.581  0.00  0.00    +0.000 C 
ATOM     11  N   UNL     1      42.916   1.981  11.505  0.00  0.00    +0.000 NA
ENDBRANCH   7  10
ENDBRANCH   1   5
BRANCH   1  12
ATOM     12  O   UNL     1      46.545   4.361  15.272  0.00  0.00    +0.000 OA
BRANCH  12  13
ATOM     13  C   UNL     1      47.483   3.947  16.176  0.00  0.00    +0.000 A 
ATOM     14  C   UNL     1      48.249   2.842  15.831  0.00  0.00    +0.000 A 
ATOM     15  N   UNL     1      49.205   2.298  16.623  0.00  0.00    +0.000 NA
ATOM     16  C   UNL     1      49.416   2.897  17.817  0.00  0.00    +0.000 A 
ATOM     17  C   UNL     1      48.727   4.022  18.259  0.00  0.00    +0.000 A 
ATOM     18  C   UNL     1      47.729   4.530  17.419  0.00  0.00    +0.000 A 
BRANCH  17  19
ATOM     19  C   UNL     1      49.002   4.605  19.617  0.00  0.00    +0.000 C 
BRANCH  19  20
ATOM     20  N   UNL     1      48.376   3.847  20.699  0.00  0.00    +0.000 NA
ATOM     21  H   UNL     1      49.027   3.129  21.020  0.00  0.00    +0.000 HD
ATOM     22  H   UNL     1      47.566   3.349  20.332  0.00  0.00    +0.000 HD
ENDBRANCH  19  20
ENDBRANCH  17  19
ENDBRANCH  12  13
ENDBRANCH   1  12
TORSDOF 7
ENDMDL
MODEL 7
REMARK VINA RESULT:    -5.957      2.054      3.244
REMARK INTER + INTRA:          -8.752
REMARK INTER:                  -8.086
REMARK INTRA:                  -0.667
REMARK UNBOUND:                -0.532
REMARK  Name = 
REMARK  8 active torsions:
REMARK  status: ('A' for Active; 'I' for Inactive)
REMARK    1  A    between atoms: C_1  and  C_2
REMARK    2  A    between atoms: C_2  and  C_3
REMARK    3  A    between atoms: C_6  and  C_7
REMARK    4  A    between atoms: C_7  and  O_8
REMARK    5  A    between atoms: O_8  and  C_9
REMARK    6  A    between atoms: C_13  and  C_14
REMARK    7  A    between atoms: C_14  and  N_15
REMARK    8  A    between atoms: C_18  and  C_19
REMARK                            x       y       z     vdW  Elec       q    Type
REMARK                         _______ _______ _______ _____ _____    ______ ____
ROOT
ATOM      1  C   UNL     1      43.967   5.718  12.451  0.00  0.00    +0.000 C 
ENDROOT
BRANCH   1   5
ATOM      2  C   UNL     1      47.878   7.407  12.800  0.00  0.00    +0.000 A 
ATOM      3  C   UNL     1      47.599   6.061  13.003  0.00  0.00    +0.000 A 
ATOM      4  N   UNL     1      46.369   5.516  12.906  0.00  0.00    +0.000 NA
ATOM      5  C   UNL     1      45.340   6.331  12.572  0.00  0.00    +0.000 A 
ATOM      6  C   UNL     1      45.517   7.691  12.342  0.00  0.00    +0.000 A 
ATOM      7  C   UNL     1      46.797   8.232  12.463  0.00  0.00    +0.000 A 
BRANCH   2   9
ATOM      8  C   UNL     1      50.060   7.623  11.604  0.00  0.00    +0.000 C 
ATOM      9  C   UNL     1      49.297   7.899  12.891  0.00  0.00    +0.000 C 
ENDBRANCH   2   9
BRANCH   7  10
ATOM     10  C   UNL     1      46.964   9.639  12.233  0.00  0.00    +0.000 C 
ATOM     11  N   UNL     1      47.101  10.777  12.039  0.00  0.00    +0.000 NA
ENDBRANCH   7  10
ENDBRANCH   1   5
BRANCH   1  12
ATOM     12  O   UNL     1      43.566   5.701  11.079  0.00  0.00    +0.000 OA
BRANCH  12  13
ATOM     13  C   UNL     1      43.949   4.597  10.369  0.00  0.00    +0.000 A 
ATOM     14  C   UNL     1      43.623   3.358  10.904  0.00  0.00    +0.000 A 
ATOM     15  N   UNL     1      43.946   2.171  10.334  0.00  0.00    +0.000 NA
ATOM     16  C   UNL     1      44.619   2.226   9.162  0.00  0.00    +0.000 A 
ATOM     17  C   UNL     1      44.979   3.407   8.521  0.00  0.00    +0.000 A 
ATOM     18  C   UNL     1      44.648   4.606   9.163  0.00  0.00    +0.000 A 
BRANCH  17  19
ATOM     19  C   UNL     1      45.756   3.376   7.235  0.00  0.00    +0.000 C 
BRANCH  19  20
ATOM     20  N   UNL     1      46.876   4.316   7.225  0.00  0.00    +0.000 NA
ATOM     21  H   UNL     1      47.318   4.314   8.144  0.00  0.00    +0.000 HD
ATOM     22  H   UNL     1      46.517   5.260   7.087  0.00  0.00    +0.000 HD
ENDBRANCH  19  20
ENDBRANCH  17  19
ENDBRANCH  12  13
ENDBRANCH   1  12
TORSDOF 7
ENDMDL
MODEL 8
REMARK VINA RESULT:    -5.879      1.626      2.273
REMARK INTER + INTRA:          -8.645
REMARK INTER:                  -8.235
REMARK INTRA:                  -0.410
REMARK UNBOUND:                -0.532
REMARK  Name = 
REMARK  8 active torsions:
REMARK  status: ('A' for Active; 'I' for Inactive)
REMARK    1  A    between atoms: C_1  and  C_2
REMARK    2  A    between atoms: C_2  and  C_3
REMARK    3  A    between atoms: C_6  and  C_7
REMARK    4  A    between atoms: C_7  and  O_8
REMARK    5  A    between atoms: O_8  and  C_9
REMARK    6  A    between atoms: C_13  and  C_14
REMARK    7  A    between atoms: C_14  and  N_15
REMARK    8  A    between atoms: C_18  and  C_19
REMARK                            x       y       z     vdW  Elec       q    Type
REMARK                         _______ _______ _______ _____ _____    ______ ____
ROOT
ATOM      1  C   UNL     1      45.068   6.730  11.035  0.00  0.00    +0.000 C 
ENDROOT
BRANCH   1   5
ATOM      2  C   UNL     1      48.013   6.672  14.132  0.00  0.00    +0.000 A 
ATOM      3  C   UNL     1      47.834   7.738  13.259  0.00  0.00    +0.000 A 
ATOM      4  N   UNL     1      46.916   7.767  12.272  0.00  0.00    +0.000 NA
ATOM      5  C   UNL     1      46.103   6.692  12.133  0.00  0.00    +0.000 A 
ATOM      6  C   UNL     1      46.199   5.579  12.959  0.00  0.00    +0.000 A 
ATOM      7  C   UNL     1      47.167   5.569  13.964  0.00  0.00    +0.000 A 
BRANCH   2   9
ATOM      8  C   UNL     1      49.292   8.214  15.626  0.00  0.00    +0.000 C 
ATOM      9  C   UNL     1      49.041   6.767  15.228  0.00  0.00    +0.000 C 
ENDBRANCH   2   9
BRANCH   7  10
ATOM     10  C   UNL     1      47.262   4.409  14.804  0.00  0.00    +0.000 C 
ATOM     11  N   UNL     1      47.346   3.473  15.488  0.00  0.00    +0.000 NA
ENDBRANCH   7  10
ENDBRANCH   1   5
BRANCH   1  12
ATOM     12  O   UNL     1      44.137   5.659  11.215  0.00  0.00    +0.000 OA
BRANCH  12  13
ATOM     13  C   UNL     1      44.336   4.568  10.415  0.00  0.00    +0.000 A 
ATOM     14  C   UNL     1      43.809   3.360  10.853  0.00  0.00    +0.000 A 
ATOM     15  N   UNL     1      43.934   2.186  10.187  0.00  0.00    +0.000 NA
ATOM     16  C   UNL     1      44.611   2.223   9.018  0.00  0.00    +0.000 A 
ATOM     17  C   UNL     1      45.162   3.376   8.469  0.00  0.00    +0.000 A 
ATOM     18  C   UNL     1      45.032   4.558   9.207  0.00  0.00    +0.000 A 
BRANCH  17  19
ATOM     19  C   UNL     1      45.930   3.321   7.177  0.00  0.00    +0.000 C 
BRANCH  19  20
ATOM     20  N   UNL     1      46.997   4.318   7.107  0.00  0.00    +0.000 NA
ATOM     21  H   UNL     1      46.639   5.209   7.451  0.00  0.00    +0.000 HD
ATOM     22  H   UNL     1      47.246   4.472   6.131  0.00  0.00    +0.000 HD
ENDBRANCH  19  20
ENDBRANCH  17  19
ENDBRANCH  12  13
ENDBRANCH   1  12
TORSDOF 7
ENDMDL
MODEL 9
REMARK VINA RESULT:    -5.798      2.428      3.320
REMARK INTER + INTRA:          -8.534
REMARK INTER:                  -7.953
REMARK INTRA:                  -0.581
REMARK UNBOUND:                -0.532
REMARK  Name = 
REMARK  8 active torsions:
REMARK  status: ('A' for Active; 'I' for Inactive)
REMARK    1  A    between atoms: C_1  and  C_2
REMARK    2  A    between atoms: C_2  and  C_3
REMARK    3  A    between atoms: C_6  and  C_7
REMARK    4  A    between atoms: C_7  and  O_8
REMARK    5  A    between atoms: O_8  and  C_9
REMARK    6  A    between atoms: C_13  and  C_14
REMARK    7  A    between atoms: C_14  and  N_15
REMARK    8  A    between atoms: C_18  and  C_19
REMARK                            x       y       z     vdW  Elec       q    Type
REMARK                         _______ _______ _______ _____ _____    ______ ____
ROOT
ATOM      1  C   UNL     1      45.159   5.676  12.267  0.00  0.00    +0.000 C 
ENDROOT
BRANCH   1   5
ATOM      2  C   UNL     1      47.611   9.175  12.199  0.00  0.00    +0.000 A 
ATOM      3  C   UNL     1      46.258   9.189  12.515  0.00  0.00    +0.000 A 
ATOM      4  N   UNL     1      45.470   8.094  12.531  0.00  0.00    +0.000 NA
ATOM      5  C   UNL     1      46.039   6.901  12.236  0.00  0.00    +0.000 A 
ATOM      6  C   UNL     1      47.385   6.782  11.914  0.00  0.00    +0.000 A 
ATOM      7  C   UNL     1      48.176   7.931  11.891  0.00  0.00    +0.000 A 
BRANCH   2   9
ATOM      8  C   UNL     1      48.225  11.273  10.988  0.00  0.00    +0.000 C 
ATOM      9  C   UNL     1      48.406  10.453  12.256  0.00  0.00    +0.000 C 
ENDBRANCH   2   9
BRANCH   7  10
ATOM     10  C   UNL     1      49.562   7.795  11.546  0.00  0.00    +0.000 C 
ATOM     11  N   UNL     1      50.684   7.677  11.264  0.00  0.00    +0.000 NA
ENDBRANCH   7  10
ENDBRANCH   1   5
BRANCH   1  12
ATOM     12  O   UNL     1      44.370   5.620  11.075  0.00  0.00    +0.000 OA
BRANCH  12  13
ATOM     13  C   UNL     1      44.542   4.501  10.308  0.00  0.00    +0.000 A 
ATOM     14  C   UNL     1      43.885   3.348  10.718  0.00  0.00    +0.000 A 
ATOM     15  N   UNL     1      43.967   2.155  10.079  0.00  0.00    +0.000 NA
ATOM     16  C   UNL     1      44.735   2.115   8.968  0.00  0.00    +0.000 A 
ATOM     17  C   UNL     1      45.420   3.210   8.450  0.00  0.00    +0.000 A 
ATOM     18  C   UNL     1      45.328   4.412   9.160  0.00  0.00    +0.000 A 
BRANCH  17  19
ATOM     19  C   UNL     1      46.280   3.068   7.225  0.00  0.00    +0.000 C 
BRANCH  19  20
ATOM     20  N   UNL     1      46.848   4.339   6.780  0.00  0.00    +0.000 NA
ATOM     21  H   UNL     1      46.182   5.087   6.978  0.00  0.00    +0.000 HD
ATOM     22  H   UNL     1      46.956   4.320   5.767  0.00  0.00    +0.000 HD
ENDBRANCH  19  20
ENDBRANCH  17  19
ENDBRANCH  12  13
ENDBRANCH   1  12
TORSDOF 7
ENDMDL
