MODEL 1
REMARK VINA RESULT:    -8.883      0.000      0.000
REMARK INTER + INTRA:         -12.981
REMARK INTER:                 -11.999
REMARK INTRA:                  -0.982
REMARK UNBOUND:                -0.982
REMARK  Name = 
REMARK  8 active torsions:
REMARK  status: ('A' for Active; 'I' for Inactive)
REMARK    1  A    between atoms: C_1  and  C_2
REMARK    2  A    between atoms: C_4  and  C_5
REMARK    3  A    between atoms: C_13  and  C_14
REMARK    4  A    between atoms: C_14  and  C_15
REMARK    5  A    between atoms: C_14  and  C_16
REMARK    6  A    between atoms: C_16  and  O_17
REMARK    7  A    between atoms: O_17  and  C_18
REMARK    8  A    between atoms: C_21  and  C_22
REMARK                            x       y       z     vdW  Elec       q    Type
REMARK                         _______ _______ _______ _____ _____    ______ ____
ROOT
ATOM      1  C   UNL     1      43.658   4.554  12.504  0.00  0.00    +0.000 C 
ATOM      2  C   UNL     1      42.994   5.729  11.784  0.00  0.00    +0.000 C 
ENDROOT
BRANCH   1   8
ATOM      3  C   UNL     1      47.378   3.814  15.581  0.00  0.00    +0.000 C 
ATOM      4  C   UNL     1      46.790   4.597  14.448  0.00  0.00    +0.000 A 
ATOM      5  N   UNL     1      47.512   5.610  13.938  0.00  0.00    +0.000 NA
ATOM      6  C   UNL     1      46.971   6.302  12.913  0.00  0.00    +0.000 A 
ATOM      7  C   UNL     1      45.717   5.994  12.413  0.00  0.00    +0.000 A 
ATOM      8  C   UNL     1      45.041   4.939  12.992  0.00  0.00    +0.000 A 
ATOM      9  N   UNL     1      45.565   4.239  14.019  0.00  0.00    +0.000 NA
BRANCH   6  10
ATOM     10  C   UNL     1      47.775   7.424  12.380  0.00  0.00    +0.000 A 
ATOM     11  C   UNL     1      47.245   8.726  12.268  0.00  0.00    +0.000 A 
ATOM     12  C   UNL     1      48.026   9.800  11.834  0.00  0.00    +0.000 A 
ATOM     13  C   UNL     1      49.356   9.593  11.483  0.00  0.00    +0.000 A 
ATOM     14  C   UNL     1      49.892   8.310  11.552  0.00  0.00    +0.000 A 
ATOM     15 CL   UNL     1      51.536   8.053  11.113  0.00  0.00    +0.000 Cl
ATOM     16  C   UNL     1      49.113   7.235  11.988  0.00  0.00    +0.000 A 
ENDBRANCH   6  10
ENDBRANCH   1   8
BRANCH   1  17
ATOM     17  C   UNL     1      43.764   3.310  11.613  0.00  0.00    +0.000 C 
BRANCH  17  18
ATOM     18  O   UNL     1      43.519   3.642  10.238  0.00  0.00    +0.000 OA
BRANCH  18  19
ATOM     19  C   UNL     1      44.502   3.275   9.367  0.00  0.00    +0.000 A 
ATOM     20  C   UNL     1      45.020   2.008   9.181  0.00  0.00    +0.000 A 
ATOM     21  N   UNL     1      45.987   1.700   8.288  0.00  0.00    +0.000 NA
ATOM     22  C   UNL     1      46.448   2.740   7.554  0.00  0.00    +0.000 A 
ATOM     23  N   UNL     1      46.029   4.017   7.646  0.00  0.00    +0.000 NA
ATOM     24  C   UNL     1      45.060   4.249   8.560  0.00  0.00    +0.000 A 
BRANCH  22  25
ATOM     25  C   UNL     1      47.518   2.402   6.544  0.00  0.00    +0.000 C 
ATOM     26  N   UNL     1      47.443   3.092   5.355  0.00  0.00    +0.000 N 
ATOM     27  O   UNL     1      48.406   1.579   6.731  0.00  0.00    +0.000 OA
ATOM     28  H   UNL     1      46.707   3.771   5.207  0.00  0.00    +0.000 HD
ATOM     29  H   UNL     1      48.132   2.910   4.638  0.00  0.00    +0.000 HD
ENDBRANCH  22  25
ENDBRANCH  18  19
ENDBRANCH  17  18
ENDBRANCH   1  17
TORSDOF 6
ENDMDL
MODEL 2
REMARK VINA RESULT:    -8.499      1.890      3.935
REMARK INTER + INTRA:         -12.462
REMARK INTER:                 -11.548
REMARK INTRA:                  -0.914
REMARK UNBOUND:                -0.982
REMARK  Name = 
REMARK  8 active torsions:
REMARK  status: ('A' for Active; 'I' for Inactive)
REMARK    1  A    between atoms: C_1  and  C_2
REMARK    2  A    between atoms: C_4  and  C_5
REMARK    3  A    between atoms: C_13  and  C_14
REMARK    4  A    between atoms: C_14  and  C_15
REMARK    5  A    between atoms: C_14  and  C_16
REMARK    6  A    between atoms: C_16  and  O_17
REMARK    7  A    between atoms: O_17  and  C_18
REMARK    8  A    between atoms: C_21  and  C_22
REMARK                            x       y       z     vdW  Elec       q    Type
REMARK                         _______ _______ _______ _____ _____    ______ ____
ROOT
ATOM      1  C   UNL     1      43.728   4.519  12.498  0.00  0.00    +0.000 C 
ATOM      2  C   UNL     1      42.988   5.623  11.742  0.00  0.00    +0.000 C 
ENDROOT
BRANCH   1   8
ATOM      3  C   UNL     1      47.710   7.181  11.540  0.00  0.00    +0.000 C 
ATOM      4  C   UNL     1      46.992   6.233  12.450  0.00  0.00    +0.000 A 
ATOM      5  N   UNL     1      47.621   5.832  13.568  0.00  0.00    +0.000 NA
ATOM      6  C   UNL     1      46.958   4.982  14.381  0.00  0.00    +0.000 A 
ATOM      7  C   UNL     1      45.688   4.526  14.072  0.00  0.00    +0.000 A 
ATOM      8  C   UNL     1      45.112   4.986  12.905  0.00  0.00    +0.000 A 
ATOM      9  N   UNL     1      45.760   5.833  12.079  0.00  0.00    +0.000 NA
BRANCH   6  10
ATOM     10  C   UNL     1      47.677   4.540  15.597  0.00  0.00    +0.000 A 
ATOM     11  C   UNL     1      47.701   3.187  15.991  0.00  0.00    +0.000 A 
ATOM     12  C   UNL     1      48.439   2.758  17.097  0.00  0.00    +0.000 A 
ATOM     13  C   UNL     1      49.160   3.680  17.848  0.00  0.00    +0.000 A 
ATOM     14  C   UNL     1      49.125   5.027  17.499  0.00  0.00    +0.000 A 
ATOM     15 CL   UNL     1      50.013   6.169  18.432  0.00  0.00    +0.000 Cl
ATOM     16  C   UNL     1      48.389   5.457  16.392  0.00  0.00    +0.000 A 
ENDBRANCH   6  10
ENDBRANCH   1   8
BRANCH   1  17
ATOM     17  C   UNL     1      43.850   3.231  11.674  0.00  0.00    +0.000 C 
BRANCH  17  18
ATOM     18  O   UNL     1      43.457   3.454  10.312  0.00  0.00    +0.000 OA
BRANCH  18  19
ATOM     19  C   UNL     1      44.437   3.258   9.384  0.00  0.00    +0.000 A 
ATOM     20  C   UNL     1      45.011   4.212   8.565  0.00  0.00    +0.000 A 
ATOM     21  N   UNL     1      45.993   3.962   7.671  0.00  0.00    +0.000 NA
ATOM     22  C   UNL     1      46.404   2.673   7.610  0.00  0.00    +0.000 A 
ATOM     23  N   UNL     1      45.921   1.656   8.349  0.00  0.00    +0.000 NA
ATOM     24  C   UNL     1      44.941   1.982   9.222  0.00  0.00    +0.000 A 
BRANCH  22  25
ATOM     25  C   UNL     1      47.511   2.388   6.624  0.00  0.00    +0.000 C 
ATOM     26  N   UNL     1      47.416   3.054   5.424  0.00  0.00    +0.000 N 
ATOM     27  O   UNL     1      48.445   1.624   6.840  0.00  0.00    +0.000 OA
ATOM     28  H   UNL     1      46.642   3.684   5.252  0.00  0.00    +0.000 HD
ATOM     29  H   UNL     1      48.128   2.905   4.722  0.00  0.00    +0.000 HD
ENDBRANCH  22  25
ENDBRANCH  18  19
ENDBRANCH  17  18
ENDBRANCH   1  17
TORSDOF 6
ENDMDL
MODEL 3
REMARK VINA RESULT:    -8.035      2.830      3.402
REMARK INTER + INTRA:         -11.836
REMARK INTER:                 -10.884
REMARK INTRA:                  -0.952
REMARK UNBOUND:                -0.982
REMARK  Name = 
REMARK  8 active torsions:
REMARK  status: ('A' for Active; 'I' for Inactive)
REMARK    1  A    between atoms: C_1  and  C_2
REMARK    2  A    between atoms: C_4  and  C_5
REMARK    3  A    between atoms: C_13  and  C_14
REMARK    4  A    between atoms: C_14  and  C_15
REMARK    5  A    between atoms: C_14  and  C_16
REMARK    6  A    between atoms: C_16  and  O_17
REMARK    7  A    between atoms: O_17  and  C_18
REMARK    8  A    between atoms: C_21  and  C_22
REMARK                            x       y       z     vdW  Elec       q    Type
REMARK                         _______ _______ _______ _____ _____    ______ ____
ROOT
ATOM      1  C   UNL     1      44.370   4.562  12.936  0.00  0.00    +0.000 C 
ATOM      2  C   UNL     1      42.893   4.960  12.963  0.00  0.00    +0.000 C 
ENDROOT
BRANCH   1   8
ATOM      3  C   UNL     1      48.811   6.592  12.837  0.00  0.00    +0.000 C 
ATOM      4  C   UNL     1      47.336   6.730  12.622  0.00  0.00    +0.000 A 
ATOM      5  N   UNL     1      46.864   7.921  12.215  0.00  0.00    +0.000 NA
ATOM      6  C   UNL     1      45.532   8.027  12.019  0.00  0.00    +0.000 A 
ATOM      7  C   UNL     1      44.680   6.958  12.243  0.00  0.00    +0.000 A 
ATOM      8  C   UNL     1      45.244   5.769  12.660  0.00  0.00    +0.000 A 
ATOM      9  N   UNL     1      46.572   5.646  12.863  0.00  0.00    +0.000 NA
BRANCH   6  10
ATOM     10  C   UNL     1      45.034   9.352  11.589  0.00  0.00    +0.000 A 
ATOM     11  C   UNL     1      45.791  10.525  11.782  0.00  0.00    +0.000 A 
ATOM     12  C   UNL     1      45.354  11.766  11.311  0.00  0.00    +0.000 A 
ATOM     13  C   UNL     1      44.135  11.864  10.648  0.00  0.00    +0.000 A 
ATOM     14  C   UNL     1      43.354  10.726  10.475  0.00  0.00    +0.000 A 
ATOM     15 CL   UNL     1      41.844  10.849   9.658  0.00  0.00    +0.000 Cl
ATOM     16  C   UNL     1      43.791   9.484  10.943  0.00  0.00    +0.000 A 
ENDBRANCH   6  10
ENDBRANCH   1   8
BRANCH   1  17
ATOM     17  C   UNL     1      44.661   3.477  11.892  0.00  0.00    +0.000 C 
BRANCH  17  18
ATOM     18  O   UNL     1      44.142   3.850  10.607  0.00  0.00    +0.000 OA
BRANCH  18  19
ATOM     19  C   UNL     1      44.931   3.524   9.543  0.00  0.00    +0.000 A 
ATOM     20  C   UNL     1      45.313   2.256   9.147  0.00  0.00    +0.000 A 
ATOM     21  N   UNL     1      46.086   1.991   8.072  0.00  0.00    +0.000 NA
ATOM     22  C   UNL     1      46.491   3.076   7.370  0.00  0.00    +0.000 A 
ATOM     23  N   UNL     1      46.191   4.357   7.657  0.00  0.00    +0.000 NA
ATOM     24  C   UNL     1      45.413   4.544   8.747  0.00  0.00    +0.000 A 
BRANCH  22  25
ATOM     25  C   UNL     1      47.344   2.788   6.158  0.00  0.00    +0.000 C 
ATOM     26  N   UNL     1      48.652   2.453   6.425  0.00  0.00    +0.000 N 
ATOM     27  O   UNL     1      46.937   2.836   5.003  0.00  0.00    +0.000 OA
ATOM     28  H   UNL     1      48.982   2.414   7.381  0.00  0.00    +0.000 HD
ATOM     29  H   UNL     1      49.274   2.249   5.654  0.00  0.00    +0.000 HD
ENDBRANCH  22  25
ENDBRANCH  18  19
ENDBRANCH  17  18
ENDBRANCH   1  17
TORSDOF 6
ENDMDL
MODEL 4
REMARK VINA RESULT:    -7.836      2.147      2.870
REMARK INTER + INTRA:         -11.566
REMARK INTER:                 -10.803
REMARK INTRA:                  -0.764
REMARK UNBOUND:                -0.982
REMARK  Name = 
REMARK  8 active torsions:
REMARK  status: ('A' for Active; 'I' for Inactive)
REMARK    1  A    between atoms: C_1  and  C_2
REMARK    2  A    between atoms: C_4  and  C_5
REMARK    3  A    between atoms: C_13  and  C_14
REMARK    4  A    between atoms: C_14  and  C_15
REMARK    5  A    between atoms: C_14  and  C_16
REMARK    6  A    between atoms: C_16  and  O_17
REMARK    7  A    between atoms: O_17  and  C_18
REMARK    8  A    between atoms: C_21  and  C_22
REMARK                            x       y       z     vdW  Elec       q    Type
REMARK                         _______ _______ _______ _____ _____    ______ ____
ROOT
ATOM      1  C   UNL     1      44.059   5.005  12.108  0.00  0.00    +0.000 C 
ATOM      2  C   UNL     1      42.896   5.021  13.100  0.00  0.00    +0.000 C 
ENDROOT
BRANCH   1   8
ATOM      3  C   UNL     1      44.550   9.782  11.214  0.00  0.00    +0.000 C 
ATOM      4  C   UNL     1      45.115   8.524  11.796  0.00  0.00    +0.000 A 
ATOM      5  N   UNL     1      46.328   8.583  12.374  0.00  0.00    +0.000 NA
ATOM      6  C   UNL     1      46.821   7.442  12.900  0.00  0.00    +0.000 A 
ATOM      7  C   UNL     1      46.117   6.252  12.835  0.00  0.00    +0.000 A 
ATOM      8  C   UNL     1      44.879   6.275  12.225  0.00  0.00    +0.000 A 
ATOM      9  N   UNL     1      44.372   7.406  11.692  0.00  0.00    +0.000 NA
BRANCH   6  10
ATOM     10  C   UNL     1      48.165   7.528  13.514  0.00  0.00    +0.000 A 
ATOM     11  C   UNL     1      49.189   8.311  12.945  0.00  0.00    +0.000 A 
ATOM     12  C   UNL     1      50.435   8.450  13.563  0.00  0.00    +0.000 A 
ATOM     13  C   UNL     1      50.691   7.792  14.762  0.00  0.00    +0.000 A 
ATOM     14  C   UNL     1      49.706   6.986  15.326  0.00  0.00    +0.000 A 
ATOM     15 CL   UNL     1      50.025   6.168  16.806  0.00  0.00    +0.000 Cl
ATOM     16  C   UNL     1      48.460   6.847  14.710  0.00  0.00    +0.000 A 
ENDBRANCH   6  10
ENDBRANCH   1   8
BRANCH   1  17
ATOM     17  C   UNL     1      43.584   4.842  10.658  0.00  0.00    +0.000 C 
BRANCH  17  18
ATOM     18  O   UNL     1      43.622   3.464  10.259  0.00  0.00    +0.000 OA
BRANCH  18  19
ATOM     19  C   UNL     1      44.589   3.148   9.350  0.00  0.00    +0.000 A 
ATOM     20  C   UNL     1      45.107   1.894   9.088  0.00  0.00    +0.000 A 
ATOM     21  N   UNL     1      46.056   1.637   8.161  0.00  0.00    +0.000 NA
ATOM     22  C   UNL     1      46.499   2.716   7.474  0.00  0.00    +0.000 A 
ATOM     23  N   UNL     1      46.078   3.984   7.640  0.00  0.00    +0.000 NA
ATOM     24  C   UNL     1      45.126   4.164   8.584  0.00  0.00    +0.000 A 
BRANCH  22  25
ATOM     25  C   UNL     1      47.550   2.435   6.426  0.00  0.00    +0.000 C 
ATOM     26  N   UNL     1      47.399   3.123   5.243  0.00  0.00    +0.000 N 
ATOM     27  O   UNL     1      48.485   1.659   6.579  0.00  0.00    +0.000 OA
ATOM     28  H   UNL     1      46.624   3.763   5.123  0.00  0.00    +0.000 HD
ATOM     29  H   UNL     1      48.071   2.978   4.502  0.00  0.00    +0.000 HD
ENDBRANCH  22  25
ENDBRANCH  18  19
ENDBRANCH  17  18
ENDBRANCH   1  17
TORSDOF 6
ENDMDL
MODEL 5
REMARK VINA RESULT:    -7.748      3.516      7.277
REMARK INTER + INTRA:         -11.447
REMARK INTER:                 -10.495
REMARK INTRA:                  -0.952
REMARK UNBOUND:                -0.982
REMARK  Name = 
REMARK  8 active torsions:
REMARK  status: ('A' for Active; 'I' for Inactive)
REMARK    1  A    between atoms: C_1  and  C_2
REMARK    2  A    between atoms: C_4  and  C_5
REMARK    3  A    between atoms: C_13  and  C_14
REMARK    4  A    between atoms: C_14  and  C_15
REMARK    5  A    between atoms: C_14  and  C_16
REMARK    6  A    between atoms: C_16  and  O_17
REMARK    7  A    between atoms: O_17  and  C_18
REMARK    8  A    between atoms: C_21  and  C_22
REMARK                            x       y       z     vdW  Elec       q    Type
REMARK                         _______ _______ _______ _____ _____    ______ ____
ROOT
ATOM      1  C   UNL     1      46.333   7.430  11.228  0.00  0.00    +0.000 C 
ATOM      2  C   UNL     1      45.383   8.295  12.058  0.00  0.00    +0.000 C 
ENDROOT
BRANCH   1   8
ATOM      3  C   UNL     1      42.664   4.241  11.695  0.00  0.00    +0.000 C 
ATOM      4  C   UNL     1      43.912   4.661  10.982  0.00  0.00    +0.000 A 
ATOM      5  N   UNL     1      44.356   3.889   9.975  0.00  0.00    +0.000 NA
ATOM      6  C   UNL     1      45.479   4.285   9.339  0.00  0.00    +0.000 A 
ATOM      7  C   UNL     1      46.157   5.432   9.714  0.00  0.00    +0.000 A 
ATOM      8  C   UNL     1      45.636   6.170  10.757  0.00  0.00    +0.000 A 
ATOM      9  N   UNL     1      44.517   5.787  11.406  0.00  0.00    +0.000 NA
BRANCH   6  10
ATOM     10  C   UNL     1      45.959   3.410   8.247  0.00  0.00    +0.000 A 
ATOM     11  C   UNL     1      46.340   3.931   6.994  0.00  0.00    +0.000 A 
ATOM     12  C   UNL     1      46.863   3.115   5.988  0.00  0.00    +0.000 A 
ATOM     13  C   UNL     1      47.000   1.748   6.207  0.00  0.00    +0.000 A 
ATOM     14  C   UNL     1      46.600   1.204   7.423  0.00  0.00    +0.000 A 
ATOM     15 CL   UNL     1      46.766  -0.488   7.692  0.00  0.00    +0.000 Cl
ATOM     16  C   UNL     1      46.079   2.020   8.431  0.00  0.00    +0.000 A 
ENDBRANCH   6  10
ENDBRANCH   1   8
BRANCH   1  17
ATOM     17  C   UNL     1      47.599   7.048  12.005  0.00  0.00    +0.000 C 
BRANCH  17  18
ATOM     18  O   UNL     1      47.440   7.311  13.407  0.00  0.00    +0.000 OA
BRANCH  18  19
ATOM     19  C   UNL     1      47.507   6.215  14.216  0.00  0.00    +0.000 A 
ATOM     20  C   UNL     1      46.793   5.039  14.087  0.00  0.00    +0.000 A 
ATOM     21  N   UNL     1      46.913   3.977  14.913  0.00  0.00    +0.000 NA
ATOM     22  C   UNL     1      47.802   4.128  15.923  0.00  0.00    +0.000 A 
ATOM     23  N   UNL     1      48.552   5.222  16.156  0.00  0.00    +0.000 NA
ATOM     24  C   UNL     1      48.379   6.244  15.288  0.00  0.00    +0.000 A 
BRANCH  22  25
ATOM     25  C   UNL     1      47.953   2.940  16.843  0.00  0.00    +0.000 C 
ATOM     26  N   UNL     1      46.876   2.691  17.663  0.00  0.00    +0.000 N 
ATOM     27  O   UNL     1      48.946   2.223  16.885  0.00  0.00    +0.000 OA
ATOM     28  H   UNL     1      46.059   3.287  17.623  0.00  0.00    +0.000 HD
ATOM     29  H   UNL     1      46.917   1.909  18.302  0.00  0.00    +0.000 HD
ENDBRANCH  22  25
ENDBRANCH  18  19
ENDBRANCH  17  18
ENDBRANCH   1  17
TORSDOF 6
ENDMDL
MODEL 6
REMARK VINA RESULT:    -7.211      1.998      2.657
REMARK INTER + INTRA:         -10.722
REMARK INTER:                 -10.447
REMARK INTRA:                  -0.276
REMARK UNBOUND:                -0.982
REMARK  Name = 
REMARK  8 active torsions:
REMARK  status: ('A' for Active; 'I' for Inactive)
REMARK    1  A    between atoms: C_1  and  C_2
REMARK    2  A    between atoms: C_4  and  C_5
REMARK    3  A    between atoms: C_13  and  C_14
REMARK    4  A    between atoms: C_14  and  C_15
REMARK    5  A    between atoms: C_14  and  C_16
REMARK    6  A    between atoms: C_16  and  O_17
REMARK    7  A    between atoms: O_17  and  C_18
REMARK    8  A    between atoms: C_21  and  C_22
REMARK                            x       y       z     vdW  Elec       q    Type
REMARK                         _______ _______ _______ _____ _____    ______ ____
ROOT
ATOM      1  C   UNL     1      45.522   4.574  11.689  0.00  0.00    +0.000 C 
ATOM      2  C   UNL     1      45.310   3.393  12.638  0.00  0.00    +0.000 C 
ENDROOT
BRANCH   1   8
ATOM      3  C   UNL     1      48.459   5.945  15.343  0.00  0.00    +0.000 C 
ATOM      4  C   UNL     1      47.742   6.296  14.076  0.00  0.00    +0.000 A 
ATOM      5  N   UNL     1      47.870   7.548  13.602  0.00  0.00    +0.000 NA
ATOM      6  C   UNL     1      47.223   7.847  12.456  0.00  0.00    +0.000 A 
ATOM      7  C   UNL     1      46.445   6.909  11.798  0.00  0.00    +0.000 A 
ATOM      8  C   UNL     1      46.365   5.646  12.349  0.00  0.00    +0.000 A 
ATOM      9  N   UNL     1      47.003   5.331  13.496  0.00  0.00    +0.000 NA
BRANCH   6  10
ATOM     10  C   UNL     1      47.364   9.235  11.964  0.00  0.00    +0.000 A 
ATOM     11  C   UNL     1      48.576   9.709  11.423  0.00  0.00    +0.000 A 
ATOM     12  C   UNL     1      48.689  10.996  10.892  0.00  0.00    +0.000 A 
ATOM     13  C   UNL     1      47.590  11.850  10.906  0.00  0.00    +0.000 A 
ATOM     14  C   UNL     1      46.392  11.417  11.466  0.00  0.00    +0.000 A 
ATOM     15 CL   UNL     1      45.034  12.474  11.487  0.00  0.00    +0.000 Cl
ATOM     16  C   UNL     1      46.277  10.129  11.995  0.00  0.00    +0.000 A 
ENDBRANCH   6  10
ENDBRANCH   1   8
BRANCH   1  17
ATOM     17  C   UNL     1      44.196   5.189  11.221  0.00  0.00    +0.000 C 
BRANCH  17  18
ATOM     18  O   UNL     1      43.666   4.471  10.097  0.00  0.00    +0.000 OA
BRANCH  18  19
ATOM     19  C   UNL     1      44.596   3.883   9.291  0.00  0.00    +0.000 A 
ATOM     20  C   UNL     1      45.500   4.518   8.461  0.00  0.00    +0.000 A 
ATOM     21  N   UNL     1      46.411   3.881   7.693  0.00  0.00    +0.000 NA
ATOM     22  C   UNL     1      46.394   2.530   7.777  0.00  0.00    +0.000 A 
ATOM     23  N   UNL     1      45.563   1.798   8.543  0.00  0.00    +0.000 NA
ATOM     24  C   UNL     1      44.679   2.504   9.284  0.00  0.00    +0.000 A 
BRANCH  22  25
ATOM     25  C   UNL     1      47.421   1.811   6.934  0.00  0.00    +0.000 C 
ATOM     26  N   UNL     1      48.435   2.600   6.442  0.00  0.00    +0.000 N 
ATOM     27  O   UNL     1      47.388   0.612   6.683  0.00  0.00    +0.000 OA
ATOM     28  H   UNL     1      48.457   3.590   6.654  0.00  0.00    +0.000 HD
ATOM     29  H   UNL     1      49.153   2.177   5.870  0.00  0.00    +0.000 HD
ENDBRANCH  22  25
ENDBRANCH  18  19
ENDBRANCH  17  18
ENDBRANCH   1  17
TORSDOF 6
ENDMDL
MODEL 7
REMARK VINA RESULT:    -6.999      4.206      7.762
REMARK INTER + INTRA:         -10.435
REMARK INTER:                  -9.472
REMARK INTRA:                  -0.963
REMARK UNBOUND:                -0.982
REMARK  Name = 
REMARK  8 active torsions:
REMARK  status: ('A' for Active; 'I' for Inactive)
REMARK    1  A    between atoms: C_1  and  C_2
REMARK    2  A    between atoms: C_4  and  C_5
REMARK    3  A    between atoms: C_13  and  C_14
REMARK    4  A    between atoms: C_14  and  C_15
REMARK    5  A    between atoms: C_14  and  C_16
REMARK    6  A    between atoms: C_16  and  O_17
REMARK    7  A    between atoms: O_17  and  C_18
REMARK    8  A    between atoms: C_21  and  C_22
REMARK                            x       y       z     vdW  Elec       q    Type
REMARK                         _______ _______ _______ _____ _____    ______ ____
ROOT
ATOM      1  C   UNL     1      48.855   8.449  12.211  0.00  0.00    +0.000 C 
ATOM      2  C   UNL     1      49.106   9.849  12.773  0.00  0.00    +0.000 C 
ENDROOT
BRANCH   1   8
ATOM      3  C   UNL     1      44.328  10.237  11.801  0.00  0.00    +0.000 C 
ATOM      4  C   UNL     1      45.235   9.047  11.845  0.00  0.00    +0.000 A 
ATOM      5  N   UNL     1      44.682   7.826  11.740  0.00  0.00    +0.000 NA
ATOM      6  C   UNL     1      45.514   6.763  11.775  0.00  0.00    +0.000 A 
ATOM      7  C   UNL     1      46.881   6.919  11.928  0.00  0.00    +0.000 A 
ATOM      8  C   UNL     1      47.370   8.206  12.029  0.00  0.00    +0.000 A 
ATOM      9  N   UNL     1      46.553   9.279  11.999  0.00  0.00    +0.000 NA
BRANCH   6  10
ATOM     10  C   UNL     1      44.881   5.429  11.676  0.00  0.00    +0.000 A 
ATOM     11  C   UNL     1      44.044   4.930  12.695  0.00  0.00    +0.000 A 
ATOM     12  C   UNL     1      43.389   3.703  12.570  0.00  0.00    +0.000 A 
ATOM     13  C   UNL     1      43.569   2.935  11.424  0.00  0.00    +0.000 A 
ATOM     14  C   UNL     1      44.417   3.390  10.419  0.00  0.00    +0.000 A 
ATOM     15 CL   UNL     1      44.644   2.437   9.004  0.00  0.00    +0.000 Cl
ATOM     16  C   UNL     1      45.072   4.618  10.542  0.00  0.00    +0.000 A 
ENDBRANCH   6  10
ENDBRANCH   1   8
BRANCH   1  17
ATOM     17  C   UNL     1      49.442   7.350  13.104  0.00  0.00    +0.000 C 
BRANCH  17  18
ATOM     18  O   UNL     1      49.339   7.705  14.491  0.00  0.00    +0.000 OA
BRANCH  18  19
ATOM     19  C   UNL     1      48.959   6.695  15.324  0.00  0.00    +0.000 A 
ATOM     20  C   UNL     1      49.360   6.499  16.632  0.00  0.00    +0.000 A 
ATOM     21  N   UNL     1      48.937   5.485  17.418  0.00  0.00    +0.000 NA
ATOM     22  C   UNL     1      48.065   4.628  16.836  0.00  0.00    +0.000 A 
ATOM     23  N   UNL     1      47.604   4.709  15.573  0.00  0.00    +0.000 NA
ATOM     24  C   UNL     1      48.071   5.751  14.847  0.00  0.00    +0.000 A 
BRANCH  22  25
ATOM     25  C   UNL     1      47.576   3.500  17.713  0.00  0.00    +0.000 C 
ATOM     26  N   UNL     1      48.318   3.274  18.850  0.00  0.00    +0.000 N 
ATOM     27  O   UNL     1      46.593   2.812  17.465  0.00  0.00    +0.000 OA
ATOM     28  H   UNL     1      49.129   3.847  19.049  0.00  0.00    +0.000 HD
ATOM     29  H   UNL     1      48.040   2.532  19.478  0.00  0.00    +0.000 HD
ENDBRANCH  22  25
ENDBRANCH  18  19
ENDBRANCH  17  18
ENDBRANCH   1  17
TORSDOF 6
ENDMDL
MODEL 8
REMARK VINA RESULT:    -6.496      3.261      5.912
REMARK INTER + INTRA:          -9.757
REMARK INTER:                  -9.063
REMARK INTRA:                  -0.693
REMARK UNBOUND:                -0.982
REMARK  Name = 
REMARK  8 active torsions:
REMARK  status: ('A' for Active; 'I' for Inactive)
REMARK    1  A    between atoms: C_1  and  C_2
REMARK    2  A    between atoms: C_4  and  C_5
REMARK    3  A    between atoms: C_13  and  C_14
REMARK    4  A    between atoms: C_14  and  C_15
REMARK    5  A    between atoms: C_14  and  C_16
REMARK    6  A    between atoms: C_16  and  O_17
REMARK    7  A    between atoms: O_17  and  C_18
REMARK    8  A    between atoms: C_21  and  C_22
REMARK                            x       y       z     vdW  Elec       q    Type
REMARK                         _______ _______ _______ _____ _____    ______ ____
ROOT
ATOM      1  C   UNL     1      48.294   8.466  12.695  0.00  0.00    +0.000 C 
ATOM      2  C   UNL     1      49.237   7.556  11.906  0.00  0.00    +0.000 C 
ENDROOT
BRANCH   1   8
ATOM      3  C   UNL     1      48.227  10.137  17.284  0.00  0.00    +0.000 C 
ATOM      4  C   UNL     1      48.386   8.982  16.344  0.00  0.00    +0.000 A 
ATOM      5  N   UNL     1      48.640   7.771  16.869  0.00  0.00    +0.000 NA
ATOM      6  C   UNL     1      48.774   6.739  16.009  0.00  0.00    +0.000 A 
ATOM      7  C   UNL     1      48.670   6.918  14.640  0.00  0.00    +0.000 A 
ATOM      8  C   UNL     1      48.408   8.194  14.182  0.00  0.00    +0.000 A 
ATOM      9  N   UNL     1      48.274   9.237  15.026  0.00  0.00    +0.000 NA
BRANCH   6  10
ATOM     10  C   UNL     1      49.071   5.419  16.607  0.00  0.00    +0.000 A 
ATOM     11  C   UNL     1      48.123   4.375  16.606  0.00  0.00    +0.000 A 
ATOM     12  C   UNL     1      48.428   3.107  17.106  0.00  0.00    +0.000 A 
ATOM     13  C   UNL     1      49.689   2.856  17.636  0.00  0.00    +0.000 A 
ATOM     14  C   UNL     1      50.631   3.879  17.680  0.00  0.00    +0.000 A 
ATOM     15 CL   UNL     1      52.190   3.570  18.340  0.00  0.00    +0.000 Cl
ATOM     16  C   UNL     1      50.328   5.148  17.179  0.00  0.00    +0.000 A 
ENDBRANCH   6  10
ENDBRANCH   1   8
BRANCH   1  17
ATOM     17  C   UNL     1      46.832   8.304  12.261  0.00  0.00    +0.000 C 
BRANCH  17  18
ATOM     18  O   UNL     1      46.092   7.542  13.226  0.00  0.00    +0.000 OA
BRANCH  18  19
ATOM     19  C   UNL     1      45.592   6.356  12.774  0.00  0.00    +0.000 A 
ATOM     20  C   UNL     1      45.639   5.133  13.416  0.00  0.00    +0.000 A 
ATOM     21  N   UNL     1      45.111   3.991  12.924  0.00  0.00    +0.000 NA
ATOM     22  C   UNL     1      44.512   4.105  11.715  0.00  0.00    +0.000 A 
ATOM     23  N   UNL     1      44.406   5.235  10.991  0.00  0.00    +0.000 NA
ATOM     24  C   UNL     1      44.957   6.338  11.547  0.00  0.00    +0.000 A 
BRANCH  22  25
ATOM     25  C   UNL     1      43.906   2.836  11.165  0.00  0.00    +0.000 C 
ATOM     26  N   UNL     1      44.537   2.315  10.058  0.00  0.00    +0.000 N 
ATOM     27  O   UNL     1      42.925   2.278  11.641  0.00  0.00    +0.000 OA
ATOM     28  H   UNL     1      45.348   2.781   9.669  0.00  0.00    +0.000 HD
ATOM     29  H   UNL     1      44.179   1.466   9.643  0.00  0.00    +0.000 HD
ENDBRANCH  22  25
ENDBRANCH  18  19
ENDBRANCH  17  18
ENDBRANCH   1  17
TORSDOF 6
ENDMDL
MODEL 9
REMARK VINA RESULT:    -6.173      4.330      7.085
REMARK INTER + INTRA:          -9.320
REMARK INTER:                  -8.270
REMARK INTRA:                  -1.050
REMARK UNBOUND:                -0.982
REMARK  Name = 
REMARK  8 active torsions:
REMARK  status: ('A' for Active; 'I' for Inactive)
REMARK    1  A    between atoms: C_1  and  C_2
REMARK    2  A    between atoms: C_4  and  C_5
REMARK    3  A    between atoms: C_13  and  C_14
REMARK    4  A    between atoms: C_14  and  C_15
REMARK    5  A    between atoms: C_14  and  C_16
REMARK    6  A    between atoms: C_16  and  O_17
REMARK    7  A    between atoms: O_17  and  C_18
REMARK    8  A    between atoms: C_21  and  C_22
REMARK                            x       y       z     vdW  Elec       q    Type
REMARK                         _______ _______ _______ _____ _____    ______ ____
ROOT
ATOM      1  C   UNL     1      48.952   8.791  15.081  0.00  0.00    +0.000 C 
ATOM      2  C   UNL     1      49.946   9.928  15.323  0.00  0.00    +0.000 C 
ENDROOT
BRANCH   1   8
ATOM      3  C   UNL     1      47.738   8.060  19.755  0.00  0.00    +0.000 C 
ATOM      4  C   UNL     1      48.329   7.526  18.488  0.00  0.00    +0.000 A 
ATOM      5  N   UNL     1      48.792   6.264  18.488  0.00  0.00    +0.000 NA
ATOM      6  C   UNL     1      49.316   5.795  17.336  0.00  0.00    +0.000 A 
ATOM      7  C   UNL     1      49.390   6.584  16.200  0.00  0.00    +0.000 A 
ATOM      8  C   UNL     1      48.893   7.868  16.282  0.00  0.00    +0.000 A 
ATOM      9  N   UNL     1      48.368   8.354  17.426  0.00  0.00    +0.000 NA
BRANCH   6  10
ATOM     10  C   UNL     1      49.836   4.410  17.365  0.00  0.00    +0.000 A 
ATOM     11  C   UNL     1      49.039   3.312  16.982  0.00  0.00    +0.000 A 
ATOM     12  C   UNL     1      49.551   2.013  16.940  0.00  0.00    +0.000 A 
ATOM     13  C   UNL     1      50.874   1.778  17.299  0.00  0.00    +0.000 A 
ATOM     14  C   UNL     1      51.671   2.841  17.714  0.00  0.00    +0.000 A 
ATOM     15 CL   UNL     1      53.307   2.549  18.163  0.00  0.00    +0.000 Cl
ATOM     16  C   UNL     1      51.161   4.141  17.754  0.00  0.00    +0.000 A 
ENDBRANCH   6  10
ENDBRANCH   1   8
BRANCH   1  17
ATOM     17  C   UNL     1      49.298   7.973  13.831  0.00  0.00    +0.000 C 
BRANCH  17  18
ATOM     18  O   UNL     1      48.290   8.129  12.821  0.00  0.00    +0.000 OA
BRANCH  18  19
ATOM     19  C   UNL     1      47.255   7.244  12.891  0.00  0.00    +0.000 A 
ATOM     20  C   UNL     1      47.321   5.911  13.251  0.00  0.00    +0.000 A 
ATOM     21  N   UNL     1      46.255   5.083  13.317  0.00  0.00    +0.000 NA
ATOM     22  C   UNL     1      45.066   5.645  12.995  0.00  0.00    +0.000 A 
ATOM     23  N   UNL     1      44.874   6.926  12.626  0.00  0.00    +0.000 NA
ATOM     24  C   UNL     1      45.986   7.694  12.583  0.00  0.00    +0.000 A 
BRANCH  22  25
ATOM     25  C   UNL     1      43.868   4.730  13.081  0.00  0.00    +0.000 C 
ATOM     26  N   UNL     1      42.645   5.362  13.074  0.00  0.00    +0.000 N 
ATOM     27  O   UNL     1      43.937   3.510  13.154  0.00  0.00    +0.000 OA
ATOM     28  H   UNL     1      42.594   6.371  13.014  0.00  0.00    +0.000 HD
ATOM     29  H   UNL     1      41.803   4.803  13.129  0.00  0.00    +0.000 HD
ENDBRANCH  22  25
ENDBRANCH  18  19
ENDBRANCH  17  18
ENDBRANCH   1  17
TORSDOF 6
ENDMDL
