MODEL 1
REMARK VINA RESULT:    -8.393      0.000      0.000
REMARK INTER + INTRA:         -12.385
REMARK INTER:                 -11.583
REMARK INTRA:                  -0.802
REMARK UNBOUND:                -0.802
REMARK  Name = 
REMARK  8 active torsions:
REMARK  status: ('A' for Active; 'I' for Inactive)
REMARK    1  A    between atoms: C_1  and  C_2
REMARK    2  A    between atoms: C_2  and  C_3
REMARK    3  A    between atoms: C_2  and  C_15
REMARK    4  A    between atoms: C_3  and  O_4
REMARK    5  A    between atoms: O_4  and  C_5
REMARK    6  A    between atoms: C_8  and  C_9
REMARK    7  A    between atoms: C_19  and  C_20
REMARK    8  A    between atoms: C_20  and  N_21
REMARK                            x       y       z     vdW  Elec       q    Type
REMARK                         _______ _______ _______ _____ _____    ______ ____
ROOT
ATOM      1  C   UNL     1      43.530   5.084  10.424  0.00  0.00    +0.000 C 
ENDROOT
BRANCH   1   3
ATOM      2  C   UNL     1      42.794   5.028  12.852  0.00  0.00    +0.000 C 
ATOM      3  C   UNL     1      43.659   5.746  11.807  0.00  0.00    +0.000 C 
BRANCH   3   4
ATOM      4  C   UNL     1      45.111   5.794  12.258  0.00  0.00    +0.000 A 
ATOM      5  C   UNL     1      46.035   6.596  11.578  0.00  0.00    +0.000 A 
ATOM      6  C   UNL     1      47.356   6.691  12.022  0.00  0.00    +0.000 A 
ATOM      7  C   UNL     1      47.768   5.999  13.161  0.00  0.00    +0.000 A 
ATOM      8  C   UNL     1      46.864   5.195  13.865  0.00  0.00    +0.000 A 
ATOM      9  C   UNL     1      45.550   5.077  13.385  0.00  0.00    +0.000 A 
BRANCH   8  10
ATOM     10  C   UNL     1      47.277   4.487  15.132  0.00  0.00    +0.000 C 
BRANCH  10  11
ATOM     11  N   UNL     1      47.624   3.094  14.864  0.00  0.00    +0.000 NA
ATOM     12  H   UNL     1      47.166   2.504  15.560  0.00  0.00    +0.000 HD
ATOM     13  H   UNL     1      48.625   2.965  14.989  0.00  0.00    +0.000 HD
ENDBRANCH  10  11
ENDBRANCH   8  10
ENDBRANCH   3   4
ENDBRANCH   1   3
BRANCH   1  14
ATOM     14  O   UNL     1      43.900   3.697  10.488  0.00  0.00    +0.000 OA
BRANCH  14  15
ATOM     15  C   UNL     1      44.752   3.286   9.500  0.00  0.00    +0.000 A 
ATOM     16  C   UNL     1      45.302   4.266   8.675  0.00  0.00    +0.000 A 
ATOM     17  N   UNL     1      46.192   4.020   7.676  0.00  0.00    +0.000 NA
ATOM     18  C   UNL     1      46.528   2.707   7.481  0.00  0.00    +0.000 A 
ATOM     19  C   UNL     1      45.992   1.668   8.224  0.00  0.00    +0.000 A 
ATOM     20  F   UNL     1      46.312   0.385   8.010  0.00  0.00    +0.000 F 
ATOM     21  C   UNL     1      45.090   1.961   9.238  0.00  0.00    +0.000 A 
BRANCH  18  22
ATOM     22  C   UNL     1      47.547   2.422   6.426  0.00  0.00    +0.000 C 
ATOM     23  N   UNL     1      47.376   3.091   5.244  0.00  0.00    +0.000 N 
ATOM     24  O   UNL     1      48.493   1.660   6.580  0.00  0.00    +0.000 OA
ATOM     25  H   UNL     1      46.605   3.745   5.138  0.00  0.00    +0.000 HD
ATOM     26  H   UNL     1      48.055   2.967   4.510  0.00  0.00    +0.000 HD
ENDBRANCH  18  22
ENDBRANCH  14  15
ENDBRANCH   1  14
TORSDOF 7
ENDMDL
MODEL 2
REMARK VINA RESULT:    -7.473      1.949      2.378
REMARK INTER + INTRA:         -11.115
REMARK INTER:                 -10.441
REMARK INTRA:                  -0.674
REMARK UNBOUND:                -0.802
REMARK  Name = 
REMARK  8 active torsions:
REMARK  status: ('A' for Active; 'I' for Inactive)
REMARK    1  A    between atoms: C_1  and  C_2
REMARK    2  A    between atoms: C_2  and  C_3
REMARK    3  A    between atoms: C_2  and  C_15
REMARK    4  A    between atoms: C_3  and  O_4
REMARK    5  A    between atoms: O_4  and  C_5
REMARK    6  A    between atoms: C_8  and  C_9
REMARK    7  A    between atoms: C_19  and  C_20
REMARK    8  A    between atoms: C_20  and  N_21
REMARK                            x       y       z     vdW  Elec       q    Type
REMARK                         _______ _______ _______ _____ _____    ______ ____
ROOT
ATOM      1  C   UNL     1      44.208   3.518  11.628  0.00  0.00    +0.000 C 
ENDROOT
BRANCH   1   3
ATOM      2  C   UNL     1      42.816   4.992  13.154  0.00  0.00    +0.000 C 
ATOM      3  C   UNL     1      43.811   4.960  11.986  0.00  0.00    +0.000 C 
BRANCH   3   4
ATOM      4  C   UNL     1      45.037   5.802  12.307  0.00  0.00    +0.000 A 
ATOM      5  C   UNL     1      46.262   5.186  12.588  0.00  0.00    +0.000 A 
ATOM      6  C   UNL     1      47.405   5.953  12.825  0.00  0.00    +0.000 A 
ATOM      7  C   UNL     1      47.344   7.345  12.768  0.00  0.00    +0.000 A 
ATOM      8  C   UNL     1      46.134   7.989  12.481  0.00  0.00    +0.000 A 
ATOM      9  C   UNL     1      44.985   7.207  12.284  0.00  0.00    +0.000 A 
BRANCH   8  10
ATOM     10  C   UNL     1      46.063   9.490  12.355  0.00  0.00    +0.000 C 
BRANCH  10  11
ATOM     11  N   UNL     1      44.702   9.971  12.581  0.00  0.00    +0.000 NA
ATOM     12  H   UNL     1      44.653  10.388  13.511  0.00  0.00    +0.000 HD
ATOM     13  H   UNL     1      44.061   9.181  12.583  0.00  0.00    +0.000 HD
ENDBRANCH  10  11
ENDBRANCH   8  10
ENDBRANCH   3   4
ENDBRANCH   1   3
BRANCH   1  14
ATOM     14  O   UNL     1      43.664   3.143  10.352  0.00  0.00    +0.000 OA
BRANCH  14  15
ATOM     15  C   UNL     1      44.598   2.898   9.382  0.00  0.00    +0.000 A 
ATOM     16  C   UNL     1      45.076   3.990   8.659  0.00  0.00    +0.000 A 
ATOM     17  N   UNL     1      46.030   3.915   7.692  0.00  0.00    +0.000 NA
ATOM     18  C   UNL     1      46.511   2.662   7.421  0.00  0.00    +0.000 A 
ATOM     19  C   UNL     1      46.056   1.519   8.058  0.00  0.00    +0.000 A 
ATOM     20  F   UNL     1      46.520   0.296   7.769  0.00  0.00    +0.000 F 
ATOM     21  C   UNL     1      45.085   1.639   9.043  0.00  0.00    +0.000 A 
BRANCH  18  22
ATOM     22  C   UNL     1      47.600   2.565   6.402  0.00  0.00    +0.000 C 
ATOM     23  N   UNL     1      47.302   3.079   5.169  0.00  0.00    +0.000 N 
ATOM     24  O   UNL     1      48.701   2.079   6.625  0.00  0.00    +0.000 OA
ATOM     25  H   UNL     1      46.395   3.508   5.003  0.00  0.00    +0.000 HD
ATOM     26  H   UNL     1      48.011   3.075   4.453  0.00  0.00    +0.000 HD
ENDBRANCH  18  22
ENDBRANCH  14  15
ENDBRANCH   1  14
TORSDOF 7
ENDMDL
MODEL 3
REMARK VINA RESULT:    -7.464      3.097      6.421
REMARK INTER + INTRA:         -11.102
REMARK INTER:                 -10.236
REMARK INTRA:                  -0.866
REMARK UNBOUND:                -0.802
REMARK  Name = 
REMARK  8 active torsions:
REMARK  status: ('A' for Active; 'I' for Inactive)
REMARK    1  A    between atoms: C_1  and  C_2
REMARK    2  A    between atoms: C_2  and  C_3
REMARK    3  A    between atoms: C_2  and  C_15
REMARK    4  A    between atoms: C_3  and  O_4
REMARK    5  A    between atoms: O_4  and  C_5
REMARK    6  A    between atoms: C_8  and  C_9
REMARK    7  A    between atoms: C_19  and  C_20
REMARK    8  A    between atoms: C_20  and  N_21
REMARK                            x       y       z     vdW  Elec       q    Type
REMARK                         _______ _______ _______ _____ _____    ______ ____
ROOT
ATOM      1  C   UNL     1      45.047   2.955  12.262  0.00  0.00    +0.000 C 
ENDROOT
BRANCH   1   3
ATOM      2  C   UNL     1      43.105   4.199  11.204  0.00  0.00    +0.000 C 
ATOM      3  C   UNL     1      44.102   3.043  11.051  0.00  0.00    +0.000 C 
BRANCH   3   4
ATOM      4  C   UNL     1      44.885   3.182   9.754  0.00  0.00    +0.000 A 
ATOM      5  C   UNL     1      45.115   4.448   9.201  0.00  0.00    +0.000 A 
ATOM      6  C   UNL     1      45.883   4.588   8.043  0.00  0.00    +0.000 A 
ATOM      7  C   UNL     1      46.446   3.468   7.431  0.00  0.00    +0.000 A 
ATOM      8  C   UNL     1      46.239   2.191   7.965  0.00  0.00    +0.000 A 
ATOM      9  C   UNL     1      45.432   2.061   9.107  0.00  0.00    +0.000 A 
BRANCH   8  10
ATOM     10  C   UNL     1      46.889   0.977   7.351  0.00  0.00    +0.000 C 
BRANCH  10  11
ATOM     11  N   UNL     1      48.045   1.354   6.541  0.00  0.00    +0.000 NA
ATOM     12  H   UNL     1      47.916   2.312   6.214  0.00  0.00    +0.000 HD
ATOM     13  H   UNL     1      48.083   0.767   5.711  0.00  0.00    +0.000 HD
ENDBRANCH  10  11
ENDBRANCH   8  10
ENDBRANCH   3   4
ENDBRANCH   1   3
BRANCH   1  14
ATOM     14  O   UNL     1      44.832   4.058  13.156  0.00  0.00    +0.000 OA
BRANCH  14  15
ATOM     15  C   UNL     1      45.873   4.942  13.235  0.00  0.00    +0.000 A 
ATOM     16  C   UNL     1      46.842   4.710  14.210  0.00  0.00    +0.000 A 
ATOM     17  N   UNL     1      47.953   5.475  14.389  0.00  0.00    +0.000 NA
ATOM     18  C   UNL     1      48.081   6.551  13.551  0.00  0.00    +0.000 A 
ATOM     19  C   UNL     1      47.141   6.881  12.589  0.00  0.00    +0.000 A 
ATOM     20  F   UNL     1      47.267   7.948  11.790  0.00  0.00    +0.000 F 
ATOM     21  C   UNL     1      46.024   6.072  12.435  0.00  0.00    +0.000 A 
BRANCH  18  22
ATOM     22  C   UNL     1      49.323   7.371  13.694  0.00  0.00    +0.000 C 
ATOM     23  N   UNL     1      50.229   7.250  12.675  0.00  0.00    +0.000 N 
ATOM     24  O   UNL     1      49.541   8.120  14.636  0.00  0.00    +0.000 OA
ATOM     25  H   UNL     1      50.024   6.648  11.881  0.00  0.00    +0.000 HD
ATOM     26  H   UNL     1      51.068   7.808  12.698  0.00  0.00    +0.000 HD
ENDBRANCH  18  22
ENDBRANCH  14  15
ENDBRANCH   1  14
TORSDOF 7
ENDMDL
MODEL 4
REMARK VINA RESULT:    -7.430      1.436      1.930
REMARK INTER + INTRA:         -11.056
REMARK INTER:                 -10.566
REMARK INTRA:                  -0.490
REMARK UNBOUND:                -0.802
REMARK  Name = 
REMARK  8 active torsions:
REMARK  status: ('A' for Active; 'I' for Inactive)
REMARK    1  A    between atoms: C_1  and  C_2
REMARK    2  A    between atoms: C_2  and  C_3
REMARK    3  A    between atoms: C_2  and  C_15
REMARK    4  A    between atoms: C_3  and  O_4
REMARK    5  A    between atoms: O_4  and  C_5
REMARK    6  A    between atoms: C_8  and  C_9
REMARK    7  A    between atoms: C_19  and  C_20
REMARK    8  A    between atoms: C_20  and  N_21
REMARK                            x       y       z     vdW  Elec       q    Type
REMARK                         _______ _______ _______ _____ _____    ______ ____
ROOT
ATOM      1  C   UNL     1      43.791   5.139  10.816  0.00  0.00    +0.000 C 
ENDROOT
BRANCH   1   3
ATOM      2  C   UNL     1      45.208   4.096  12.645  0.00  0.00    +0.000 C 
ATOM      3  C   UNL     1      44.468   5.358  12.179  0.00  0.00    +0.000 C 
BRANCH   3   4
ATOM      4  C   UNL     1      45.417   6.547  12.135  0.00  0.00    +0.000 A 
ATOM      5  C   UNL     1      44.914   7.853  12.187  0.00  0.00    +0.000 A 
ATOM      6  C   UNL     1      45.782   8.947  12.206  0.00  0.00    +0.000 A 
ATOM      7  C   UNL     1      47.163   8.752  12.191  0.00  0.00    +0.000 A 
ATOM      8  C   UNL     1      47.694   7.458  12.146  0.00  0.00    +0.000 A 
ATOM      9  C   UNL     1      46.810   6.368  12.088  0.00  0.00    +0.000 A 
BRANCH   8  10
ATOM     10  C   UNL     1      49.183   7.227  12.190  0.00  0.00    +0.000 C 
BRANCH  10  11
ATOM     11  N   UNL     1      49.617   6.856  13.535  0.00  0.00    +0.000 NA
ATOM     12  H   UNL     1      50.488   6.329  13.463  0.00  0.00    +0.000 HD
ATOM     13  H   UNL     1      48.932   6.229  13.950  0.00  0.00    +0.000 HD
ENDBRANCH  10  11
ENDBRANCH   8  10
ENDBRANCH   3   4
ENDBRANCH   1   3
BRANCH   1  14
ATOM     14  O   UNL     1      43.726   3.738  10.500  0.00  0.00    +0.000 OA
BRANCH  14  15
ATOM     15  C   UNL     1      44.607   3.327   9.538  0.00  0.00    +0.000 A 
ATOM     16  C   UNL     1      45.210   4.309   8.754  0.00  0.00    +0.000 A 
ATOM     17  N   UNL     1      46.133   4.062   7.785  0.00  0.00    +0.000 NA
ATOM     18  C   UNL     1      46.448   2.746   7.579  0.00  0.00    +0.000 A 
ATOM     19  C   UNL     1      45.861   1.705   8.280  0.00  0.00    +0.000 A 
ATOM     20  F   UNL     1      46.162   0.420   8.054  0.00  0.00    +0.000 F 
ATOM     21  C   UNL     1      44.927   1.999   9.264  0.00  0.00    +0.000 A 
BRANCH  18  22
ATOM     22  C   UNL     1      47.501   2.458   6.559  0.00  0.00    +0.000 C 
ATOM     23  N   UNL     1      47.355   3.103   5.360  0.00  0.00    +0.000 N 
ATOM     24  O   UNL     1      48.453   1.713   6.753  0.00  0.00    +0.000 OA
ATOM     25  H   UNL     1      46.577   3.744   5.221  0.00  0.00    +0.000 HD
ATOM     26  H   UNL     1      48.056   2.977   4.648  0.00  0.00    +0.000 HD
ENDBRANCH  18  22
ENDBRANCH  14  15
ENDBRANCH   1  14
TORSDOF 7
ENDMDL
MODEL 5
REMARK VINA RESULT:    -6.847      1.525      2.228
REMARK INTER + INTRA:         -10.251
REMARK INTER:                  -9.871
REMARK INTRA:                  -0.380
REMARK UNBOUND:                -0.802
REMARK  Name = 
REMARK  8 active torsions:
REMARK  status: ('A' for Active; 'I' for Inactive)
REMARK    1  A    between atoms: C_1  and  C_2
REMARK    2  A    between atoms: C_2  and  C_3
REMARK    3  A    between atoms: C_2  and  C_15
REMARK    4  A    between atoms: C_3  and  O_4
REMARK    5  A    between atoms: O_4  and  C_5
REMARK    6  A    between atoms: C_8  and  C_9
REMARK    7  A    between atoms: C_19  and  C_20
REMARK    8  A    between atoms: C_20  and  N_21
REMARK                            x       y       z     vdW  Elec       q    Type
REMARK                         _______ _______ _______ _____ _____    ______ ____
ROOT
ATOM      1  C   UNL     1      44.639   4.507  11.751  0.00  0.00    +0.000 C 
ENDROOT
BRANCH   1   3
ATOM      2  C   UNL     1      45.101   6.991  11.514  0.00  0.00    +0.000 C 
ATOM      3  C   UNL     1      45.716   5.605  11.751  0.00  0.00    +0.000 C 
BRANCH   3   4
ATOM      4  C   UNL     1      46.514   5.590  13.046  0.00  0.00    +0.000 A 
ATOM      5  C   UNL     1      46.294   4.587  13.998  0.00  0.00    +0.000 A 
ATOM      6  C   UNL     1      47.063   4.533  15.163  0.00  0.00    +0.000 A 
ATOM      7  C   UNL     1      48.073   5.469  15.385  0.00  0.00    +0.000 A 
ATOM      8  C   UNL     1      48.320   6.478  14.447  0.00  0.00    +0.000 A 
ATOM      9  C   UNL     1      47.514   6.545  13.300  0.00  0.00    +0.000 A 
BRANCH   8  10
ATOM     10  C   UNL     1      49.447   7.462  14.643  0.00  0.00    +0.000 C 
BRANCH  10  11
ATOM     11  N   UNL     1      49.776   8.137  13.390  0.00  0.00    +0.000 NA
ATOM     12  H   UNL     1      50.789   8.123  13.267  0.00  0.00    +0.000 HD
ATOM     13  H   UNL     1      49.504   9.115  13.451  0.00  0.00    +0.000 HD
ENDBRANCH  10  11
ENDBRANCH   8  10
ENDBRANCH   3   4
ENDBRANCH   1   3
BRANCH   1  14
ATOM     14  O   UNL     1      44.022   4.401  10.458  0.00  0.00    +0.000 OA
BRANCH  14  15
ATOM     15  C   UNL     1      44.790   3.786   9.507  0.00  0.00    +0.000 A 
ATOM     16  C   UNL     1      45.428   4.599   8.571  0.00  0.00    +0.000 A 
ATOM     17  N   UNL     1      46.253   4.142   7.590  0.00  0.00    +0.000 NA
ATOM     18  C   UNL     1      46.423   2.784   7.535  0.00  0.00    +0.000 A 
ATOM     19  C   UNL     1      45.789   1.903   8.394  0.00  0.00    +0.000 A 
ATOM     20  F   UNL     1      45.948   0.575   8.316  0.00  0.00    +0.000 F 
ATOM     21  C   UNL     1      44.959   2.409   9.385  0.00  0.00    +0.000 A 
BRANCH  18  22
ATOM     22  C   UNL     1      47.370   2.267   6.501  0.00  0.00    +0.000 C 
ATOM     23  N   UNL     1      47.415   2.979   5.332  0.00  0.00    +0.000 N 
ATOM     24  O   UNL     1      48.084   1.285   6.659  0.00  0.00    +0.000 OA
ATOM     25  H   UNL     1      46.841   3.811   5.223  0.00  0.00    +0.000 HD
ATOM     26  H   UNL     1      48.063   2.699   4.613  0.00  0.00    +0.000 HD
ENDBRANCH  18  22
ENDBRANCH  14  15
ENDBRANCH   1  14
TORSDOF 7
ENDMDL
MODEL 6
REMARK VINA RESULT:    -6.183      3.836      7.789
REMARK INTER + INTRA:          -9.335
REMARK INTER:                  -8.444
REMARK INTRA:                  -0.890
REMARK UNBOUND:                -0.802
REMARK  Name = 
REMARK  8 active torsions:
REMARK  status: ('A' for Active; 'I' for Inactive)
REMARK    1  A    between atoms: C_1  and  C_2
REMARK    2  A    between atoms: C_2  and  C_3
REMARK    3  A    between atoms: C_2  and  C_15
REMARK    4  A    between atoms: C_3  and  O_4
REMARK    5  A    between atoms: O_4  and  C_5
REMARK    6  A    between atoms: C_8  and  C_9
REMARK    7  A    between atoms: C_19  and  C_20
REMARK    8  A    between atoms: C_20  and  N_21
REMARK                            x       y       z     vdW  Elec       q    Type
REMARK                         _______ _______ _______ _____ _____    ______ ____
ROOT
ATOM      1  C   UNL     1      47.181   6.541  12.911  0.00  0.00    +0.000 C 
ENDROOT
BRANCH   1   3
ATOM      2  C   UNL     1      45.145   7.902  12.246  0.00  0.00    +0.000 C 
ATOM      3  C   UNL     1      45.644   6.597  12.882  0.00  0.00    +0.000 C 
BRANCH   3   4
ATOM      4  C   UNL     1      45.066   5.393  12.153  0.00  0.00    +0.000 A 
ATOM      5  C   UNL     1      44.274   4.465  12.841  0.00  0.00    +0.000 A 
ATOM      6  C   UNL     1      43.692   3.390  12.166  0.00  0.00    +0.000 A 
ATOM      7  C   UNL     1      43.877   3.237  10.792  0.00  0.00    +0.000 A 
ATOM      8  C   UNL     1      44.657   4.153  10.077  0.00  0.00    +0.000 A 
ATOM      9  C   UNL     1      45.269   5.206  10.775  0.00  0.00    +0.000 A 
BRANCH   8  10
ATOM     10  C   UNL     1      44.818   4.036   8.582  0.00  0.00    +0.000 C 
BRANCH  10  11
ATOM     11  N   UNL     1      46.060   4.666   8.139  0.00  0.00    +0.000 NA
ATOM     12  H   UNL     1      45.888   5.135   7.249  0.00  0.00    +0.000 HD
ATOM     13  H   UNL     1      46.758   3.948   7.959  0.00  0.00    +0.000 HD
ENDBRANCH  10  11
ENDBRANCH   8  10
ENDBRANCH   3   4
ENDBRANCH   1   3
BRANCH   1  14
ATOM     14  O   UNL     1      47.634   5.252  13.358  0.00  0.00    +0.000 OA
BRANCH  14  15
ATOM     15  C   UNL     1      47.726   5.118  14.716  0.00  0.00    +0.000 A 
ATOM     16  C   UNL     1      48.411   6.109  15.417  0.00  0.00    +0.000 A 
ATOM     17  N   UNL     1      48.556   6.137  16.769  0.00  0.00    +0.000 NA
ATOM     18  C   UNL     1      47.997   5.090  17.453  0.00  0.00    +0.000 A 
ATOM     19  C   UNL     1      47.341   4.040  16.832  0.00  0.00    +0.000 A 
ATOM     20  F   UNL     1      46.818   3.011  17.510  0.00  0.00    +0.000 F 
ATOM     21  C   UNL     1      47.211   4.052  15.449  0.00  0.00    +0.000 A 
BRANCH  18  22
ATOM     22  C   UNL     1      48.095   5.131  18.944  0.00  0.00    +0.000 C 
ATOM     23  N   UNL     1      46.978   5.578  19.596  0.00  0.00    +0.000 N 
ATOM     24  O   UNL     1      49.086   4.783  19.572  0.00  0.00    +0.000 OA
ATOM     25  H   UNL     1      46.149   5.836  19.066  0.00  0.00    +0.000 HD
ATOM     26  H   UNL     1      46.973   5.591  20.604  0.00  0.00    +0.000 HD
ENDBRANCH  18  22
ENDBRANCH  14  15
ENDBRANCH   1  14
TORSDOF 7
ENDMDL
MODEL 7
REMARK VINA RESULT:    -6.177      3.666      5.854
REMARK INTER + INTRA:          -9.326
REMARK INTER:                  -8.391
REMARK INTRA:                  -0.936
REMARK UNBOUND:                -0.802
REMARK  Name = 
REMARK  8 active torsions:
REMARK  status: ('A' for Active; 'I' for Inactive)
REMARK    1  A    between atoms: C_1  and  C_2
REMARK    2  A    between atoms: C_2  and  C_3
REMARK    3  A    between atoms: C_2  and  C_15
REMARK    4  A    between atoms: C_3  and  O_4
REMARK    5  A    between atoms: O_4  and  C_5
REMARK    6  A    between atoms: C_8  and  C_9
REMARK    7  A    between atoms: C_19  and  C_20
REMARK    8  A    between atoms: C_20  and  N_21
REMARK                            x       y       z     vdW  Elec       q    Type
REMARK                         _______ _______ _______ _____ _____    ______ ____
ROOT
ATOM      1  C   UNL     1      46.677   8.338  13.501  0.00  0.00    +0.000 C 
ENDROOT
BRANCH   1   3
ATOM      2  C   UNL     1      48.537   9.035  11.922  0.00  0.00    +0.000 C 
ATOM      3  C   UNL     1      47.328   9.506  12.741  0.00  0.00    +0.000 C 
BRANCH   3   4
ATOM      4  C   UNL     1      46.317  10.208  11.846  0.00  0.00    +0.000 A 
ATOM      5  C   UNL     1      46.694  11.334  11.104  0.00  0.00    +0.000 A 
ATOM      6  C   UNL     1      45.789  11.948  10.236  0.00  0.00    +0.000 A 
ATOM      7  C   UNL     1      44.500  11.435  10.083  0.00  0.00    +0.000 A 
ATOM      8  C   UNL     1      44.098  10.306  10.806  0.00  0.00    +0.000 A 
ATOM      9  C   UNL     1      45.005   9.723  11.705  0.00  0.00    +0.000 A 
BRANCH   8  10
ATOM     10  C   UNL     1      42.730   9.703  10.608  0.00  0.00    +0.000 C 
BRANCH  10  11
ATOM     11  N   UNL     1      42.735   8.278  10.928  0.00  0.00    +0.000 NA
ATOM     12  H   UNL     1      43.558   7.850  10.503  0.00  0.00    +0.000 HD
ATOM     13  H   UNL     1      41.925   7.833  10.503  0.00  0.00    +0.000 HD
ENDBRANCH  10  11
ENDBRANCH   8  10
ENDBRANCH   3   4
ENDBRANCH   1   3
BRANCH   1  14
ATOM     14  O   UNL     1      47.363   7.107  13.224  0.00  0.00    +0.000 OA
BRANCH  14  15
ATOM     15  C   UNL     1      46.603   6.155  12.600  0.00  0.00    +0.000 A 
ATOM     16  C   UNL     1      46.194   5.059  13.358  0.00  0.00    +0.000 A 
ATOM     17  N   UNL     1      45.405   4.053  12.893  0.00  0.00    +0.000 NA
ATOM     18  C   UNL     1      45.028   4.145  11.580  0.00  0.00    +0.000 A 
ATOM     19  C   UNL     1      45.429   5.174  10.745  0.00  0.00    +0.000 A 
ATOM     20  F   UNL     1      45.070   5.242   9.457  0.00  0.00    +0.000 F 
ATOM     21  C   UNL     1      46.230   6.185  11.259  0.00  0.00    +0.000 A 
BRANCH  18  22
ATOM     22  C   UNL     1      44.115   3.079  11.067  0.00  0.00    +0.000 C 
ATOM     23  N   UNL     1      44.660   2.231  10.141  0.00  0.00    +0.000 N 
ATOM     24  O   UNL     1      42.957   2.936  11.437  0.00  0.00    +0.000 OA
ATOM     25  H   UNL     1      45.632   2.340   9.863  0.00  0.00    +0.000 HD
ATOM     26  H   UNL     1      44.102   1.469   9.787  0.00  0.00    +0.000 HD
ENDBRANCH  18  22
ENDBRANCH  14  15
ENDBRANCH   1  14
TORSDOF 7
ENDMDL
MODEL 8
REMARK VINA RESULT:    -6.170      3.324      5.524
REMARK INTER + INTRA:          -9.316
REMARK INTER:                  -8.583
REMARK INTRA:                  -0.733
REMARK UNBOUND:                -0.802
REMARK  Name = 
REMARK  8 active torsions:
REMARK  status: ('A' for Active; 'I' for Inactive)
REMARK    1  A    between atoms: C_1  and  C_2
REMARK    2  A    between atoms: C_2  and  C_3
REMARK    3  A    between atoms: C_2  and  C_15
REMARK    4  A    between atoms: C_3  and  O_4
REMARK    5  A    between atoms: O_4  and  C_5
REMARK    6  A    between atoms: C_8  and  C_9
REMARK    7  A    between atoms: C_19  and  C_20
REMARK    8  A    between atoms: C_20  and  N_21
REMARK                            x       y       z     vdW  Elec       q    Type
REMARK                         _______ _______ _______ _____ _____    ______ ____
ROOT
ATOM      1  C   UNL     1      48.578   6.741  13.932  0.00  0.00    +0.000 C 
ENDROOT
BRANCH   1   3
ATOM      2  C   UNL     1      48.480   8.880  15.296  0.00  0.00    +0.000 C 
ATOM      3  C   UNL     1      49.080   7.471  15.190  0.00  0.00    +0.000 C 
BRANCH   3   4
ATOM      4  C   UNL     1      48.778   6.667  16.446  0.00  0.00    +0.000 A 
ATOM      5  C   UNL     1      48.628   7.314  17.679  0.00  0.00    +0.000 A 
ATOM      6  C   UNL     1      48.293   6.590  18.825  0.00  0.00    +0.000 A 
ATOM      7  C   UNL     1      48.086   5.212  18.753  0.00  0.00    +0.000 A 
ATOM      8  C   UNL     1      48.222   4.540  17.533  0.00  0.00    +0.000 A 
ATOM      9  C   UNL     1      48.598   5.274  16.397  0.00  0.00    +0.000 A 
BRANCH   8  10
ATOM     10  C   UNL     1      47.943   3.062  17.425  0.00  0.00    +0.000 C 
BRANCH  10  11
ATOM     11  N   UNL     1      46.549   2.766  17.749  0.00  0.00    +0.000 NA
ATOM     12  H   UNL     1      46.526   2.004  18.427  0.00  0.00    +0.000 HD
ATOM     13  H   UNL     1      46.072   2.429  16.917  0.00  0.00    +0.000 HD
ENDBRANCH  10  11
ENDBRANCH   8  10
ENDBRANCH   3   4
ENDBRANCH   1   3
BRANCH   1  14
ATOM     14  O   UNL     1      47.217   7.103  13.645  0.00  0.00    +0.000 OA
BRANCH  14  15
ATOM     15  C   UNL     1      46.518   6.171  12.927  0.00  0.00    +0.000 A 
ATOM     16  C   UNL     1      46.056   5.046  13.608  0.00  0.00    +0.000 A 
ATOM     17  N   UNL     1      45.316   4.054  13.044  0.00  0.00    +0.000 NA
ATOM     18  C   UNL     1      45.047   4.193  11.709  0.00  0.00    +0.000 A 
ATOM     19  C   UNL     1      45.507   5.254  10.947  0.00  0.00    +0.000 A 
ATOM     20  F   UNL     1      45.255   5.367   9.637  0.00  0.00    +0.000 F 
ATOM     21  C   UNL     1      46.256   6.248  11.561  0.00  0.00    +0.000 A 
BRANCH  18  22
ATOM     22  C   UNL     1      44.187   3.143  11.083  0.00  0.00    +0.000 C 
ATOM     23  N   UNL     1      44.817   2.319  10.189  0.00  0.00    +0.000 N 
ATOM     24  O   UNL     1      43.000   2.991  11.340  0.00  0.00    +0.000 OA
ATOM     25  H   UNL     1      45.811   2.434  10.007  0.00  0.00    +0.000 HD
ATOM     26  H   UNL     1      44.296   1.568   9.765  0.00  0.00    +0.000 HD
ENDBRANCH  18  22
ENDBRANCH  14  15
ENDBRANCH   1  14
TORSDOF 7
ENDMDL
MODEL 9
REMARK VINA RESULT:    -6.090      4.176      7.830
REMARK INTER + INTRA:          -9.206
REMARK INTER:                  -8.329
REMARK INTRA:                  -0.876
REMARK UNBOUND:                -0.802
REMARK  Name = 
REMARK  8 active torsions:
REMARK  status: ('A' for Active; 'I' for Inactive)
REMARK    1  A    between atoms: C_1  and  C_2
REMARK    2  A    between atoms: C_2  and  C_3
REMARK    3  A    between atoms: C_2  and  C_15
REMARK    4  A    between atoms: C_3  and  O_4
REMARK    5  A    between atoms: O_4  and  C_5
REMARK    6  A    between atoms: C_8  and  C_9
REMARK    7  A    between atoms: C_19  and  C_20
REMARK    8  A    between atoms: C_20  and  N_21
REMARK                            x       y       z     vdW  Elec       q    Type
REMARK                         _______ _______ _______ _____ _____    ______ ____
ROOT
ATOM      1  C   UNL     1      47.797   7.025  13.386  0.00  0.00    +0.000 C 
ENDROOT
BRANCH   1   3
ATOM      2  C   UNL     1      45.935   8.637  12.772  0.00  0.00    +0.000 C 
ATOM      3  C   UNL     1      46.277   7.220  13.255  0.00  0.00    +0.000 C 
BRANCH   3   4
ATOM      4  C   UNL     1      45.669   6.180  12.326  0.00  0.00    +0.000 A 
ATOM      5  C   UNL     1      45.966   6.195  10.958  0.00  0.00    +0.000 A 
ATOM      6  C   UNL     1      45.460   5.209  10.109  0.00  0.00    +0.000 A 
ATOM      7  C   UNL     1      44.663   4.183  10.618  0.00  0.00    +0.000 A 
ATOM      8  C   UNL     1      44.356   4.137  11.982  0.00  0.00    +0.000 A 
ATOM      9  C   UNL     1      44.839   5.157  12.817  0.00  0.00    +0.000 A 
BRANCH   8  10
ATOM     10  C   UNL     1      43.547   3.002  12.559  0.00  0.00    +0.000 C 
BRANCH  10  11
ATOM     11  N   UNL     1      43.160   2.053  11.518  0.00  0.00    +0.000 NA
ATOM     12  H   UNL     1      42.557   2.531  10.847  0.00  0.00    +0.000 HD
ATOM     13  H   UNL     1      42.602   1.308  11.930  0.00  0.00    +0.000 HD
ENDBRANCH  10  11
ENDBRANCH   8  10
ENDBRANCH   3   4
ENDBRANCH   1   3
BRANCH   1  14
ATOM     14  O   UNL     1      48.106   5.667  13.739  0.00  0.00    +0.000 OA
BRANCH  14  15
ATOM     15  C   UNL     1      48.044   5.396  15.079  0.00  0.00    +0.000 A 
ATOM     16  C   UNL     1      48.747   6.238  15.939  0.00  0.00    +0.000 A 
ATOM     17  N   UNL     1      48.754   6.122  17.294  0.00  0.00    +0.000 NA
ATOM     18  C   UNL     1      48.029   5.082  17.811  0.00  0.00    +0.000 A 
ATOM     19  C   UNL     1      47.341   4.171  17.026  0.00  0.00    +0.000 A 
ATOM     20  F   UNL     1      46.653   3.145  17.542  0.00  0.00    +0.000 F 
ATOM     21  C   UNL     1      47.356   4.327  15.646  0.00  0.00    +0.000 A 
BRANCH  18  22
ATOM     22  C   UNL     1      47.977   4.972  19.300  0.00  0.00    +0.000 C 
ATOM     23  N   UNL     1      48.612   3.883  19.834  0.00  0.00    +0.000 N 
ATOM     24  O   UNL     1      47.425   5.789  20.026  0.00  0.00    +0.000 OA
ATOM     25  H   UNL     1      49.094   3.227  19.225  0.00  0.00    +0.000 HD
ATOM     26  H   UNL     1      48.642   3.777  20.836  0.00  0.00    +0.000 HD
ENDBRANCH  18  22
ENDBRANCH  14  15
ENDBRANCH   1  14
TORSDOF 7
ENDMDL
