MODEL 1
REMARK VINA RESULT:    -7.631      0.000      0.000
REMARK INTER + INTRA:         -12.865
REMARK INTER:                 -11.645
REMARK INTRA:                  -1.220
REMARK UNBOUND:                -1.220
REMARK  Name = 
REMARK  10 active torsions:
REMARK  status: ('A' for Active; 'I' for Inactive)
REMARK    1  A    between atoms: C_1  and  C_2
REMARK    2  A    between atoms: C_2  and  C_3
REMARK    3  A    between atoms: C_3  and  N_4
REMARK    4  A    between atoms: C_3  and  C_21
REMARK    5  A    between atoms: N_4  and  C_5
REMARK    6  A    between atoms: C_5  and  C_6
REMARK    7  A    between atoms: C_9  and  C_10
REMARK    8  A    between atoms: C_10  and  O_11
REMARK    9  A    between atoms: O_11  and  C_12
REMARK   10  A    between atoms: C_12  and  C_13
REMARK                            x       y       z     vdW  Elec       q    Type
REMARK                         _______ _______ _______ _____ _____    ______ ____
ROOT
ATOM      1  N   UNL     1      48.085   5.756  15.289  0.00  0.00    +0.000 NA
ATOM      2  H   UNL     1      48.259   4.773  15.079  0.00  0.00    +0.000 HD
ENDROOT
BRANCH   1   3
ATOM      3  C   UNL     1      49.169   6.244  16.153  0.00  0.00    +0.000 C 
BRANCH   3   4
ATOM      4  C   UNL     1      48.596   6.678  17.489  0.00  0.00    +0.000 A 
ATOM      5  C   UNL     1      48.435   7.994  17.897  0.00  0.00    +0.000 A 
ATOM      6  S   UNL     1      48.464   8.140  19.605  0.00  0.00    +0.000 S 
ATOM      7  C   UNL     1      48.557   6.450  19.805  0.00  0.00    +0.000 A 
ATOM      8  N   UNL     1      48.799   5.873  21.012  0.00  0.00    +0.000 NA
ATOM      9  C   UNL     1      48.782   4.580  20.991  0.00  0.00    +0.000 A 
ATOM     10  N   UNL     1      48.485   3.813  19.891  0.00  0.00    +0.000 N 
ATOM     11  C   UNL     1      48.235   4.353  18.651  0.00  0.00    +0.000 A 
ATOM     12  O   UNL     1      47.901   3.660  17.696  0.00  0.00    +0.000 OA
ATOM     13  C   UNL     1      48.377   5.794  18.604  0.00  0.00    +0.000 A 
ATOM     14  H   UNL     1      48.391   2.812  19.968  0.00  0.00    +0.000 HD
ENDBRANCH   3   4
BRANCH   3  16
ATOM     15  C   UNL     1      51.451   7.339  15.600  0.00  0.00    +0.000 C 
ATOM     16  C   UNL     1      49.927   7.455  15.534  0.00  0.00    +0.000 C 
ENDBRANCH   3  16
ENDBRANCH   1   3
BRANCH   1  17
ATOM     17  C   UNL     1      48.028   6.480  14.010  0.00  0.00    +0.000 C 
BRANCH  17  18
ATOM     18  C   UNL     1      46.907   5.989  13.124  0.00  0.00    +0.000 A 
ATOM     19  C   UNL     1      45.949   5.097  13.624  0.00  0.00    +0.000 A 
ATOM     20  C   UNL     1      44.887   4.670  12.825  0.00  0.00    +0.000 A 
ATOM     21  C   UNL     1      44.755   5.129  11.508  0.00  0.00    +0.000 A 
ATOM     22  C   UNL     1      45.699   6.038  11.014  0.00  0.00    +0.000 A 
ATOM     23  C   UNL     1      46.763   6.468  11.814  0.00  0.00    +0.000 A 
BRANCH  21  24
ATOM     24  C   UNL     1      43.632   4.624  10.638  0.00  0.00    +0.000 C 
BRANCH  24  25
ATOM     25  O   UNL     1      44.157   4.204   9.383  0.00  0.00    +0.000 OA
BRANCH  25  26
ATOM     26  C   UNL     1      44.403   2.792   9.368  0.00  0.00    +0.000 C 
BRANCH  26  27
ATOM     27  C   UNL     1      45.531   2.443   8.424  0.00  0.00    +0.000 A 
ATOM     28  N   UNL     1      45.970   1.167   8.410  0.00  0.00    +0.000 NA
ATOM     29  C   UNL     1      47.003   0.895   7.592  0.00  0.00    +0.000 A 
ATOM     30  C   UNL     1      47.603   1.834   6.785  0.00  0.00    +0.000 A 
ATOM     31  C   UNL     1      47.087   3.102   6.859  0.00  0.00    +0.000 A 
ATOM     32  N   UNL     1      46.048   3.434   7.659  0.00  0.00    +0.000 NA
ENDBRANCH  26  27
ENDBRANCH  25  26
ENDBRANCH  24  25
ENDBRANCH  21  24
ENDBRANCH  17  18
ENDBRANCH   1  17
TORSDOF 9
ENDMDL
MODEL 2
REMARK VINA RESULT:    -7.212      1.895      2.366
REMARK INTER + INTRA:         -12.227
REMARK INTER:                 -11.249
REMARK INTRA:                  -0.978
REMARK UNBOUND:                -1.220
REMARK  Name = 
REMARK  10 active torsions:
REMARK  status: ('A' for Active; 'I' for Inactive)
REMARK    1  A    between atoms: C_1  and  C_2
REMARK    2  A    between atoms: C_2  and  C_3
REMARK    3  A    between atoms: C_3  and  N_4
REMARK    4  A    between atoms: C_3  and  C_21
REMARK    5  A    between atoms: N_4  and  C_5
REMARK    6  A    between atoms: C_5  and  C_6
REMARK    7  A    between atoms: C_9  and  C_10
REMARK    8  A    between atoms: C_10  and  O_11
REMARK    9  A    between atoms: O_11  and  C_12
REMARK   10  A    between atoms: C_12  and  C_13
REMARK                            x       y       z     vdW  Elec       q    Type
REMARK                         _______ _______ _______ _____ _____    ______ ____
ROOT
ATOM      1  N   UNL     1      48.856   6.198  14.678  0.00  0.00    +0.000 NA
ATOM      2  H   UNL     1      49.521   5.454  14.462  0.00  0.00    +0.000 HD
ENDROOT
BRANCH   1   3
ATOM      3  C   UNL     1      49.513   7.162  15.572  0.00  0.00    +0.000 C 
BRANCH   3   4
ATOM      4  C   UNL     1      50.336   6.415  16.605  0.00  0.00    +0.000 A 
ATOM      5  C   UNL     1      51.611   6.773  17.017  0.00  0.00    +0.000 A 
ATOM      6  S   UNL     1      52.500   5.422  17.588  0.00  0.00    +0.000 S 
ATOM      7  C   UNL     1      51.154   4.392  17.413  0.00  0.00    +0.000 A 
ATOM      8  N   UNL     1      51.249   3.042  17.546  0.00  0.00    +0.000 NA
ATOM      9  C   UNL     1      50.121   2.419  17.434  0.00  0.00    +0.000 A 
ATOM     10  N   UNL     1      48.900   3.025  17.265  0.00  0.00    +0.000 N 
ATOM     11  C   UNL     1      48.756   4.386  17.124  0.00  0.00    +0.000 A 
ATOM     12  O   UNL     1      47.653   4.918  17.045  0.00  0.00    +0.000 OA
ATOM     13  C   UNL     1      50.013   5.107  17.109  0.00  0.00    +0.000 A 
ATOM     14  H   UNL     1      48.047   2.487  17.286  0.00  0.00    +0.000 HD
ENDBRANCH   3   4
BRANCH   3  16
ATOM     15  C   UNL     1      48.643   9.561  16.021  0.00  0.00    +0.000 C 
ATOM     16  C   UNL     1      48.495   8.068  16.324  0.00  0.00    +0.000 C 
ENDBRANCH   3  16
ENDBRANCH   1   3
BRANCH   1  17
ATOM     17  C   UNL     1      48.447   6.813  13.406  0.00  0.00    +0.000 C 
BRANCH  17  18
ATOM     18  C   UNL     1      47.244   6.129  12.800  0.00  0.00    +0.000 A 
ATOM     19  C   UNL     1      46.701   4.988  13.405  0.00  0.00    +0.000 A 
ATOM     20  C   UNL     1      45.565   4.373  12.876  0.00  0.00    +0.000 A 
ATOM     21  C   UNL     1      44.941   4.888  11.732  0.00  0.00    +0.000 A 
ATOM     22  C   UNL     1      45.470   6.042  11.139  0.00  0.00    +0.000 A 
ATOM     23  C   UNL     1      46.607   6.659  11.670  0.00  0.00    +0.000 A 
BRANCH  21  24
ATOM     24  C   UNL     1      43.744   4.190  11.140  0.00  0.00    +0.000 C 
BRANCH  24  25
ATOM     25  O   UNL     1      43.983   3.922   9.762  0.00  0.00    +0.000 OA
BRANCH  25  26
ATOM     26  C   UNL     1      44.397   2.565   9.560  0.00  0.00    +0.000 C 
BRANCH  26  27
ATOM     27  C   UNL     1      45.482   2.474   8.511  0.00  0.00    +0.000 A 
ATOM     28  N   UNL     1      45.749   3.577   7.782  0.00  0.00    +0.000 NA
ATOM     29  C   UNL     1      46.690   3.453   6.827  0.00  0.00    +0.000 A 
ATOM     30  C   UNL     1      47.376   2.287   6.581  0.00  0.00    +0.000 A 
ATOM     31  C   UNL     1      47.044   1.220   7.374  0.00  0.00    +0.000 A 
ATOM     32  N   UNL     1      46.112   1.284   8.352  0.00  0.00    +0.000 NA
ENDBRANCH  26  27
ENDBRANCH  25  26
ENDBRANCH  24  25
ENDBRANCH  21  24
ENDBRANCH  17  18
ENDBRANCH   1  17
TORSDOF 9
ENDMDL
MODEL 3
REMARK VINA RESULT:    -7.185      1.596      2.342
REMARK INTER + INTRA:         -12.185
REMARK INTER:                 -11.037
REMARK INTRA:                  -1.148
REMARK UNBOUND:                -1.220
REMARK  Name = 
REMARK  10 active torsions:
REMARK  status: ('A' for Active; 'I' for Inactive)
REMARK    1  A    between atoms: C_1  and  C_2
REMARK    2  A    between atoms: C_2  and  C_3
REMARK    3  A    between atoms: C_3  and  N_4
REMARK    4  A    between atoms: C_3  and  C_21
REMARK    5  A    between atoms: N_4  and  C_5
REMARK    6  A    between atoms: C_5  and  C_6
REMARK    7  A    between atoms: C_9  and  C_10
REMARK    8  A    between atoms: C_10  and  O_11
REMARK    9  A    between atoms: O_11  and  C_12
REMARK   10  A    between atoms: C_12  and  C_13
REMARK                            x       y       z     vdW  Elec       q    Type
REMARK                         _______ _______ _______ _____ _____    ______ ____
ROOT
ATOM      1  N   UNL     1      48.385   5.089  15.251  0.00  0.00    +0.000 NA
ATOM      2  H   UNL     1      49.347   5.431  15.267  0.00  0.00    +0.000 HD
ENDROOT
BRANCH   1   3
ATOM      3  C   UNL     1      47.903   4.993  16.635  0.00  0.00    +0.000 C 
BRANCH   3   4
ATOM      4  C   UNL     1      48.997   5.442  17.585  0.00  0.00    +0.000 A 
ATOM      5  C   UNL     1      50.337   5.575  17.251  0.00  0.00    +0.000 A 
ATOM      6  S   UNL     1      51.357   5.387  18.617  0.00  0.00    +0.000 S 
ATOM      7  C   UNL     1      50.021   5.262  19.668  0.00  0.00    +0.000 A 
ATOM      8  N   UNL     1      50.153   4.904  20.973  0.00  0.00    +0.000 NA
ATOM      9  C   UNL     1      49.044   4.911  21.637  0.00  0.00    +0.000 A 
ATOM     10  N   UNL     1      47.827   5.304  21.135  0.00  0.00    +0.000 N 
ATOM     11  C   UNL     1      47.646   5.674  19.823  0.00  0.00    +0.000 A 
ATOM     12  O   UNL     1      46.570   6.090  19.407  0.00  0.00    +0.000 OA
ATOM     13  C   UNL     1      48.840   5.548  19.012  0.00  0.00    +0.000 A 
ATOM     14  H   UNL     1      47.020   5.382  21.735  0.00  0.00    +0.000 HD
ENDBRANCH   3   4
BRANCH   3  16
ATOM     15  C   UNL     1      48.487   2.469  16.592  0.00  0.00    +0.000 C 
ATOM     16  C   UNL     1      47.487   3.544  17.024  0.00  0.00    +0.000 C 
ENDBRANCH   3  16
ENDBRANCH   1   3
BRANCH   1  17
ATOM     17  C   UNL     1      47.591   6.035  14.452  0.00  0.00    +0.000 C 
BRANCH  17  18
ATOM     18  C   UNL     1      46.551   5.338  13.606  0.00  0.00    +0.000 A 
ATOM     19  C   UNL     1      45.548   6.078  12.966  0.00  0.00    +0.000 A 
ATOM     20  C   UNL     1      44.608   5.447  12.149  0.00  0.00    +0.000 A 
ATOM     21  C   UNL     1      44.652   4.062  11.949  0.00  0.00    +0.000 A 
ATOM     22  C   UNL     1      45.668   3.323  12.569  0.00  0.00    +0.000 A 
ATOM     23  C   UNL     1      46.611   3.955  13.387  0.00  0.00    +0.000 A 
BRANCH  21  24
ATOM     24  C   UNL     1      43.604   3.383  11.104  0.00  0.00    +0.000 C 
BRANCH  24  25
ATOM     25  O   UNL     1      44.002   3.413   9.738  0.00  0.00    +0.000 OA
BRANCH  25  26
ATOM     26  C   UNL     1      44.417   2.117   9.288  0.00  0.00    +0.000 C 
BRANCH  26  27
ATOM     27  C   UNL     1      45.611   2.214   8.366  0.00  0.00    +0.000 A 
ATOM     28  N   UNL     1      45.876   3.409   7.800  0.00  0.00    +0.000 NA
ATOM     29  C   UNL     1      46.919   3.454   6.950  0.00  0.00    +0.000 A 
ATOM     30  C   UNL     1      47.708   2.367   6.655  0.00  0.00    +0.000 A 
ATOM     31  C   UNL     1      47.369   1.195   7.281  0.00  0.00    +0.000 A 
ATOM     32  N   UNL     1      46.335   1.090   8.146  0.00  0.00    +0.000 NA
ENDBRANCH  26  27
ENDBRANCH  25  26
ENDBRANCH  24  25
ENDBRANCH  21  24
ENDBRANCH  17  18
ENDBRANCH   1  17
TORSDOF 9
ENDMDL
MODEL 4
REMARK VINA RESULT:    -6.644      1.648      2.290
REMARK INTER + INTRA:         -11.359
REMARK INTER:                 -10.026
REMARK INTRA:                  -1.333
REMARK UNBOUND:                -1.220
REMARK  Name = 
REMARK  10 active torsions:
REMARK  status: ('A' for Active; 'I' for Inactive)
REMARK    1  A    between atoms: C_1  and  C_2
REMARK    2  A    between atoms: C_2  and  C_3
REMARK    3  A    between atoms: C_3  and  N_4
REMARK    4  A    between atoms: C_3  and  C_21
REMARK    5  A    between atoms: N_4  and  C_5
REMARK    6  A    between atoms: C_5  and  C_6
REMARK    7  A    between atoms: C_9  and  C_10
REMARK    8  A    between atoms: C_10  and  O_11
REMARK    9  A    between atoms: O_11  and  C_12
REMARK   10  A    between atoms: C_12  and  C_13
REMARK                            x       y       z     vdW  Elec       q    Type
REMARK                         _______ _______ _______ _____ _____    ______ ____
ROOT
ATOM      1  N   UNL     1      48.080   8.660  15.222  0.00  0.00    +0.000 NA
ATOM      2  H   UNL     1      47.140   8.344  15.459  0.00  0.00    +0.000 HD
ENDROOT
BRANCH   1   3
ATOM      3  C   UNL     1      49.025   7.580  15.534  0.00  0.00    +0.000 C 
BRANCH   3   4
ATOM      4  C   UNL     1      48.598   6.888  16.815  0.00  0.00    +0.000 A 
ATOM      5  C   UNL     1      48.793   7.389  18.094  0.00  0.00    +0.000 A 
ATOM      6  S   UNL     1      48.876   6.137  19.263  0.00  0.00    +0.000 S 
ATOM      7  C   UNL     1      48.521   4.946  18.097  0.00  0.00    +0.000 A 
ATOM      8  N   UNL     1      48.613   3.616  18.364  0.00  0.00    +0.000 NA
ATOM      9  C   UNL     1      48.257   2.855  17.381  0.00  0.00    +0.000 A 
ATOM     10  N   UNL     1      47.758   3.298  16.181  0.00  0.00    +0.000 N 
ATOM     11  C   UNL     1      47.648   4.633  15.867  0.00  0.00    +0.000 A 
ATOM     12  O   UNL     1      47.135   5.014  14.820  0.00  0.00    +0.000 OA
ATOM     13  C   UNL     1      48.165   5.517  16.891  0.00  0.00    +0.000 A 
ATOM     14  H   UNL     1      47.404   2.649  15.495  0.00  0.00    +0.000 HD
ENDBRANCH   3   4
BRANCH   3  16
ATOM     15  C   UNL     1      51.551   7.005  15.626  0.00  0.00    +0.000 C 
ATOM     16  C   UNL     1      50.482   8.096  15.724  0.00  0.00    +0.000 C 
ENDBRANCH   3  16
ENDBRANCH   1   3
BRANCH   1  17
ATOM     17  C   UNL     1      48.086   9.005  13.792  0.00  0.00    +0.000 C 
BRANCH  17  18
ATOM     18  C   UNL     1      47.188   8.101  12.981  0.00  0.00    +0.000 A 
ATOM     19  C   UNL     1      47.737   7.208  12.052  0.00  0.00    +0.000 A 
ATOM     20  C   UNL     1      46.918   6.340  11.327  0.00  0.00    +0.000 A 
ATOM     21  C   UNL     1      45.530   6.340  11.520  0.00  0.00    +0.000 A 
ATOM     22  C   UNL     1      44.982   7.217  12.465  0.00  0.00    +0.000 A 
ATOM     23  C   UNL     1      45.802   8.086  13.192  0.00  0.00    +0.000 A 
BRANCH  21  24
ATOM     24  C   UNL     1      44.650   5.434  10.699  0.00  0.00    +0.000 C 
BRANCH  24  25
ATOM     25  O   UNL     1      45.377   4.959   9.570  0.00  0.00    +0.000 OA
BRANCH  25  26
ATOM     26  C   UNL     1      44.744   3.812   8.989  0.00  0.00    +0.000 C 
BRANCH  26  27
ATOM     27  C   UNL     1      45.688   3.075   8.066  0.00  0.00    +0.000 A 
ATOM     28  N   UNL     1      46.101   3.709   6.949  0.00  0.00    +0.000 NA
ATOM     29  C   UNL     1      46.906   3.013   6.125  0.00  0.00    +0.000 A 
ATOM     30  C   UNL     1      47.321   1.725   6.375  0.00  0.00    +0.000 A 
ATOM     31  C   UNL     1      46.857   1.163   7.536  0.00  0.00    +0.000 A 
ATOM     32  N   UNL     1      46.050   1.814   8.404  0.00  0.00    +0.000 NA
ENDBRANCH  26  27
ENDBRANCH  25  26
ENDBRANCH  24  25
ENDBRANCH  21  24
ENDBRANCH  17  18
ENDBRANCH   1  17
TORSDOF 9
ENDMDL
MODEL 5
REMARK VINA RESULT:    -6.484      2.586      3.325
REMARK INTER + INTRA:         -11.116
REMARK INTER:                 -10.152
REMARK INTRA:                  -0.964
REMARK UNBOUND:                -1.220
REMARK  Name = 
REMARK  10 active torsions:
REMARK  status: ('A' for Active; 'I' for Inactive)
REMARK    1  A    between atoms: C_1  and  C_2
REMARK    2  A    between atoms: C_2  and  C_3
REMARK    3  A    between atoms: C_3  and  N_4
REMARK    4  A    between atoms: C_3  and  C_21
REMARK    5  A    between atoms: N_4  and  C_5
REMARK    6  A    between atoms: C_5  and  C_6
REMARK    7  A    between atoms: C_9  and  C_10
REMARK    8  A    between atoms: C_10  and  O_11
REMARK    9  A    between atoms: O_11  and  C_12
REMARK   10  A    between atoms: C_12  and  C_13
REMARK                            x       y       z     vdW  Elec       q    Type
REMARK                         _______ _______ _______ _____ _____    ______ ____
ROOT
ATOM      1  N   UNL     1      48.228   6.572  16.368  0.00  0.00    +0.000 NA
ATOM      2  H   UNL     1      47.640   5.739  16.339  0.00  0.00    +0.000 HD
ENDROOT
BRANCH   1   3
ATOM      3  C   UNL     1      49.318   6.336  17.325  0.00  0.00    +0.000 C 
BRANCH   3   4
ATOM      4  C   UNL     1      49.877   4.941  17.123  0.00  0.00    +0.000 A 
ATOM      5  C   UNL     1      49.119   3.783  17.041  0.00  0.00    +0.000 A 
ATOM      6  S   UNL     1      50.009   2.401  17.528  0.00  0.00    +0.000 S 
ATOM      7  C   UNL     1      51.434   3.316  17.718  0.00  0.00    +0.000 A 
ATOM      8  N   UNL     1      52.555   2.805  18.294  0.00  0.00    +0.000 NA
ATOM      9  C   UNL     1      53.559   3.621  18.310  0.00  0.00    +0.000 A 
ATOM     10  N   UNL     1      53.565   4.874  17.747  0.00  0.00    +0.000 N 
ATOM     11  C   UNL     1      52.455   5.431  17.156  0.00  0.00    +0.000 A 
ATOM     12  O   UNL     1      52.496   6.522  16.595  0.00  0.00    +0.000 OA
ATOM     13  C   UNL     1      51.271   4.601  17.239  0.00  0.00    +0.000 A 
ATOM     14  H   UNL     1      54.412   5.419  17.706  0.00  0.00    +0.000 HD
ENDBRANCH   3   4
BRANCH   3  16
ATOM     15  C   UNL     1      47.344   6.284  19.003  0.00  0.00    +0.000 C 
ATOM     16  C   UNL     1      48.851   6.462  18.805  0.00  0.00    +0.000 C 
ENDBRANCH   3  16
ENDBRANCH   1   3
BRANCH   1  17
ATOM     17  C   UNL     1      48.729   6.810  15.006  0.00  0.00    +0.000 C 
BRANCH  17  18
ATOM     18  C   UNL     1      47.704   6.467  13.950  0.00  0.00    +0.000 A 
ATOM     19  C   UNL     1      47.578   7.261  12.803  0.00  0.00    +0.000 A 
ATOM     20  C   UNL     1      46.662   6.928  11.803  0.00  0.00    +0.000 A 
ATOM     21  C   UNL     1      45.855   5.789  11.924  0.00  0.00    +0.000 A 
ATOM     22  C   UNL     1      45.996   4.982  13.061  0.00  0.00    +0.000 A 
ATOM     23  C   UNL     1      46.915   5.314  14.062  0.00  0.00    +0.000 A 
BRANCH  21  24
ATOM     24  C   UNL     1      44.835   5.465  10.863  0.00  0.00    +0.000 C 
BRANCH  24  25
ATOM     25  O   UNL     1      45.502   5.090   9.662  0.00  0.00    +0.000 OA
BRANCH  25  26
ATOM     26  C   UNL     1      44.762   4.092   8.947  0.00  0.00    +0.000 C 
BRANCH  26  27
ATOM     27  C   UNL     1      45.679   3.220   8.119  0.00  0.00    +0.000 A 
ATOM     28  N   UNL     1      45.832   1.933   8.491  0.00  0.00    +0.000 NA
ATOM     29  C   UNL     1      46.687   1.192   7.761  0.00  0.00    +0.000 A 
ATOM     30  C   UNL     1      47.379   1.678   6.677  0.00  0.00    +0.000 A 
ATOM     31  C   UNL     1      47.156   2.994   6.366  0.00  0.00    +0.000 A 
ATOM     32  N   UNL     1      46.307   3.786   7.059  0.00  0.00    +0.000 NA
ENDBRANCH  26  27
ENDBRANCH  25  26
ENDBRANCH  24  25
ENDBRANCH  21  24
ENDBRANCH  17  18
ENDBRANCH   1  17
TORSDOF 9
ENDMDL
MODEL 6
REMARK VINA RESULT:    -6.427      2.141      3.294
REMARK INTER + INTRA:         -11.029
REMARK INTER:                  -9.806
REMARK INTRA:                  -1.222
REMARK UNBOUND:                -1.220
REMARK  Name = 
REMARK  10 active torsions:
REMARK  status: ('A' for Active; 'I' for Inactive)
REMARK    1  A    between atoms: C_1  and  C_2
REMARK    2  A    between atoms: C_2  and  C_3
REMARK    3  A    between atoms: C_3  and  N_4
REMARK    4  A    between atoms: C_3  and  C_21
REMARK    5  A    between atoms: N_4  and  C_5
REMARK    6  A    between atoms: C_5  and  C_6
REMARK    7  A    between atoms: C_9  and  C_10
REMARK    8  A    between atoms: C_10  and  O_11
REMARK    9  A    between atoms: O_11  and  C_12
REMARK   10  A    between atoms: C_12  and  C_13
REMARK                            x       y       z     vdW  Elec       q    Type
REMARK                         _______ _______ _______ _____ _____    ______ ____
ROOT
ATOM      1  N   UNL     1      48.222   7.877  17.543  0.00  0.00    +0.000 NA
ATOM      2  H   UNL     1      47.679   7.046  17.307  0.00  0.00    +0.000 HD
ENDROOT
BRANCH   1   3
ATOM      3  C   UNL     1      49.088   7.555  18.685  0.00  0.00    +0.000 C 
BRANCH   3   4
ATOM      4  C   UNL     1      49.573   6.123  18.566  0.00  0.00    +0.000 A 
ATOM      5  C   UNL     1      50.895   5.718  18.676  0.00  0.00    +0.000 A 
ATOM      6  S   UNL     1      51.191   4.264  17.816  0.00  0.00    +0.000 S 
ATOM      7  C   UNL     1      49.544   4.102  17.411  0.00  0.00    +0.000 A 
ATOM      8  N   UNL     1      49.102   3.172  16.523  0.00  0.00    +0.000 NA
ATOM      9  C   UNL     1      47.817   3.154  16.373  0.00  0.00    +0.000 A 
ATOM     10  N   UNL     1      46.931   3.934  17.075  0.00  0.00    +0.000 N 
ATOM     11  C   UNL     1      47.333   4.888  17.982  0.00  0.00    +0.000 A 
ATOM     12  O   UNL     1      46.528   5.527  18.652  0.00  0.00    +0.000 OA
ATOM     13  C   UNL     1      48.771   5.032  18.077  0.00  0.00    +0.000 A 
ATOM     14  H   UNL     1      45.936   3.799  16.983  0.00  0.00    +0.000 HD
ENDBRANCH   3   4
BRANCH   3  16
ATOM     15  C   UNL     1      48.283   9.146  20.566  0.00  0.00    +0.000 C 
ATOM     16  C   UNL     1      48.356   7.707  20.052  0.00  0.00    +0.000 C 
ENDBRANCH   3  16
ENDBRANCH   1   3
BRANCH   1  17
ATOM     17  C   UNL     1      48.996   8.257  16.351  0.00  0.00    +0.000 C 
BRANCH  17  18
ATOM     18  C   UNL     1      48.334   7.805  15.070  0.00  0.00    +0.000 A 
ATOM     19  C   UNL     1      48.395   6.461  14.680  0.00  0.00    +0.000 A 
ATOM     20  C   UNL     1      47.752   6.026  13.519  0.00  0.00    +0.000 A 
ATOM     21  C   UNL     1      47.027   6.925  12.726  0.00  0.00    +0.000 A 
ATOM     22  C   UNL     1      46.945   8.264  13.128  0.00  0.00    +0.000 A 
ATOM     23  C   UNL     1      47.589   8.700  14.290  0.00  0.00    +0.000 A 
BRANCH  21  24
ATOM     24  C   UNL     1      46.376   6.456  11.449  0.00  0.00    +0.000 C 
BRANCH  24  25
ATOM     25  O   UNL     1      45.521   5.352  11.729  0.00  0.00    +0.000 OA
BRANCH  25  26
ATOM     26  C   UNL     1      44.557   5.163  10.686  0.00  0.00    +0.000 C 
BRANCH  26  27
ATOM     27  C   UNL     1      45.051   4.174   9.655  0.00  0.00    +0.000 A 
ATOM     28  N   UNL     1      44.903   2.860   9.919  0.00  0.00    +0.000 NA
ATOM     29  C   UNL     1      45.391   2.003   9.003  0.00  0.00    +0.000 A 
ATOM     30  C   UNL     1      46.004   2.402   7.838  0.00  0.00    +0.000 A 
ATOM     31  C   UNL     1      46.103   3.756   7.649  0.00  0.00    +0.000 A 
ATOM     32  N   UNL     1      45.629   4.665   8.531  0.00  0.00    +0.000 NA
ENDBRANCH  26  27
ENDBRANCH  25  26
ENDBRANCH  24  25
ENDBRANCH  21  24
ENDBRANCH  17  18
ENDBRANCH   1  17
TORSDOF 9
ENDMDL
MODEL 7
REMARK VINA RESULT:    -6.427      1.794      2.211
REMARK INTER + INTRA:         -11.028
REMARK INTER:                 -10.202
REMARK INTRA:                  -0.826
REMARK UNBOUND:                -1.220
REMARK  Name = 
REMARK  10 active torsions:
REMARK  status: ('A' for Active; 'I' for Inactive)
REMARK    1  A    between atoms: C_1  and  C_2
REMARK    2  A    between atoms: C_2  and  C_3
REMARK    3  A    between atoms: C_3  and  N_4
REMARK    4  A    between atoms: C_3  and  C_21
REMARK    5  A    between atoms: N_4  and  C_5
REMARK    6  A    between atoms: C_5  and  C_6
REMARK    7  A    between atoms: C_9  and  C_10
REMARK    8  A    between atoms: C_10  and  O_11
REMARK    9  A    between atoms: O_11  and  C_12
REMARK   10  A    between atoms: C_12  and  C_13
REMARK                            x       y       z     vdW  Elec       q    Type
REMARK                         _______ _______ _______ _____ _____    ______ ____
ROOT
ATOM      1  N   UNL     1      49.186   6.519  13.785  0.00  0.00    +0.000 NA
ATOM      2  H   UNL     1      49.025   6.694  12.793  0.00  0.00    +0.000 HD
ENDROOT
BRANCH   1   3
ATOM      3  C   UNL     1      49.822   7.709  14.368  0.00  0.00    +0.000 C 
BRANCH   3   4
ATOM      4  C   UNL     1      49.119   8.077  15.661  0.00  0.00    +0.000 A 
ATOM      5  C   UNL     1      48.221   9.124  15.809  0.00  0.00    +0.000 A 
ATOM      6  S   UNL     1      48.180   9.705  17.422  0.00  0.00    +0.000 S 
ATOM      7  C   UNL     1      49.249   8.487  17.948  0.00  0.00    +0.000 A 
ATOM      8  N   UNL     1      49.798   8.490  19.192  0.00  0.00    +0.000 NA
ATOM      9  C   UNL     1      50.544   7.463  19.442  0.00  0.00    +0.000 A 
ATOM     10  N   UNL     1      50.740   6.405  18.588  0.00  0.00    +0.000 N 
ATOM     11  C   UNL     1      50.205   6.360  17.321  0.00  0.00    +0.000 A 
ATOM     12  O   UNL     1      50.331   5.378  16.598  0.00  0.00    +0.000 OA
ATOM     13  C   UNL     1      49.474   7.556  16.955  0.00  0.00    +0.000 A 
ATOM     14  H   UNL     1      51.253   5.588  18.884  0.00  0.00    +0.000 HD
ENDBRANCH   3   4
BRANCH   3  16
ATOM     15  C   UNL     1      51.002   9.842  13.489  0.00  0.00    +0.000 C 
ATOM     16  C   UNL     1      49.767   8.941  13.417  0.00  0.00    +0.000 C 
ENDBRANCH   3  16
ENDBRANCH   1   3
BRANCH   1  17
ATOM     17  C   UNL     1      47.882   6.229  14.403  0.00  0.00    +0.000 C 
BRANCH  17  18
ATOM     18  C   UNL     1      46.850   5.801  13.387  0.00  0.00    +0.000 A 
ATOM     19  C   UNL     1      45.949   4.770  13.686  0.00  0.00    +0.000 A 
ATOM     20  C   UNL     1      44.965   4.396  12.768  0.00  0.00    +0.000 A 
ATOM     21  C   UNL     1      44.855   5.048  11.534  0.00  0.00    +0.000 A 
ATOM     22  C   UNL     1      45.740   6.095  11.243  0.00  0.00    +0.000 A 
ATOM     23  C   UNL     1      46.725   6.471  12.162  0.00  0.00    +0.000 A 
BRANCH  21  24
ATOM     24  C   UNL     1      43.820   4.604  10.531  0.00  0.00    +0.000 C 
BRANCH  24  25
ATOM     25  O   UNL     1      44.347   3.543   9.742  0.00  0.00    +0.000 OA
BRANCH  25  26
ATOM     26  C   UNL     1      44.614   3.973   8.402  0.00  0.00    +0.000 C 
BRANCH  26  27
ATOM     27  C   UNL     1      45.691   3.129   7.759  0.00  0.00    +0.000 A 
ATOM     28  N   UNL     1      46.331   3.634   6.685  0.00  0.00    +0.000 NA
ATOM     29  C   UNL     1      47.255   2.842   6.108  0.00  0.00    +0.000 A 
ATOM     30  C   UNL     1      47.571   1.584   6.564  0.00  0.00    +0.000 A 
ATOM     31  C   UNL     1      46.875   1.156   7.665  0.00  0.00    +0.000 A 
ATOM     32  N   UNL     1      45.939   1.906   8.289  0.00  0.00    +0.000 NA
ENDBRANCH  26  27
ENDBRANCH  25  26
ENDBRANCH  24  25
ENDBRANCH  21  24
ENDBRANCH  17  18
ENDBRANCH   1  17
TORSDOF 9
ENDMDL
MODEL 8
REMARK VINA RESULT:    -6.068      5.042      8.518
REMARK INTER + INTRA:         -10.481
REMARK INTER:                  -9.088
REMARK INTRA:                  -1.393
REMARK UNBOUND:                -1.220
REMARK  Name = 
REMARK  10 active torsions:
REMARK  status: ('A' for Active; 'I' for Inactive)
REMARK    1  A    between atoms: C_1  and  C_2
REMARK    2  A    between atoms: C_2  and  C_3
REMARK    3  A    between atoms: C_3  and  N_4
REMARK    4  A    between atoms: C_3  and  C_21
REMARK    5  A    between atoms: N_4  and  C_5
REMARK    6  A    between atoms: C_5  and  C_6
REMARK    7  A    between atoms: C_9  and  C_10
REMARK    8  A    between atoms: C_10  and  O_11
REMARK    9  A    between atoms: O_11  and  C_12
REMARK   10  A    between atoms: C_12  and  C_13
REMARK                            x       y       z     vdW  Elec       q    Type
REMARK                         _______ _______ _______ _____ _____    ______ ____
ROOT
ATOM      1  N   UNL     1      45.613   7.026  11.670  0.00  0.00    +0.000 NA
ATOM      2  H   UNL     1      46.107   7.228  10.801  0.00  0.00    +0.000 HD
ENDROOT
BRANCH   1   3
ATOM      3  C   UNL     1      45.909   5.641  12.061  0.00  0.00    +0.000 C 
BRANCH   3   4
ATOM      4  C   UNL     1      44.857   4.715  11.481  0.00  0.00    +0.000 A 
ATOM      5  C   UNL     1      43.840   4.113  12.206  0.00  0.00    +0.000 A 
ATOM      6  S   UNL     1      43.314   2.653  11.477  0.00  0.00    +0.000 S 
ATOM      7  C   UNL     1      44.340   2.887  10.136  0.00  0.00    +0.000 A 
ATOM      8  N   UNL     1      44.542   1.924   9.198  0.00  0.00    +0.000 NA
ATOM      9  C   UNL     1      45.308   2.290   8.223  0.00  0.00    +0.000 A 
ATOM     10  N   UNL     1      45.838   3.548   8.066  0.00  0.00    +0.000 N 
ATOM     11  C   UNL     1      45.661   4.552   8.989  0.00  0.00    +0.000 A 
ATOM     12  O   UNL     1      46.080   5.689   8.800  0.00  0.00    +0.000 OA
ATOM     13  C   UNL     1      44.920   4.140  10.163  0.00  0.00    +0.000 A 
ATOM     14  H   UNL     1      46.345   3.796   7.230  0.00  0.00    +0.000 HD
ENDBRANCH   3   4
BRANCH   3  16
ATOM     15  C   UNL     1      47.026   4.506  14.106  0.00  0.00    +0.000 C 
ATOM     16  C   UNL     1      45.928   5.448  13.606  0.00  0.00    +0.000 C 
ENDBRANCH   3  16
ENDBRANCH   1   3
BRANCH   1  17
ATOM     17  C   UNL     1      46.070   7.996  12.678  0.00  0.00    +0.000 C 
BRANCH  17  18
ATOM     18  C   UNL     1      47.309   8.740  12.235  0.00  0.00    +0.000 A 
ATOM     19  C   UNL     1      48.506   8.049  12.011  0.00  0.00    +0.000 A 
ATOM     20  C   UNL     1      49.645   8.722  11.563  0.00  0.00    +0.000 A 
ATOM     21  C   UNL     1      49.610  10.101  11.322  0.00  0.00    +0.000 A 
ATOM     22  C   UNL     1      48.406  10.790  11.524  0.00  0.00    +0.000 A 
ATOM     23  C   UNL     1      47.266  10.116  11.972  0.00  0.00    +0.000 A 
BRANCH  21  24
ATOM     24  C   UNL     1      50.856  10.827  10.885  0.00  0.00    +0.000 C 
BRANCH  24  25
ATOM     25  O   UNL     1      51.952   9.919  10.861  0.00  0.00    +0.000 OA
BRANCH  25  26
ATOM     26  C   UNL     1      52.784  10.137   9.714  0.00  0.00    +0.000 C 
BRANCH  26  27
ATOM     27  C   UNL     1      52.778   8.936   8.797  0.00  0.00    +0.000 A 
ATOM     28  N   UNL     1      52.936   9.151   7.475  0.00  0.00    +0.000 NA
ATOM     29  C   UNL     1      52.883   8.067   6.678  0.00  0.00    +0.000 A 
ATOM     30  C   UNL     1      52.694   6.787   7.145  0.00  0.00    +0.000 A 
ATOM     31  C   UNL     1      52.551   6.662   8.503  0.00  0.00    +0.000 A 
ATOM     32  N   UNL     1      52.598   7.713   9.353  0.00  0.00    +0.000 NA
ENDBRANCH  26  27
ENDBRANCH  25  26
ENDBRANCH  24  25
ENDBRANCH  21  24
ENDBRANCH  17  18
ENDBRANCH   1  17
TORSDOF 9
ENDMDL
MODEL 9
REMARK VINA RESULT:    -5.918      3.666      8.304
REMARK INTER + INTRA:         -10.251
REMARK INTER:                  -8.401
REMARK INTRA:                  -1.849
REMARK UNBOUND:                -1.220
REMARK  Name = 
REMARK  10 active torsions:
REMARK  status: ('A' for Active; 'I' for Inactive)
REMARK    1  A    between atoms: C_1  and  C_2
REMARK    2  A    between atoms: C_2  and  C_3
REMARK    3  A    between atoms: C_3  and  N_4
REMARK    4  A    between atoms: C_3  and  C_21
REMARK    5  A    between atoms: N_4  and  C_5
REMARK    6  A    between atoms: C_5  and  C_6
REMARK    7  A    between atoms: C_9  and  C_10
REMARK    8  A    between atoms: C_10  and  O_11
REMARK    9  A    between atoms: O_11  and  C_12
REMARK   10  A    between atoms: C_12  and  C_13
REMARK                            x       y       z     vdW  Elec       q    Type
REMARK                         _______ _______ _______ _____ _____    ______ ____
ROOT
ATOM      1  N   UNL     1      48.202   9.251  13.232  0.00  0.00    +0.000 NA
ATOM      2  H   UNL     1      48.123  10.059  12.614  0.00  0.00    +0.000 HD
ENDROOT
BRANCH   1   3
ATOM      3  C   UNL     1      48.190   8.034  12.409  0.00  0.00    +0.000 C 
BRANCH   3   4
ATOM      4  C   UNL     1      47.174   7.055  12.964  0.00  0.00    +0.000 A 
ATOM      5  C   UNL     1      47.478   5.940  13.731  0.00  0.00    +0.000 A 
ATOM      6  S   UNL     1      46.283   4.719  13.583  0.00  0.00    +0.000 S 
ATOM      7  C   UNL     1      45.301   5.718  12.613  0.00  0.00    +0.000 A 
ATOM      8  N   UNL     1      44.198   5.250  11.970  0.00  0.00    +0.000 NA
ATOM      9  C   UNL     1      43.541   6.156  11.321  0.00  0.00    +0.000 A 
ATOM     10  N   UNL     1      43.849   7.494  11.307  0.00  0.00    +0.000 N 
ATOM     11  C   UNL     1      44.955   8.012  11.941  0.00  0.00    +0.000 A 
ATOM     12  O   UNL     1      45.177   9.218  11.978  0.00  0.00    +0.000 OA
ATOM     13  C   UNL     1      45.791   7.008  12.566  0.00  0.00    +0.000 A 
ATOM     14  H   UNL     1      43.238   8.162  10.863  0.00  0.00    +0.000 HD
ENDBRANCH   3   4
BRANCH   3  16
ATOM     15  C   UNL     1      50.432   7.687  11.155  0.00  0.00    +0.000 C 
ATOM     16  C   UNL     1      49.577   7.326  12.372  0.00  0.00    +0.000 C 
ENDBRANCH   3  16
ENDBRANCH   1   3
BRANCH   1  17
ATOM     17  C   UNL     1      49.452   9.393  13.994  0.00  0.00    +0.000 C 
BRANCH  17  18
ATOM     18  C   UNL     1      49.269   9.076  15.460  0.00  0.00    +0.000 A 
ATOM     19  C   UNL     1      48.144   9.549  16.149  0.00  0.00    +0.000 A 
ATOM     20  C   UNL     1      47.946   9.227  17.494  0.00  0.00    +0.000 A 
ATOM     21  C   UNL     1      48.864   8.421  18.178  0.00  0.00    +0.000 A 
ATOM     22  C   UNL     1      49.976   7.928  17.483  0.00  0.00    +0.000 A 
ATOM     23  C   UNL     1      50.175   8.249  16.137  0.00  0.00    +0.000 A 
BRANCH  21  24
ATOM     24  C   UNL     1      48.666   8.119  19.641  0.00  0.00    +0.000 C 
BRANCH  24  25
ATOM     25  O   UNL     1      48.744   6.713  19.852  0.00  0.00    +0.000 OA
BRANCH  25  26
ATOM     26  C   UNL     1      47.564   6.050  19.382  0.00  0.00    +0.000 C 
BRANCH  26  27
ATOM     27  C   UNL     1      47.911   4.857  18.522  0.00  0.00    +0.000 A 
ATOM     28  N   UNL     1      49.170   4.377  18.586  0.00  0.00    +0.000 NA
ATOM     29  C   UNL     1      49.462   3.342  17.777  0.00  0.00    +0.000 A 
ATOM     30  C   UNL     1      48.553   2.763  16.923  0.00  0.00    +0.000 A 
ATOM     31  C   UNL     1      47.296   3.311  16.929  0.00  0.00    +0.000 A 
ATOM     32  N   UNL     1      46.942   4.348  17.722  0.00  0.00    +0.000 NA
ENDBRANCH  26  27
ENDBRANCH  25  26
ENDBRANCH  24  25
ENDBRANCH  21  24
ENDBRANCH  17  18
ENDBRANCH   1  17
TORSDOF 9
ENDMDL
