MODEL 1
REMARK VINA RESULT:    -7.540      0.000      0.000
REMARK INTER + INTRA:         -11.493
REMARK INTER:                 -10.405
REMARK INTRA:                  -1.088
REMARK UNBOUND:                -1.088
REMARK  Name = 
REMARK  8 active torsions:
REMARK  status: ('A' for Active; 'I' for Inactive)
REMARK    1  A    between atoms: C_1  and  N_2
REMARK    2  A    between atoms: N_2  and  C_3
REMARK    3  A    between atoms: C_3  and  C_4
REMARK    4  A    between atoms: C_7  and  C_8
REMARK    5  A    between atoms: C_8  and  C_9
REMARK    6  A    between atoms: C_9  and  O_10
REMARK    7  A    between atoms: C_9  and  C_11
REMARK    8  A    between atoms: C_19  and  C_21
REMARK                            x       y       z     vdW  Elec       q    Type
REMARK                         _______ _______ _______ _____ _____    ______ ____
ROOT
ATOM      1  C   UNL     1      47.336   7.391  13.935  0.00  0.00    +0.000 C 
ENDROOT
BRANCH   1   2
ATOM      2  C   UNL     1      46.681   6.453  12.959  0.00  0.00    +0.000 A 
ATOM      3  C   UNL     1      46.175   5.215  13.347  0.00  0.00    +0.000 A 
ATOM      4  C   UNL     1      45.483   4.434  12.422  0.00  0.00    +0.000 A 
ATOM      5  C   UNL     1      45.313   4.914  11.125  0.00  0.00    +0.000 A 
ATOM      6  N   UNL     1      45.845   6.089  10.713  0.00  0.00    +0.000 NA
ATOM      7  C   UNL     1      46.510   6.825  11.629  0.00  0.00    +0.000 A 
BRANCH   5   8
ATOM      8  C   UNL     1      44.486   4.164  10.111  0.00  0.00    +0.000 C 
BRANCH   8   9
ATOM      9  C   UNL     1      44.958   2.711   9.926  0.00  0.00    +0.000 C 
BRANCH   9  10
ATOM     10  C   UNL     1      45.682   2.463   8.614  0.00  0.00    +0.000 A 
ATOM     11  C   UNL     1      45.796   3.499   7.702  0.00  0.00    +0.000 A 
ATOM     12  C   UNL     1      46.496   3.231   6.550  0.00  0.00    +0.000 A 
ATOM     13  N   UNL     1      47.050   2.037   6.280  0.00  0.00    +0.000 NA
ATOM     14  C   UNL     1      46.886   1.098   7.222  0.00  0.00    +0.000 A 
ATOM     15  N   UNL     1      46.226   1.246   8.384  0.00  0.00    +0.000 NA
ENDBRANCH   9  10
BRANCH   9  16
ATOM     16  O   UNL     1      43.855   1.794   9.991  0.00  0.00    +0.000 OA
ATOM     17  H   UNL     1      43.055   2.330  10.143  0.00  0.00    +0.000 HD
ENDBRANCH   9  16
ENDBRANCH   8   9
ENDBRANCH   5   8
ENDBRANCH   1   2
BRANCH   1  19
ATOM     18  C   UNL     1      49.574   7.916  12.931  0.00  0.00    +0.000 C 
ATOM     19  N   UNL     1      48.784   7.334  14.008  0.00  0.00    +0.000 N 
ATOM     20  C   UNL     1      49.502   7.073  15.189  0.00  0.00    +0.000 C 
ATOM     21  O   UNL     1      50.715   6.886  15.149  0.00  0.00    +0.000 OA
BRANCH  20  22
ATOM     22  C   UNL     1      48.849   7.186  16.505  0.00  0.00    +0.000 A 
ATOM     23  C   UNL     1      48.612   8.362  17.196  0.00  0.00    +0.000 A 
ATOM     24  S   UNL     1      48.263   8.118  18.855  0.00  0.00    +0.000 S 
ATOM     25  C   UNL     1      48.429   6.434  18.690  0.00  0.00    +0.000 A 
ATOM     26  N   UNL     1      48.412   5.607  19.769  0.00  0.00    +0.000 NA
ATOM     27  C   UNL     1      48.530   4.354  19.472  0.00  0.00    +0.000 A 
ATOM     28  N   UNL     1      48.601   3.852  18.195  0.00  0.00    +0.000 N 
ATOM     29  C   UNL     1      48.528   4.648  17.073  0.00  0.00    +0.000 A 
ATOM     30  O   UNL     1      48.336   4.175  15.959  0.00  0.00    +0.000 OA
ATOM     31  C   UNL     1      48.570   6.065  17.367  0.00  0.00    +0.000 A 
ATOM     32  H   UNL     1      48.558   2.857  18.033  0.00  0.00    +0.000 HD
ENDBRANCH  20  22
ENDBRANCH   1  19
TORSDOF 7
ENDMDL
MODEL 2
REMARK VINA RESULT:    -6.987      2.720      3.932
REMARK INTER + INTRA:         -10.730
REMARK INTER:                  -9.253
REMARK INTRA:                  -1.477
REMARK UNBOUND:                -1.088
REMARK  Name = 
REMARK  8 active torsions:
REMARK  status: ('A' for Active; 'I' for Inactive)
REMARK    1  A    between atoms: C_1  and  N_2
REMARK    2  A    between atoms: N_2  and  C_3
REMARK    3  A    between atoms: C_3  and  C_4
REMARK    4  A    between atoms: C_7  and  C_8
REMARK    5  A    between atoms: C_8  and  C_9
REMARK    6  A    between atoms: C_9  and  O_10
REMARK    7  A    between atoms: C_9  and  C_11
REMARK    8  A    between atoms: C_19  and  C_21
REMARK                            x       y       z     vdW  Elec       q    Type
REMARK                         _______ _______ _______ _____ _____    ______ ____
ROOT
ATOM      1  C   UNL     1      49.868   7.561  15.999  0.00  0.00    +0.000 C 
ENDROOT
BRANCH   1   2
ATOM      2  C   UNL     1      49.022   7.281  14.787  0.00  0.00    +0.000 A 
ATOM      3  C   UNL     1      48.199   6.161  14.701  0.00  0.00    +0.000 A 
ATOM      4  C   UNL     1      47.356   6.010  13.600  0.00  0.00    +0.000 A 
ATOM      5  C   UNL     1      47.359   6.988  12.608  0.00  0.00    +0.000 A 
ATOM      6  N   UNL     1      48.192   8.054  12.645  0.00  0.00    +0.000 NA
ATOM      7  C   UNL     1      48.997   8.176  13.722  0.00  0.00    +0.000 A 
BRANCH   5   8
ATOM      8  C   UNL     1      46.397   6.933  11.447  0.00  0.00    +0.000 C 
BRANCH   8   9
ATOM      9  C   UNL     1      44.971   6.551  11.883  0.00  0.00    +0.000 C 
BRANCH   9  10
ATOM     10  C   UNL     1      44.543   5.163  11.435  0.00  0.00    +0.000 A 
ATOM     11  C   UNL     1      43.735   4.408  12.269  0.00  0.00    +0.000 A 
ATOM     12  C   UNL     1      43.344   3.177  11.797  0.00  0.00    +0.000 A 
ATOM     13  N   UNL     1      43.712   2.692  10.599  0.00  0.00    +0.000 NA
ATOM     14  C   UNL     1      44.493   3.496   9.864  0.00  0.00    +0.000 A 
ATOM     15  N   UNL     1      44.933   4.715  10.220  0.00  0.00    +0.000 NA
ENDBRANCH   9  10
BRANCH   9  16
ATOM     16  O   UNL     1      44.005   7.485  11.377  0.00  0.00    +0.000 OA
ATOM     17  H   UNL     1      43.823   7.224  10.455  0.00  0.00    +0.000 HD
ENDBRANCH   9  16
ENDBRANCH   8   9
ENDBRANCH   5   8
ENDBRANCH   1   2
BRANCH   1  19
ATOM     18  C   UNL     1      48.034   8.780  17.200  0.00  0.00    +0.000 C 
ATOM     19  N   UNL     1      49.153   7.848  17.229  0.00  0.00    +0.000 N 
ATOM     20  C   UNL     1      49.223   7.048  18.384  0.00  0.00    +0.000 C 
ATOM     21  O   UNL     1      48.718   7.431  19.436  0.00  0.00    +0.000 OA
BRANCH  20  22
ATOM     22  C   UNL     1      49.748   5.673  18.313  0.00  0.00    +0.000 A 
ATOM     23  C   UNL     1      51.071   5.299  18.479  0.00  0.00    +0.000 A 
ATOM     24  S   UNL     1      51.412   3.726  17.893  0.00  0.00    +0.000 S 
ATOM     25  C   UNL     1      49.801   3.511  17.396  0.00  0.00    +0.000 A 
ATOM     26  N   UNL     1      49.418   2.430  16.665  0.00  0.00    +0.000 NA
ATOM     27  C   UNL     1      48.156   2.406  16.385  0.00  0.00    +0.000 A 
ATOM     28  N   UNL     1      47.236   3.330  16.819  0.00  0.00    +0.000 N 
ATOM     29  C   UNL     1      47.567   4.387  17.637  0.00  0.00    +0.000 A 
ATOM     30  O   UNL     1      46.711   5.045  18.219  0.00  0.00    +0.000 OA
ATOM     31  C   UNL     1      48.994   4.545  17.829  0.00  0.00    +0.000 A 
ATOM     32  H   UNL     1      46.249   3.177  16.674  0.00  0.00    +0.000 HD
ENDBRANCH  20  22
ENDBRANCH   1  19
TORSDOF 7
ENDMDL
MODEL 3
REMARK VINA RESULT:    -6.972      2.291      2.897
REMARK INTER + INTRA:         -10.710
REMARK INTER:                  -9.584
REMARK INTRA:                  -1.126
REMARK UNBOUND:                -1.088
REMARK  Name = 
REMARK  8 active torsions:
REMARK  status: ('A' for Active; 'I' for Inactive)
REMARK    1  A    between atoms: C_1  and  N_2
REMARK    2  A    between atoms: N_2  and  C_3
REMARK    3  A    between atoms: C_3  and  C_4
REMARK    4  A    between atoms: C_7  and  C_8
REMARK    5  A    between atoms: C_8  and  C_9
REMARK    6  A    between atoms: C_9  and  O_10
REMARK    7  A    between atoms: C_9  and  C_11
REMARK    8  A    between atoms: C_19  and  C_21
REMARK                            x       y       z     vdW  Elec       q    Type
REMARK                         _______ _______ _______ _____ _____    ______ ____
ROOT
ATOM      1  C   UNL     1      48.729   6.927  13.930  0.00  0.00    +0.000 C 
ENDROOT
BRANCH   1   2
ATOM      2  C   UNL     1      47.442   6.283  13.491  0.00  0.00    +0.000 A 
ATOM      3  C   UNL     1      47.219   4.914  13.618  0.00  0.00    +0.000 A 
ATOM      4  C   UNL     1      45.968   4.389  13.295  0.00  0.00    +0.000 A 
ATOM      5  C   UNL     1      44.967   5.251  12.852  0.00  0.00    +0.000 A 
ATOM      6  N   UNL     1      45.181   6.575  12.669  0.00  0.00    +0.000 NA
ATOM      7  C   UNL     1      46.401   7.057  12.989  0.00  0.00    +0.000 A 
BRANCH   5   8
ATOM      8  C   UNL     1      43.566   4.759  12.588  0.00  0.00    +0.000 C 
BRANCH   8   9
ATOM      9  C   UNL     1      43.153   4.924  11.114  0.00  0.00    +0.000 C 
BRANCH   9  10
ATOM     10  C   UNL     1      43.992   4.107  10.146  0.00  0.00    +0.000 A 
ATOM     11  C   UNL     1      44.816   4.766   9.248  0.00  0.00    +0.000 A 
ATOM     12  C   UNL     1      45.582   3.977   8.423  0.00  0.00    +0.000 A 
ATOM     13  N   UNL     1      45.557   2.634   8.449  0.00  0.00    +0.000 NA
ATOM     14  C   UNL     1      44.730   2.089   9.351  0.00  0.00    +0.000 A 
ATOM     15  N   UNL     1      43.938   2.757  10.207  0.00  0.00    +0.000 NA
ENDBRANCH   9  10
BRANCH   9  16
ATOM     16  O   UNL     1      43.234   6.297  10.702  0.00  0.00    +0.000 OA
ATOM     17  H   UNL     1      42.340   6.673  10.810  0.00  0.00    +0.000 HD
ENDBRANCH   9  16
ENDBRANCH   8   9
ENDBRANCH   5   8
ENDBRANCH   1   2
BRANCH   1  19
ATOM     18  C   UNL     1      47.818   8.991  15.028  0.00  0.00    +0.000 C 
ATOM     19  N   UNL     1      48.650   7.796  15.090  0.00  0.00    +0.000 N 
ATOM     20  C   UNL     1      49.031   7.412  16.388  0.00  0.00    +0.000 C 
ATOM     21  O   UNL     1      49.085   8.242  17.291  0.00  0.00    +0.000 OA
BRANCH  20  22
ATOM     22  C   UNL     1      49.207   5.988  16.727  0.00  0.00    +0.000 A 
ATOM     23  C   UNL     1      48.194   5.092  17.021  0.00  0.00    +0.000 A 
ATOM     24  S   UNL     1      48.746   3.672  17.802  0.00  0.00    +0.000 S 
ATOM     25  C   UNL     1      50.353   4.226  17.775  0.00  0.00    +0.000 A 
ATOM     26  N   UNL     1      51.347   3.565  18.425  0.00  0.00    +0.000 NA
ATOM     27  C   UNL     1      52.514   4.105  18.289  0.00  0.00    +0.000 A 
ATOM     28  N   UNL     1      52.785   5.207  17.516  0.00  0.00    +0.000 N 
ATOM     29  C   UNL     1      51.824   5.851  16.767  0.00  0.00    +0.000 A 
ATOM     30  O   UNL     1      52.120   6.659  15.895  0.00  0.00    +0.000 OA
ATOM     31  C   UNL     1      50.479   5.382  17.029  0.00  0.00    +0.000 A 
ATOM     32  H   UNL     1      53.738   5.495  17.349  0.00  0.00    +0.000 HD
ENDBRANCH  20  22
ENDBRANCH   1  19
TORSDOF 7
ENDMDL
MODEL 4
REMARK VINA RESULT:    -6.723      1.767      2.403
REMARK INTER + INTRA:         -10.366
REMARK INTER:                 -10.237
REMARK INTRA:                  -0.129
REMARK UNBOUND:                -1.088
REMARK  Name = 
REMARK  8 active torsions:
REMARK  status: ('A' for Active; 'I' for Inactive)
REMARK    1  A    between atoms: C_1  and  N_2
REMARK    2  A    between atoms: N_2  and  C_3
REMARK    3  A    between atoms: C_3  and  C_4
REMARK    4  A    between atoms: C_7  and  C_8
REMARK    5  A    between atoms: C_8  and  C_9
REMARK    6  A    between atoms: C_9  and  O_10
REMARK    7  A    between atoms: C_9  and  C_11
REMARK    8  A    between atoms: C_19  and  C_21
REMARK                            x       y       z     vdW  Elec       q    Type
REMARK                         _______ _______ _______ _____ _____    ______ ____
ROOT
ATOM      1  C   UNL     1      46.976   6.744  13.975  0.00  0.00    +0.000 C 
ENDROOT
BRANCH   1   2
ATOM      2  C   UNL     1      46.427   5.755  12.983  0.00  0.00    +0.000 A 
ATOM      3  C   UNL     1      46.264   4.407  13.294  0.00  0.00    +0.000 A 
ATOM      4  C   UNL     1      45.651   3.558  12.374  0.00  0.00    +0.000 A 
ATOM      5  C   UNL     1      45.212   4.082  11.159  0.00  0.00    +0.000 A 
ATOM      6  N   UNL     1      45.410   5.376  10.816  0.00  0.00    +0.000 NA
ATOM      7  C   UNL     1      46.006   6.176  11.725  0.00  0.00    +0.000 A 
BRANCH   5   8
ATOM      8  C   UNL     1      44.449   3.238  10.169  0.00  0.00    +0.000 C 
BRANCH   8   9
ATOM      9  C   UNL     1      44.755   3.623   8.710  0.00  0.00    +0.000 C 
BRANCH   9  10
ATOM     10  C   UNL     1      45.828   2.764   8.061  0.00  0.00    +0.000 A 
ATOM     11  C   UNL     1      46.725   3.356   7.187  0.00  0.00    +0.000 A 
ATOM     12  C   UNL     1      47.700   2.541   6.661  0.00  0.00    +0.000 A 
ATOM     13  N   UNL     1      47.806   1.233   6.947  0.00  0.00    +0.000 NA
ATOM     14  C   UNL     1      46.892   0.752   7.801  0.00  0.00    +0.000 A 
ATOM     15  N   UNL     1      45.900   1.452   8.379  0.00  0.00    +0.000 NA
ENDBRANCH   9  10
BRANCH   9  16
ATOM     16  O   UNL     1      45.179   4.991   8.611  0.00  0.00    +0.000 OA
ATOM     17  H   UNL     1      45.543   5.105   7.713  0.00  0.00    +0.000 HD
ENDBRANCH   9  16
ENDBRANCH   8   9
ENDBRANCH   5   8
ENDBRANCH   1   2
BRANCH   1  19
ATOM     18  C   UNL     1      48.355   8.329  12.604  0.00  0.00    +0.000 C 
ATOM     19  N   UNL     1      48.267   7.324  13.656  0.00  0.00    +0.000 N 
ATOM     20  C   UNL     1      49.390   7.256  14.499  0.00  0.00    +0.000 C 
ATOM     21  O   UNL     1      50.490   7.632  14.101  0.00  0.00    +0.000 OA
BRANCH  20  22
ATOM     22  C   UNL     1      49.240   6.897  15.921  0.00  0.00    +0.000 A 
ATOM     23  C   UNL     1      49.306   5.619  16.448  0.00  0.00    +0.000 A 
ATOM     24  S   UNL     1      48.647   5.497  18.023  0.00  0.00    +0.000 S 
ATOM     25  C   UNL     1      48.249   7.150  18.035  0.00  0.00    +0.000 A 
ATOM     26  N   UNL     1      47.509   7.698  19.036  0.00  0.00    +0.000 NA
ATOM     27  C   UNL     1      47.311   8.969  18.907  0.00  0.00    +0.000 A 
ATOM     28  N   UNL     1      47.835   9.749  17.904  0.00  0.00    +0.000 N 
ATOM     29  C   UNL     1      48.665   9.249  16.925  0.00  0.00    +0.000 A 
ATOM     30  O   UNL     1      49.323   9.986  16.199  0.00  0.00    +0.000 OA
ATOM     31  C   UNL     1      48.768   7.805  16.936  0.00  0.00    +0.000 A 
ATOM     32  H   UNL     1      47.750  10.753  17.939  0.00  0.00    +0.000 HD
ENDBRANCH  20  22
ENDBRANCH   1  19
TORSDOF 7
ENDMDL
MODEL 5
REMARK VINA RESULT:    -6.622      3.076      5.033
REMARK INTER + INTRA:         -10.227
REMARK INTER:                  -8.713
REMARK INTRA:                  -1.514
REMARK UNBOUND:                -1.088
REMARK  Name = 
REMARK  8 active torsions:
REMARK  status: ('A' for Active; 'I' for Inactive)
REMARK    1  A    between atoms: C_1  and  N_2
REMARK    2  A    between atoms: N_2  and  C_3
REMARK    3  A    between atoms: C_3  and  C_4
REMARK    4  A    between atoms: C_7  and  C_8
REMARK    5  A    between atoms: C_8  and  C_9
REMARK    6  A    between atoms: C_9  and  O_10
REMARK    7  A    between atoms: C_9  and  C_11
REMARK    8  A    between atoms: C_19  and  C_21
REMARK                            x       y       z     vdW  Elec       q    Type
REMARK                         _______ _______ _______ _____ _____    ______ ____
ROOT
ATOM      1  C   UNL     1      48.709   6.849  13.566  0.00  0.00    +0.000 C 
ENDROOT
BRANCH   1   2
ATOM      2  C   UNL     1      47.337   6.291  13.302  0.00  0.00    +0.000 A 
ATOM      3  C   UNL     1      47.015   4.963  13.568  0.00  0.00    +0.000 A 
ATOM      4  C   UNL     1      45.699   4.529  13.406  0.00  0.00    +0.000 A 
ATOM      5  C   UNL     1      44.735   5.440  12.981  0.00  0.00    +0.000 A 
ATOM      6  N   UNL     1      45.039   6.721  12.666  0.00  0.00    +0.000 NA
ATOM      7  C   UNL     1      46.319   7.114  12.831  0.00  0.00    +0.000 A 
BRANCH   5   8
ATOM      8  C   UNL     1      43.278   5.058  12.888  0.00  0.00    +0.000 C 
BRANCH   8   9
ATOM      9  C   UNL     1      42.763   5.056  11.437  0.00  0.00    +0.000 C 
BRANCH   9  10
ATOM     10  C   UNL     1      43.596   4.208  10.491  0.00  0.00    +0.000 A 
ATOM     11  C   UNL     1      44.305   4.831   9.477  0.00  0.00    +0.000 A 
ATOM     12  C   UNL     1      45.074   4.021   8.676  0.00  0.00    +0.000 A 
ATOM     13  N   UNL     1      45.154   2.689   8.829  0.00  0.00    +0.000 NA
ATOM     14  C   UNL     1      44.433   2.178   9.837  0.00  0.00    +0.000 A 
ATOM     15  N   UNL     1      43.650   2.870  10.682  0.00  0.00    +0.000 NA
ENDBRANCH   9  10
BRANCH   9  16
ATOM     16  O   UNL     1      42.718   6.386  10.899  0.00  0.00    +0.000 OA
ATOM     17  H   UNL     1      42.082   6.885  11.444  0.00  0.00    +0.000 HD
ENDBRANCH   9  16
ENDBRANCH   8   9
ENDBRANCH   5   8
ENDBRANCH   1   2
BRANCH   1  19
ATOM     18  C   UNL     1      49.384   6.953  15.980  0.00  0.00    +0.000 C 
ATOM     19  N   UNL     1      48.868   7.615  14.788  0.00  0.00    +0.000 N 
ATOM     20  C   UNL     1      48.892   9.020  14.839  0.00  0.00    +0.000 C 
ATOM     21  O   UNL     1      48.873   9.603  15.920  0.00  0.00    +0.000 OA
BRANCH  20  22
ATOM     22  C   UNL     1      49.112   9.811  13.615  0.00  0.00    +0.000 A 
ATOM     23  C   UNL     1      48.129  10.418  12.852  0.00  0.00    +0.000 A 
ATOM     24  S   UNL     1      48.657  10.857  11.284  0.00  0.00    +0.000 S 
ATOM     25  C   UNL     1      50.211  10.236  11.583  0.00  0.00    +0.000 A 
ATOM     26  N   UNL     1      51.144  10.143  10.598  0.00  0.00    +0.000 NA
ATOM     27  C   UNL     1      52.280   9.669  10.995  0.00  0.00    +0.000 A 
ATOM     28  N   UNL     1      52.585   9.338  12.292  0.00  0.00    +0.000 N 
ATOM     29  C   UNL     1      51.699   9.505  13.335  0.00  0.00    +0.000 A 
ATOM     30  O   UNL     1      52.062   9.451  14.504  0.00  0.00    +0.000 OA
ATOM     31  C   UNL     1      50.365   9.869  12.906  0.00  0.00    +0.000 A 
ATOM     32  H   UNL     1      53.530   9.101  12.552  0.00  0.00    +0.000 HD
ENDBRANCH  20  22
ENDBRANCH   1  19
TORSDOF 7
ENDMDL
MODEL 6
REMARK VINA RESULT:    -6.386      2.094      3.104
REMARK INTER + INTRA:          -9.900
REMARK INTER:                  -8.391
REMARK INTRA:                  -1.509
REMARK UNBOUND:                -1.088
REMARK  Name = 
REMARK  8 active torsions:
REMARK  status: ('A' for Active; 'I' for Inactive)
REMARK    1  A    between atoms: C_1  and  N_2
REMARK    2  A    between atoms: N_2  and  C_3
REMARK    3  A    between atoms: C_3  and  C_4
REMARK    4  A    between atoms: C_7  and  C_8
REMARK    5  A    between atoms: C_8  and  C_9
REMARK    6  A    between atoms: C_9  and  O_10
REMARK    7  A    between atoms: C_9  and  C_11
REMARK    8  A    between atoms: C_19  and  C_21
REMARK                            x       y       z     vdW  Elec       q    Type
REMARK                         _______ _______ _______ _____ _____    ______ ____
ROOT
ATOM      1  C   UNL     1      50.631   8.852  14.467  0.00  0.00    +0.000 C 
ENDROOT
BRANCH   1   2
ATOM      2  C   UNL     1      49.328   8.377  13.883  0.00  0.00    +0.000 A 
ATOM      3  C   UNL     1      48.102   8.900  14.285  0.00  0.00    +0.000 A 
ATOM      4  C   UNL     1      46.937   8.499  13.633  0.00  0.00    +0.000 A 
ATOM      5  C   UNL     1      47.028   7.580  12.589  0.00  0.00    +0.000 A 
ATOM      6  N   UNL     1      48.204   7.019  12.220  0.00  0.00    +0.000 NA
ATOM      7  C   UNL     1      49.316   7.425  12.868  0.00  0.00    +0.000 A 
BRANCH   5   8
ATOM      8  C   UNL     1      45.818   7.188  11.778  0.00  0.00    +0.000 C 
BRANCH   8   9
ATOM      9  C   UNL     1      45.167   5.888  12.285  0.00  0.00    +0.000 C 
BRANCH   9  10
ATOM     10  C   UNL     1      44.876   4.879  11.187  0.00  0.00    +0.000 A 
ATOM     11  C   UNL     1      45.317   5.139   9.900  0.00  0.00    +0.000 A 
ATOM     12  C   UNL     1      45.062   4.174   8.955  0.00  0.00    +0.000 A 
ATOM     13  N   UNL     1      44.416   3.027   9.223  0.00  0.00    +0.000 NA
ATOM     14  C   UNL     1      44.028   2.866  10.496  0.00  0.00    +0.000 A 
ATOM     15  N   UNL     1      44.224   3.736  11.501  0.00  0.00    +0.000 NA
ENDBRANCH   9  10
BRANCH   9  16
ATOM     16  O   UNL     1      43.931   6.156  12.964  0.00  0.00    +0.000 OA
ATOM     17  H   UNL     1      44.152   6.278  13.906  0.00  0.00    +0.000 HD
ENDBRANCH   9  16
ENDBRANCH   8   9
ENDBRANCH   5   8
ENDBRANCH   1   2
BRANCH   1  19
ATOM     18  C   UNL     1      52.897   7.795  14.663  0.00  0.00    +0.000 C 
ATOM     19  N   UNL     1      51.490   7.831  15.038  0.00  0.00    +0.000 N 
ATOM     20  C   UNL     1      51.167   7.082  16.184  0.00  0.00    +0.000 C 
ATOM     21  O   UNL     1      51.866   6.131  16.521  0.00  0.00    +0.000 OA
BRANCH  20  22
ATOM     22  C   UNL     1      50.093   7.525  17.091  0.00  0.00    +0.000 A 
ATOM     23  C   UNL     1      50.158   8.595  17.968  0.00  0.00    +0.000 A 
ATOM     24  S   UNL     1      48.946   8.560  19.176  0.00  0.00    +0.000 S 
ATOM     25  C   UNL     1      48.309   7.108  18.562  0.00  0.00    +0.000 A 
ATOM     26  N   UNL     1      47.336   6.422  19.218  0.00  0.00    +0.000 NA
ATOM     27  C   UNL     1      46.948   5.350  18.608  0.00  0.00    +0.000 A 
ATOM     28  N   UNL     1      47.400   4.936  17.379  0.00  0.00    +0.000 N 
ATOM     29  C   UNL     1      48.317   5.652  16.640  0.00  0.00    +0.000 A 
ATOM     30  O   UNL     1      48.516   5.413  15.454  0.00  0.00    +0.000 OA
ATOM     31  C   UNL     1      48.901   6.762  17.363  0.00  0.00    +0.000 A 
ATOM     32  H   UNL     1      46.958   4.164  16.903  0.00  0.00    +0.000 HD
ENDBRANCH  20  22
ENDBRANCH   1  19
TORSDOF 7
ENDMDL
MODEL 7
REMARK VINA RESULT:    -6.359      2.409      3.181
REMARK INTER + INTRA:          -9.863
REMARK INTER:                  -8.724
REMARK INTRA:                  -1.139
REMARK UNBOUND:                -1.088
REMARK  Name = 
REMARK  8 active torsions:
REMARK  status: ('A' for Active; 'I' for Inactive)
REMARK    1  A    between atoms: C_1  and  N_2
REMARK    2  A    between atoms: N_2  and  C_3
REMARK    3  A    between atoms: C_3  and  C_4
REMARK    4  A    between atoms: C_7  and  C_8
REMARK    5  A    between atoms: C_8  and  C_9
REMARK    6  A    between atoms: C_9  and  O_10
REMARK    7  A    between atoms: C_9  and  C_11
REMARK    8  A    between atoms: C_19  and  C_21
REMARK                            x       y       z     vdW  Elec       q    Type
REMARK                         _______ _______ _______ _____ _____    ______ ____
ROOT
ATOM      1  C   UNL     1      46.466   8.769  13.293  0.00  0.00    +0.000 C 
ENDROOT
BRANCH   1   2
ATOM      2  C   UNL     1      45.861   7.598  12.568  0.00  0.00    +0.000 A 
ATOM      3  C   UNL     1      46.217   6.283  12.858  0.00  0.00    +0.000 A 
ATOM      4  C   UNL     1      45.545   5.235  12.230  0.00  0.00    +0.000 A 
ATOM      5  C   UNL     1      44.528   5.530  11.324  0.00  0.00    +0.000 A 
ATOM      6  N   UNL     1      44.205   6.801  10.988  0.00  0.00    +0.000 NA
ATOM      7  C   UNL     1      44.871   7.796  11.610  0.00  0.00    +0.000 A 
BRANCH   5   8
ATOM      8  C   UNL     1      43.697   4.441  10.693  0.00  0.00    +0.000 C 
BRANCH   8   9
ATOM      9  C   UNL     1      44.458   3.108  10.585  0.00  0.00    +0.000 C 
BRANCH   9  10
ATOM     10  C   UNL     1      45.244   2.953   9.293  0.00  0.00    +0.000 A 
ATOM     11  C   UNL     1      45.596   1.682   8.870  0.00  0.00    +0.000 A 
ATOM     12  C   UNL     1      46.271   1.597   7.674  0.00  0.00    +0.000 A 
ATOM     13  N   UNL     1      46.597   2.667   6.930  0.00  0.00    +0.000 NA
ATOM     14  C   UNL     1      46.213   3.853   7.422  0.00  0.00    +0.000 A 
ATOM     15  N   UNL     1      45.550   4.056   8.574  0.00  0.00    +0.000 NA
ENDBRANCH   9  10
BRANCH   9  16
ATOM     16  O   UNL     1      43.565   1.989  10.683  0.00  0.00    +0.000 OA
ATOM     17  H   UNL     1      43.032   1.985   9.866  0.00  0.00    +0.000 HD
ENDBRANCH   9  16
ENDBRANCH   8   9
ENDBRANCH   5   8
ENDBRANCH   1   2
BRANCH   1  19
ATOM     18  C   UNL     1      47.594  10.506  11.878  0.00  0.00    +0.000 C 
ATOM     19  N   UNL     1      47.681   9.321  12.721  0.00  0.00    +0.000 N 
ATOM     20  C   UNL     1      48.975   9.020  13.182  0.00  0.00    +0.000 C 
ATOM     21  O   UNL     1      49.961   9.399  12.555  0.00  0.00    +0.000 OA
BRANCH  20  22
ATOM     22  C   UNL     1      49.174   8.398  14.503  0.00  0.00    +0.000 A 
ATOM     23  C   UNL     1      49.447   7.061  14.739  0.00  0.00    +0.000 A 
ATOM     24  S   UNL     1      49.172   6.586  16.361  0.00  0.00    +0.000 S 
ATOM     25  C   UNL     1      48.672   8.155  16.784  0.00  0.00    +0.000 A 
ATOM     26  N   UNL     1      48.140   8.428  18.006  0.00  0.00    +0.000 NA
ATOM     27  C   UNL     1      47.830   9.672  18.176  0.00  0.00    +0.000 A 
ATOM     28  N   UNL     1      48.058  10.672  17.263  0.00  0.00    +0.000 N 
ATOM     29  C   UNL     1      48.678  10.452  16.052  0.00  0.00    +0.000 A 
ATOM     30  O   UNL     1      49.102  11.377  15.368  0.00  0.00    +0.000 OA
ATOM     31  C   UNL     1      48.883   9.050  15.754  0.00  0.00    +0.000 A 
ATOM     32  H   UNL     1      47.913  11.639  17.514  0.00  0.00    +0.000 HD
ENDBRANCH  20  22
ENDBRANCH   1  19
TORSDOF 7
ENDMDL
MODEL 8
REMARK VINA RESULT:    -6.104      2.967      4.855
REMARK INTER + INTRA:          -9.512
REMARK INTER:                  -8.463
REMARK INTRA:                  -1.049
REMARK UNBOUND:                -1.088
REMARK  Name = 
REMARK  8 active torsions:
REMARK  status: ('A' for Active; 'I' for Inactive)
REMARK    1  A    between atoms: C_1  and  N_2
REMARK    2  A    between atoms: N_2  and  C_3
REMARK    3  A    between atoms: C_3  and  C_4
REMARK    4  A    between atoms: C_7  and  C_8
REMARK    5  A    between atoms: C_8  and  C_9
REMARK    6  A    between atoms: C_9  and  O_10
REMARK    7  A    between atoms: C_9  and  C_11
REMARK    8  A    between atoms: C_19  and  C_21
REMARK                            x       y       z     vdW  Elec       q    Type
REMARK                         _______ _______ _______ _____ _____    ______ ____
ROOT
ATOM      1  C   UNL     1      48.951   3.903  18.605  0.00  0.00    +0.000 C 
ENDROOT
BRANCH   1   2
ATOM      2  C   UNL     1      48.338   4.384  17.319  0.00  0.00    +0.000 A 
ATOM      3  C   UNL     1      48.664   5.617  16.759  0.00  0.00    +0.000 A 
ATOM      4  C   UNL     1      48.147   5.963  15.511  0.00  0.00    +0.000 A 
ATOM      5  C   UNL     1      47.313   5.063  14.851  0.00  0.00    +0.000 A 
ATOM      6  N   UNL     1      46.940   3.884  15.403  0.00  0.00    +0.000 NA
ATOM      7  C   UNL     1      47.455   3.574  16.611  0.00  0.00    +0.000 A 
BRANCH   5   8
ATOM      8  C   UNL     1      46.808   5.336  13.456  0.00  0.00    +0.000 C 
BRANCH   8   9
ATOM      9  C   UNL     1      45.271   5.374  13.384  0.00  0.00    +0.000 C 
BRANCH   9  10
ATOM     10  C   UNL     1      44.682   4.435  12.345  0.00  0.00    +0.000 A 
ATOM     11  C   UNL     1      45.032   4.600  11.015  0.00  0.00    +0.000 A 
ATOM     12  C   UNL     1      44.502   3.697  10.123  0.00  0.00    +0.000 A 
ATOM     13  N   UNL     1      43.678   2.699  10.481  0.00  0.00    +0.000 NA
ATOM     14  C   UNL     1      43.398   2.620  11.789  0.00  0.00    +0.000 A 
ATOM     15  N   UNL     1      43.858   3.441  12.749  0.00  0.00    +0.000 NA
ENDBRANCH   9  10
BRANCH   9  16
ATOM     16  O   UNL     1      44.796   6.696  13.090  0.00  0.00    +0.000 OA
ATOM     17  H   UNL     1      44.390   7.035  13.910  0.00  0.00    +0.000 HD
ENDBRANCH   9  16
ENDBRANCH   8   9
ENDBRANCH   5   8
ENDBRANCH   1   2
BRANCH   1  19
ATOM     18  C   UNL     1      51.310   4.011  17.759  0.00  0.00    +0.000 C 
ATOM     19  N   UNL     1      50.343   4.250  18.823  0.00  0.00    +0.000 N 
ATOM     20  C   UNL     1      50.789   5.112  19.841  0.00  0.00    +0.000 C 
ATOM     21  O   UNL     1      51.990   5.239  20.065  0.00  0.00    +0.000 OA
BRANCH  20  22
ATOM     22  C   UNL     1      49.843   6.001  20.538  0.00  0.00    +0.000 A 
ATOM     23  C   UNL     1      49.121   5.687  21.677  0.00  0.00    +0.000 A 
ATOM     24  S   UNL     1      47.803   6.743  21.960  0.00  0.00    +0.000 S 
ATOM     25  C   UNL     1      48.160   7.640  20.561  0.00  0.00    +0.000 A 
ATOM     26  N   UNL     1      47.328   8.614  20.106  0.00  0.00    +0.000 NA
ATOM     27  C   UNL     1      47.754   9.214  19.043  0.00  0.00    +0.000 A 
ATOM     28  N   UNL     1      48.960   8.971  18.431  0.00  0.00    +0.000 N 
ATOM     29  C   UNL     1      49.872   8.058  18.914  0.00  0.00    +0.000 A 
ATOM     30  O   UNL     1      51.031   8.034  18.517  0.00  0.00    +0.000 OA
ATOM     31  C   UNL     1      49.359   7.246  19.998  0.00  0.00    +0.000 A 
ATOM     32  H   UNL     1      49.286   9.567  17.686  0.00  0.00    +0.000 HD
ENDBRANCH  20  22
ENDBRANCH   1  19
TORSDOF 7
ENDMDL
MODEL 9
REMARK VINA RESULT:    -5.917      1.986      3.746
REMARK INTER + INTRA:          -9.254
REMARK INTER:                  -8.105
REMARK INTRA:                  -1.150
REMARK UNBOUND:                -1.088
REMARK  Name = 
REMARK  8 active torsions:
REMARK  status: ('A' for Active; 'I' for Inactive)
REMARK    1  A    between atoms: C_1  and  N_2
REMARK    2  A    between atoms: N_2  and  C_3
REMARK    3  A    between atoms: C_3  and  C_4
REMARK    4  A    between atoms: C_7  and  C_8
REMARK    5  A    between atoms: C_8  and  C_9
REMARK    6  A    between atoms: C_9  and  O_10
REMARK    7  A    between atoms: C_9  and  C_11
REMARK    8  A    between atoms: C_19  and  C_21
REMARK                            x       y       z     vdW  Elec       q    Type
REMARK                         _______ _______ _______ _____ _____    ______ ____
ROOT
ATOM      1  C   UNL     1      47.540   4.261  17.063  0.00  0.00    +0.000 C 
ENDROOT
BRANCH   1   2
ATOM      2  C   UNL     1      47.342   4.644  15.622  0.00  0.00    +0.000 A 
ATOM      3  C   UNL     1      46.599   3.860  14.743  0.00  0.00    +0.000 A 
ATOM      4  C   UNL     1      46.359   4.318  13.448  0.00  0.00    +0.000 A 
ATOM      5  C   UNL     1      46.870   5.556  13.064  0.00  0.00    +0.000 A 
ATOM      6  N   UNL     1      47.640   6.307  13.886  0.00  0.00    +0.000 NA
ATOM      7  C   UNL     1      47.857   5.840  15.133  0.00  0.00    +0.000 A 
BRANCH   5   8
ATOM      8  C   UNL     1      46.557   6.151  11.714  0.00  0.00    +0.000 C 
BRANCH   8   9
ATOM      9  C   UNL     1      45.180   5.712  11.183  0.00  0.00    +0.000 C 
BRANCH   9  10
ATOM     10  C   UNL     1      45.253   4.694  10.057  0.00  0.00    +0.000 A 
ATOM     11  C   UNL     1      44.720   3.431  10.258  0.00  0.00    +0.000 A 
ATOM     12  C   UNL     1      44.776   2.564   9.192  0.00  0.00    +0.000 A 
ATOM     13  N   UNL     1      45.318   2.882   8.005  0.00  0.00    +0.000 NA
ATOM     14  C   UNL     1      45.808   4.126   7.908  0.00  0.00    +0.000 A 
ATOM     15  N   UNL     1      45.806   5.057   8.878  0.00  0.00    +0.000 NA
ENDBRANCH   9  10
BRANCH   9  16
ATOM     16  O   UNL     1      44.426   6.834  10.702  0.00  0.00    +0.000 OA
ATOM     17  H   UNL     1      43.515   6.719  11.032  0.00  0.00    +0.000 HD
ENDBRANCH   9  16
ENDBRANCH   8   9
ENDBRANCH   5   8
ENDBRANCH   1   2
BRANCH   1  19
ATOM     18  C   UNL     1      49.476   2.705  16.710  0.00  0.00    +0.000 C 
ATOM     19  N   UNL     1      48.871   3.816  17.433  0.00  0.00    +0.000 N 
ATOM     20  C   UNL     1      49.771   4.578  18.199  0.00  0.00    +0.000 C 
ATOM     21  O   UNL     1      50.817   4.081  18.605  0.00  0.00    +0.000 OA
BRANCH  20  22
ATOM     22  C   UNL     1      49.559   6.025  18.384  0.00  0.00    +0.000 A 
ATOM     23  C   UNL     1      48.699   6.612  19.296  0.00  0.00    +0.000 A 
ATOM     24  S   UNL     1      48.353   8.252  18.949  0.00  0.00    +0.000 S 
ATOM     25  C   UNL     1      49.338   8.216  17.564  0.00  0.00    +0.000 A 
ATOM     26  N   UNL     1      49.380   9.257  16.691  0.00  0.00    +0.000 NA
ATOM     27  C   UNL     1      50.193   9.080  15.702  0.00  0.00    +0.000 A 
ATOM     28  N   UNL     1      51.009   7.987  15.540  0.00  0.00    +0.000 N 
ATOM     29  C   UNL     1      51.065   6.955  16.450  0.00  0.00    +0.000 A 
ATOM     30  O   UNL     1      51.967   6.125  16.429  0.00  0.00    +0.000 OA
ATOM     31  C   UNL     1      50.047   7.034  17.477  0.00  0.00    +0.000 A 
ATOM     32  H   UNL     1      51.714   7.976  14.818  0.00  0.00    +0.000 HD
ENDBRANCH  20  22
ENDBRANCH   1  19
TORSDOF 7
ENDMDL
