MODEL 1
REMARK VINA RESULT:    -8.502      0.000      0.000
REMARK INTER + INTRA:         -11.628
REMARK INTER:                 -10.987
REMARK INTRA:                  -0.640
REMARK UNBOUND:                -0.640
REMARK  Name = 
REMARK  6 active torsions:
REMARK  status: ('A' for Active; 'I' for Inactive)
REMARK    1  A    between atoms: C_1  and  C_2
REMARK    2  A    between atoms: C_2  and  N_3
REMARK    3  A    between atoms: C_2  and  C_17
REMARK    4  A    between atoms: C_7  and  C_8
REMARK    5  A    between atoms: C_8  and  C_9
REMARK    6  A    between atoms: C_17  and  C_19
REMARK                            x       y       z     vdW  Elec       q    Type
REMARK                         _______ _______ _______ _____ _____    ______ ____
ROOT
ATOM      1  C   UNL     1      48.817   6.035  15.698  0.00  0.00    +0.000 C 
ATOM      2  C   UNL     1      47.832   4.935  15.314  0.00  0.00    +0.000 C 
ENDROOT
BRANCH   2   3
ATOM      3  N   UNL     1      46.590   5.450  14.744  0.00  0.00    +0.000 N 
ATOM      4  C   UNL     1      46.025   4.905  13.624  0.00  0.00    +0.000 A 
ATOM      5  N   UNL     1      46.266   3.630  13.296  0.00  0.00    +0.000 NA
ATOM      6  C   UNL     1      45.651   3.157  12.189  0.00  0.00    +0.000 A 
ATOM      7  C   UNL     1      44.825   3.909  11.383  0.00  0.00    +0.000 A 
ATOM      8  C   UNL     1      44.647   5.204  11.813  0.00  0.00    +0.000 A 
ATOM      9  N   UNL     1      45.230   5.718  12.916  0.00  0.00    +0.000 NA
ATOM     10  H   UNL     1      46.460   6.456  14.777  0.00  0.00    +0.000 HD
BRANCH   7  11
ATOM     11  C   UNL     1      44.143   3.351  10.170  0.00  0.00    +0.000 C 
BRANCH  11  12
ATOM     12  C   UNL     1      45.095   3.080   9.026  0.00  0.00    +0.000 A 
ATOM     13  C   UNL     1      45.550   1.786   8.776  0.00  0.00    +0.000 A 
ATOM     14  C   UNL     1      46.518   1.592   7.794  0.00  0.00    +0.000 A 
ATOM     15  C   UNL     1      46.993   2.685   7.079  0.00  0.00    +0.000 A 
ATOM     16  C   UNL     1      46.460   3.930   7.363  0.00  0.00    +0.000 A 
ATOM     17  N   UNL     1      45.528   4.153   8.318  0.00  0.00    +0.000 NA
ENDBRANCH  11  12
ENDBRANCH   7  11
ENDBRANCH   2   3
BRANCH   2  18
ATOM     18  C   UNL     1      47.478   4.210  16.623  0.00  0.00    +0.000 C 
ATOM     19  O   UNL     1      46.441   3.540  16.690  0.00  0.00    +0.000 OA
BRANCH  18  20
ATOM     20  C   UNL     1      48.377   4.250  17.774  0.00  0.00    +0.000 A 
ATOM     21  C   UNL     1      48.184   5.004  18.918  0.00  0.00    +0.000 A 
ATOM     22  S   UNL     1      49.646   5.215  19.796  0.00  0.00    +0.000 S 
ATOM     23  C   UNL     1      50.493   4.173  18.745  0.00  0.00    +0.000 A 
ATOM     24  N   UNL     1      51.834   3.981  18.839  0.00  0.00    +0.000 NA
ATOM     25  C   UNL     1      52.298   3.105  18.010  0.00  0.00    +0.000 A 
ATOM     26  N   UNL     1      51.538   2.362  17.135  0.00  0.00    +0.000 N 
ATOM     27  C   UNL     1      50.165   2.485  17.033  0.00  0.00    +0.000 A 
ATOM     28  O   UNL     1      49.482   1.682  16.416  0.00  0.00    +0.000 OA
ATOM     29  C   UNL     1      49.636   3.583  17.838  0.00  0.00    +0.000 A 
ATOM     30  H   UNL     1      51.947   1.601  16.618  0.00  0.00    +0.000 HD
ENDBRANCH  18  20
ENDBRANCH   2  18
TORSDOF 5
ENDMDL
MODEL 2
REMARK VINA RESULT:    -7.889      1.832      2.349
REMARK INTER + INTRA:         -10.836
REMARK INTER:                  -9.899
REMARK INTRA:                  -0.936
REMARK UNBOUND:                -0.640
REMARK  Name = 
REMARK  6 active torsions:
REMARK  status: ('A' for Active; 'I' for Inactive)
REMARK    1  A    between atoms: C_1  and  C_2
REMARK    2  A    between atoms: C_2  and  N_3
REMARK    3  A    between atoms: C_2  and  C_17
REMARK    4  A    between atoms: C_7  and  C_8
REMARK    5  A    between atoms: C_8  and  C_9
REMARK    6  A    between atoms: C_17  and  C_19
REMARK                            x       y       z     vdW  Elec       q    Type
REMARK                         _______ _______ _______ _____ _____    ______ ____
ROOT
ATOM      1  C   UNL     1      49.734   7.577  13.649  0.00  0.00    +0.000 C 
ATOM      2  C   UNL     1      48.617   6.881  14.420  0.00  0.00    +0.000 C 
ENDROOT
BRANCH   2   3
ATOM      3  N   UNL     1      47.284   7.342  14.042  0.00  0.00    +0.000 N 
ATOM      4  C   UNL     1      46.512   6.664  13.139  0.00  0.00    +0.000 A 
ATOM      5  N   UNL     1      46.688   5.352  12.948  0.00  0.00    +0.000 NA
ATOM      6  C   UNL     1      45.869   4.749  12.058  0.00  0.00    +0.000 A 
ATOM      7  C   UNL     1      44.896   5.404  11.336  0.00  0.00    +0.000 A 
ATOM      8  C   UNL     1      44.800   6.748  11.612  0.00  0.00    +0.000 A 
ATOM      9  N   UNL     1      45.588   7.392  12.498  0.00  0.00    +0.000 NA
ATOM     10  H   UNL     1      47.159   8.347  13.962  0.00  0.00    +0.000 HD
BRANCH   7  11
ATOM     11  C   UNL     1      43.990   4.703  10.367  0.00  0.00    +0.000 C 
BRANCH  11  12
ATOM     12  C   UNL     1      44.737   3.857   9.361  0.00  0.00    +0.000 A 
ATOM     13  C   UNL     1      44.755   2.468   9.479  0.00  0.00    +0.000 A 
ATOM     14  C   UNL     1      45.552   1.729   8.608  0.00  0.00    +0.000 A 
ATOM     15  C   UNL     1      46.293   2.390   7.637  0.00  0.00    +0.000 A 
ATOM     16  C   UNL     1      46.189   3.768   7.562  0.00  0.00    +0.000 A 
ATOM     17  N   UNL     1      45.434   4.514   8.401  0.00  0.00    +0.000 NA
ENDBRANCH  11  12
ENDBRANCH   7  11
ENDBRANCH   2   3
BRANCH   2  18
ATOM     18  C   UNL     1      48.834   7.248  15.898  0.00  0.00    +0.000 C 
ATOM     19  O   UNL     1      48.279   8.248  16.368  0.00  0.00    +0.000 OA
BRANCH  18  20
ATOM     20  C   UNL     1      49.638   6.399  16.775  0.00  0.00    +0.000 A 
ATOM     21  C   UNL     1      50.785   6.792  17.441  0.00  0.00    +0.000 A 
ATOM     22  S   UNL     1      51.731   5.444  17.931  0.00  0.00    +0.000 S 
ATOM     23  C   UNL     1      50.539   4.345  17.403  0.00  0.00    +0.000 A 
ATOM     24  N   UNL     1      50.735   3.002  17.413  0.00  0.00    +0.000 NA
ATOM     25  C   UNL     1      49.701   2.318  17.046  0.00  0.00    +0.000 A 
ATOM     26  N   UNL     1      48.473   2.849  16.724  0.00  0.00    +0.000 N 
ATOM     27  C   UNL     1      48.208   4.205  16.744  0.00  0.00    +0.000 A 
ATOM     28  O   UNL     1      47.072   4.649  16.667  0.00  0.00    +0.000 OA
ATOM     29  C   UNL     1      49.400   5.009  16.993  0.00  0.00    +0.000 A 
ATOM     30  H   UNL     1      47.675   2.250  16.583  0.00  0.00    +0.000 HD
ENDBRANCH  18  20
ENDBRANCH   2  18
TORSDOF 5
ENDMDL
MODEL 3
REMARK VINA RESULT:    -7.809      2.053      2.479
REMARK INTER + INTRA:         -10.732
REMARK INTER:                  -9.983
REMARK INTRA:                  -0.749
REMARK UNBOUND:                -0.640
REMARK  Name = 
REMARK  6 active torsions:
REMARK  status: ('A' for Active; 'I' for Inactive)
REMARK    1  A    between atoms: C_1  and  C_2
REMARK    2  A    between atoms: C_2  and  N_3
REMARK    3  A    between atoms: C_2  and  C_17
REMARK    4  A    between atoms: C_7  and  C_8
REMARK    5  A    between atoms: C_8  and  C_9
REMARK    6  A    between atoms: C_17  and  C_19
REMARK                            x       y       z     vdW  Elec       q    Type
REMARK                         _______ _______ _______ _____ _____    ______ ____
ROOT
ATOM      1  C   UNL     1      47.937   3.072  15.638  0.00  0.00    +0.000 C 
ATOM      2  C   UNL     1      47.230   4.357  16.055  0.00  0.00    +0.000 C 
ENDROOT
BRANCH   2   3
ATOM      3  N   UNL     1      47.187   5.360  14.994  0.00  0.00    +0.000 N 
ATOM      4  C   UNL     1      46.483   5.162  13.838  0.00  0.00    +0.000 A 
ATOM      5  N   UNL     1      45.437   4.327  13.817  0.00  0.00    +0.000 NA
ATOM      6  C   UNL     1      44.778   4.205  12.643  0.00  0.00    +0.000 A 
ATOM      7  C   UNL     1      45.131   4.863  11.485  0.00  0.00    +0.000 A 
ATOM      8  C   UNL     1      46.219   5.695  11.622  0.00  0.00    +0.000 A 
ATOM      9  N   UNL     1      46.902   5.858  12.773  0.00  0.00    +0.000 NA
ATOM     10  H   UNL     1      48.043   5.878  14.827  0.00  0.00    +0.000 HD
BRANCH   7  11
ATOM     11  C   UNL     1      44.368   4.720  10.202  0.00  0.00    +0.000 C 
BRANCH  11  12
ATOM     12  C   UNL     1      45.082   3.865   9.180  0.00  0.00    +0.000 A 
ATOM     13  C   UNL     1      45.080   2.475   9.294  0.00  0.00    +0.000 A 
ATOM     14  C   UNL     1      45.848   1.726   8.406  0.00  0.00    +0.000 A 
ATOM     15  C   UNL     1      46.580   2.378   7.421  0.00  0.00    +0.000 A 
ATOM     16  C   UNL     1      46.496   3.757   7.352  0.00  0.00    +0.000 A 
ATOM     17  N   UNL     1      45.770   4.513   8.207  0.00  0.00    +0.000 NA
ENDBRANCH  11  12
ENDBRANCH   7  11
ENDBRANCH   2   3
BRANCH   2  18
ATOM     18  C   UNL     1      48.061   4.939  17.212  0.00  0.00    +0.000 C 
ATOM     19  O   UNL     1      47.494   5.547  18.126  0.00  0.00    +0.000 OA
BRANCH  18  20
ATOM     20  C   UNL     1      49.506   4.734  17.279  0.00  0.00    +0.000 A 
ATOM     21  C   UNL     1      50.136   3.637  17.839  0.00  0.00    +0.000 A 
ATOM     22  S   UNL     1      51.781   3.968  18.211  0.00  0.00    +0.000 S 
ATOM     23  C   UNL     1      51.694   5.506  17.481  0.00  0.00    +0.000 A 
ATOM     24  N   UNL     1      52.721   6.392  17.533  0.00  0.00    +0.000 NA
ATOM     25  C   UNL     1      52.510   7.480  16.865  0.00  0.00    +0.000 A 
ATOM     26  N   UNL     1      51.392   7.738  16.106  0.00  0.00    +0.000 N 
ATOM     27  C   UNL     1      50.341   6.851  15.982  0.00  0.00    +0.000 A 
ATOM     28  O   UNL     1      49.460   6.994  15.146  0.00  0.00    +0.000 OA
ATOM     29  C   UNL     1      50.477   5.689  16.855  0.00  0.00    +0.000 A 
ATOM     30  H   UNL     1      51.357   8.544  15.502  0.00  0.00    +0.000 HD
ENDBRANCH  18  20
ENDBRANCH   2  18
TORSDOF 5
ENDMDL
MODEL 4
REMARK VINA RESULT:    -7.711      2.436      3.422
REMARK INTER + INTRA:         -10.605
REMARK INTER:                 -10.143
REMARK INTRA:                  -0.463
REMARK UNBOUND:                -0.640
REMARK  Name = 
REMARK  6 active torsions:
REMARK  status: ('A' for Active; 'I' for Inactive)
REMARK    1  A    between atoms: C_1  and  C_2
REMARK    2  A    between atoms: C_2  and  N_3
REMARK    3  A    between atoms: C_2  and  C_17
REMARK    4  A    between atoms: C_7  and  C_8
REMARK    5  A    between atoms: C_8  and  C_9
REMARK    6  A    between atoms: C_17  and  C_19
REMARK                            x       y       z     vdW  Elec       q    Type
REMARK                         _______ _______ _______ _____ _____    ______ ____
ROOT
ATOM      1  C   UNL     1      47.704   3.180  15.386  0.00  0.00    +0.000 C 
ATOM      2  C   UNL     1      47.337   4.572  15.890  0.00  0.00    +0.000 C 
ENDROOT
BRANCH   2   3
ATOM      3  N   UNL     1      47.177   5.549  14.816  0.00  0.00    +0.000 N 
ATOM      4  C   UNL     1      46.479   5.264  13.675  0.00  0.00    +0.000 A 
ATOM      5  N   UNL     1      45.521   4.329  13.683  0.00  0.00    +0.000 NA
ATOM      6  C   UNL     1      44.859   4.124  12.523  0.00  0.00    +0.000 A 
ATOM      7  C   UNL     1      45.127   4.795  11.350  0.00  0.00    +0.000 A 
ATOM      8  C   UNL     1      46.128   5.733  11.456  0.00  0.00    +0.000 A 
ATOM      9  N   UNL     1      46.810   5.981  12.593  0.00  0.00    +0.000 NA
ATOM     10  H   UNL     1      47.975   6.147  14.627  0.00  0.00    +0.000 HD
BRANCH   7  11
ATOM     11  C   UNL     1      44.362   4.556  10.082  0.00  0.00    +0.000 C 
BRANCH  11  12
ATOM     12  C   UNL     1      45.133   3.741   9.068  0.00  0.00    +0.000 A 
ATOM     13  C   UNL     1      45.218   2.355   9.192  0.00  0.00    +0.000 A 
ATOM     14  C   UNL     1      46.036   1.650   8.313  0.00  0.00    +0.000 A 
ATOM     15  C   UNL     1      46.730   2.340   7.327  0.00  0.00    +0.000 A 
ATOM     16  C   UNL     1      46.560   3.711   7.248  0.00  0.00    +0.000 A 
ATOM     17  N   UNL     1      45.783   4.425   8.094  0.00  0.00    +0.000 NA
ENDBRANCH  11  12
ENDBRANCH   7  11
ENDBRANCH   2   3
BRANCH   2  18
ATOM     18  C   UNL     1      48.518   5.030  16.763  0.00  0.00    +0.000 C 
ATOM     19  O   UNL     1      49.547   4.346  16.806  0.00  0.00    +0.000 OA
BRANCH  18  20
ATOM     20  C   UNL     1      48.467   6.291  17.498  0.00  0.00    +0.000 A 
ATOM     21  C   UNL     1      47.921   6.466  18.758  0.00  0.00    +0.000 A 
ATOM     22  S   UNL     1      47.566   8.116  19.075  0.00  0.00    +0.000 S 
ATOM     23  C   UNL     1      48.285   8.611  17.610  0.00  0.00    +0.000 A 
ATOM     24  N   UNL     1      48.240   9.896  17.178  0.00  0.00    +0.000 NA
ATOM     25  C   UNL     1      48.898  10.106  16.084  0.00  0.00    +0.000 A 
ATOM     26  N   UNL     1      49.643   9.162  15.416  0.00  0.00    +0.000 N 
ATOM     27  C   UNL     1      49.761   7.852  15.840  0.00  0.00    +0.000 A 
ATOM     28  O   UNL     1      50.586   7.085  15.367  0.00  0.00    +0.000 OA
ATOM     29  C   UNL     1      48.896   7.548  16.976  0.00  0.00    +0.000 A 
ATOM     30  H   UNL     1      50.241   9.428  14.650  0.00  0.00    +0.000 HD
ENDBRANCH  18  20
ENDBRANCH   2  18
TORSDOF 5
ENDMDL
MODEL 5
REMARK VINA RESULT:    -7.570      1.635      2.043
REMARK INTER + INTRA:         -10.423
REMARK INTER:                  -9.990
REMARK INTRA:                  -0.433
REMARK UNBOUND:                -0.640
REMARK  Name = 
REMARK  6 active torsions:
REMARK  status: ('A' for Active; 'I' for Inactive)
REMARK    1  A    between atoms: C_1  and  C_2
REMARK    2  A    between atoms: C_2  and  N_3
REMARK    3  A    between atoms: C_2  and  C_17
REMARK    4  A    between atoms: C_7  and  C_8
REMARK    5  A    between atoms: C_8  and  C_9
REMARK    6  A    between atoms: C_17  and  C_19
REMARK                            x       y       z     vdW  Elec       q    Type
REMARK                         _______ _______ _______ _____ _____    ______ ____
ROOT
ATOM      1  C   UNL     1      47.993   3.201  15.583  0.00  0.00    +0.000 C 
ATOM      2  C   UNL     1      46.937   4.262  15.879  0.00  0.00    +0.000 C 
ENDROOT
BRANCH   2   3
ATOM      3  N   UNL     1      46.762   5.218  14.789  0.00  0.00    +0.000 N 
ATOM      4  C   UNL     1      46.166   4.870  13.607  0.00  0.00    +0.000 A 
ATOM      5  N   UNL     1      45.295   3.855  13.562  0.00  0.00    +0.000 NA
ATOM      6  C   UNL     1      44.730   3.589  12.363  0.00  0.00    +0.000 A 
ATOM      7  C   UNL     1      45.013   4.279  11.205  0.00  0.00    +0.000 A 
ATOM      8  C   UNL     1      45.920   5.301  11.367  0.00  0.00    +0.000 A 
ATOM      9  N   UNL     1      46.502   5.611  12.544  0.00  0.00    +0.000 NA
ATOM     10  H   UNL     1      47.515   5.884  14.646  0.00  0.00    +0.000 HD
BRANCH   7  11
ATOM     11  C   UNL     1      44.356   3.971   9.893  0.00  0.00    +0.000 C 
BRANCH  11  12
ATOM     12  C   UNL     1      45.292   3.324   8.897  0.00  0.00    +0.000 A 
ATOM     13  C   UNL     1      45.843   4.070   7.856  0.00  0.00    +0.000 A 
ATOM     14  C   UNL     1      46.602   3.416   6.888  0.00  0.00    +0.000 A 
ATOM     15  C   UNL     1      46.804   2.046   6.992  0.00  0.00    +0.000 A 
ATOM     16  C   UNL     1      46.255   1.386   8.078  0.00  0.00    +0.000 A 
ATOM     17  N   UNL     1      45.504   1.990   9.027  0.00  0.00    +0.000 NA
ENDBRANCH  11  12
ENDBRANCH   7  11
ENDBRANCH   2   3
BRANCH   2  18
ATOM     18  C   UNL     1      47.451   5.040  17.102  0.00  0.00    +0.000 C 
ATOM     19  O   UNL     1      46.786   5.049  18.144  0.00  0.00    +0.000 OA
BRANCH  18  20
ATOM     20  C   UNL     1      48.743   5.720  17.074  0.00  0.00    +0.000 A 
ATOM     21  C   UNL     1      49.029   6.873  16.363  0.00  0.00    +0.000 A 
ATOM     22  S   UNL     1      50.719   7.082  16.140  0.00  0.00    +0.000 S 
ATOM     23  C   UNL     1      51.072   5.734  17.123  0.00  0.00    +0.000 A 
ATOM     24  N   UNL     1      52.335   5.261  17.280  0.00  0.00    +0.000 NA
ATOM     25  C   UNL     1      52.427   4.279  18.115  0.00  0.00    +0.000 A 
ATOM     26  N   UNL     1      51.384   3.763  18.850  0.00  0.00    +0.000 N 
ATOM     27  C   UNL     1      50.090   4.239  18.763  0.00  0.00    +0.000 A 
ATOM     28  O   UNL     1      49.223   3.924  19.564  0.00  0.00    +0.000 OA
ATOM     29  C   UNL     1      49.925   5.234  17.708  0.00  0.00    +0.000 A 
ATOM     30  H   UNL     1      51.554   3.092  19.583  0.00  0.00    +0.000 HD
ENDBRANCH  18  20
ENDBRANCH   2  18
TORSDOF 5
ENDMDL
MODEL 6
REMARK VINA RESULT:    -7.417      2.310      3.209
REMARK INTER + INTRA:         -10.225
REMARK INTER:                 -10.125
REMARK INTRA:                  -0.101
REMARK UNBOUND:                -0.640
REMARK  Name = 
REMARK  6 active torsions:
REMARK  status: ('A' for Active; 'I' for Inactive)
REMARK    1  A    between atoms: C_1  and  C_2
REMARK    2  A    between atoms: C_2  and  N_3
REMARK    3  A    between atoms: C_2  and  C_17
REMARK    4  A    between atoms: C_7  and  C_8
REMARK    5  A    between atoms: C_8  and  C_9
REMARK    6  A    between atoms: C_17  and  C_19
REMARK                            x       y       z     vdW  Elec       q    Type
REMARK                         _______ _______ _______ _____ _____    ______ ____
ROOT
ATOM      1  C   UNL     1      47.518   3.546  15.150  0.00  0.00    +0.000 C 
ATOM      2  C   UNL     1      47.214   4.985  15.553  0.00  0.00    +0.000 C 
ENDROOT
BRANCH   2   3
ATOM      3  N   UNL     1      46.884   5.842  14.417  0.00  0.00    +0.000 N 
ATOM      4  C   UNL     1      46.232   5.364  13.314  0.00  0.00    +0.000 A 
ATOM      5  N   UNL     1      45.444   4.286  13.407  0.00  0.00    +0.000 NA
ATOM      6  C   UNL     1      44.815   3.891  12.278  0.00  0.00    +0.000 A 
ATOM      7  C   UNL     1      44.955   4.511  11.057  0.00  0.00    +0.000 A 
ATOM      8  C   UNL     1      45.786   5.608  11.076  0.00  0.00    +0.000 A 
ATOM      9  N   UNL     1      46.428   6.047  12.179  0.00  0.00    +0.000 NA
ATOM     10  H   UNL     1      47.568   6.550  14.171  0.00  0.00    +0.000 HD
BRANCH   7  11
ATOM     11  C   UNL     1      44.230   4.058   9.825  0.00  0.00    +0.000 C 
BRANCH  11  12
ATOM     12  C   UNL     1      45.130   3.370   8.824  0.00  0.00    +0.000 A 
ATOM     13  C   UNL     1      45.387   2.003   8.926  0.00  0.00    +0.000 A 
ATOM     14  C   UNL     1      46.316   1.427   8.064  0.00  0.00    +0.000 A 
ATOM     15  C   UNL     1      46.948   2.221   7.115  0.00  0.00    +0.000 A 
ATOM     16  C   UNL     1      46.608   3.561   7.054  0.00  0.00    +0.000 A 
ATOM     17  N   UNL     1      45.719   4.152   7.886  0.00  0.00    +0.000 NA
ENDBRANCH  11  12
ENDBRANCH   7  11
ENDBRANCH   2   3
BRANCH   2  18
ATOM     18  C   UNL     1      48.507   5.528  16.184  0.00  0.00    +0.000 C 
ATOM     19  O   UNL     1      49.352   6.079  15.470  0.00  0.00    +0.000 OA
BRANCH  18  20
ATOM     20  C   UNL     1      48.729   5.458  17.627  0.00  0.00    +0.000 A 
ATOM     21  C   UNL     1      49.151   4.337  18.321  0.00  0.00    +0.000 A 
ATOM     22  S   UNL     1      48.801   4.457  19.998  0.00  0.00    +0.000 S 
ATOM     23  C   UNL     1      48.240   6.058  19.824  0.00  0.00    +0.000 A 
ATOM     24  N   UNL     1      47.675   6.744  20.850  0.00  0.00    +0.000 NA
ATOM     25  C   UNL     1      47.373   7.968  20.559  0.00  0.00    +0.000 A 
ATOM     26  N   UNL     1      47.635   8.583  19.356  0.00  0.00    +0.000 N 
ATOM     27  C   UNL     1      48.249   7.944  18.297  0.00  0.00    +0.000 A 
ATOM     28  O   UNL     1      48.666   8.550  17.321  0.00  0.00    +0.000 OA
ATOM     29  C   UNL     1      48.450   6.518  18.539  0.00  0.00    +0.000 A 
ATOM     30  H   UNL     1      47.498   9.576  19.248  0.00  0.00    +0.000 HD
ENDBRANCH  18  20
ENDBRANCH   2  18
TORSDOF 5
ENDMDL
MODEL 7
REMARK VINA RESULT:    -7.392      2.050      2.410
REMARK INTER + INTRA:         -10.193
REMARK INTER:                  -9.295
REMARK INTRA:                  -0.898
REMARK UNBOUND:                -0.640
REMARK  Name = 
REMARK  6 active torsions:
REMARK  status: ('A' for Active; 'I' for Inactive)
REMARK    1  A    between atoms: C_1  and  C_2
REMARK    2  A    between atoms: C_2  and  N_3
REMARK    3  A    between atoms: C_2  and  C_17
REMARK    4  A    between atoms: C_7  and  C_8
REMARK    5  A    between atoms: C_8  and  C_9
REMARK    6  A    between atoms: C_17  and  C_19
REMARK                            x       y       z     vdW  Elec       q    Type
REMARK                         _______ _______ _______ _____ _____    ______ ____
ROOT
ATOM      1  C   UNL     1      49.434   8.090  13.638  0.00  0.00    +0.000 C 
ATOM      2  C   UNL     1      48.456   7.045  14.164  0.00  0.00    +0.000 C 
ENDROOT
BRANCH   2   3
ATOM      3  N   UNL     1      47.061   7.367  13.876  0.00  0.00    +0.000 N 
ATOM      4  C   UNL     1      46.326   6.658  12.966  0.00  0.00    +0.000 A 
ATOM      5  N   UNL     1      46.642   5.390  12.681  0.00  0.00    +0.000 NA
ATOM      6  C   UNL     1      45.853   4.749  11.791  0.00  0.00    +0.000 A 
ATOM      7  C   UNL     1      44.775   5.327  11.156  0.00  0.00    +0.000 A 
ATOM      8  C   UNL     1      44.540   6.632  11.525  0.00  0.00    +0.000 A 
ATOM      9  N   UNL     1      45.293   7.310  12.415  0.00  0.00    +0.000 NA
ATOM     10  H   UNL     1      46.817   8.353  13.868  0.00  0.00    +0.000 HD
BRANCH   7  11
ATOM     11  C   UNL     1      43.907   4.583  10.185  0.00  0.00    +0.000 C 
BRANCH  11  12
ATOM     12  C   UNL     1      44.696   3.741   9.208  0.00  0.00    +0.000 A 
ATOM     13  C   UNL     1      44.782   2.360   9.373  0.00  0.00    +0.000 A 
ATOM     14  C   UNL     1      45.616   1.631   8.528  0.00  0.00    +0.000 A 
ATOM     15  C   UNL     1      46.324   2.294   7.534  0.00  0.00    +0.000 A 
ATOM     16  C   UNL     1      46.153   3.662   7.412  0.00  0.00    +0.000 A 
ATOM     17  N   UNL     1      45.361   4.398   8.225  0.00  0.00    +0.000 NA
ENDBRANCH  11  12
ENDBRANCH   7  11
ENDBRANCH   2   3
BRANCH   2  18
ATOM     18  C   UNL     1      48.626   7.040  15.693  0.00  0.00    +0.000 C 
ATOM     19  O   UNL     1      48.538   8.101  16.321  0.00  0.00    +0.000 OA
BRANCH  18  20
ATOM     20  C   UNL     1      48.831   5.792  16.424  0.00  0.00    +0.000 A 
ATOM     21  C   UNL     1      47.879   4.807  16.616  0.00  0.00    +0.000 A 
ATOM     22  S   UNL     1      48.287   3.771  17.925  0.00  0.00    +0.000 S 
ATOM     23  C   UNL     1      49.800   4.531  18.127  0.00  0.00    +0.000 A 
ATOM     24  N   UNL     1      50.635   4.223  19.152  0.00  0.00    +0.000 NA
ATOM     25  C   UNL     1      51.769   4.845  19.110  0.00  0.00    +0.000 A 
ATOM     26  N   UNL     1      52.165   5.701  18.109  0.00  0.00    +0.000 N 
ATOM     27  C   UNL     1      51.372   6.012  17.021  0.00  0.00    +0.000 A 
ATOM     28  O   UNL     1      51.808   6.597  16.041  0.00  0.00    +0.000 OA
ATOM     29  C   UNL     1      50.027   5.456  17.127  0.00  0.00    +0.000 A 
ATOM     30  H   UNL     1      53.113   6.041  18.069  0.00  0.00    +0.000 HD
ENDBRANCH  18  20
ENDBRANCH   2  18
TORSDOF 5
ENDMDL
MODEL 8
REMARK VINA RESULT:    -7.257      2.793      4.207
REMARK INTER + INTRA:         -10.018
REMARK INTER:                  -8.659
REMARK INTRA:                  -1.359
REMARK UNBOUND:                -0.640
REMARK  Name = 
REMARK  6 active torsions:
REMARK  status: ('A' for Active; 'I' for Inactive)
REMARK    1  A    between atoms: C_1  and  C_2
REMARK    2  A    between atoms: C_2  and  N_3
REMARK    3  A    between atoms: C_2  and  C_17
REMARK    4  A    between atoms: C_7  and  C_8
REMARK    5  A    between atoms: C_8  and  C_9
REMARK    6  A    between atoms: C_17  and  C_19
REMARK                            x       y       z     vdW  Elec       q    Type
REMARK                         _______ _______ _______ _____ _____    ______ ____
ROOT
ATOM      1  C   UNL     1      51.798   8.253  14.885  0.00  0.00    +0.000 C 
ATOM      2  C   UNL     1      50.695   7.289  15.312  0.00  0.00    +0.000 C 
ENDROOT
BRANCH   2   3
ATOM      3  N   UNL     1      49.365   7.888  15.284  0.00  0.00    +0.000 N 
ATOM      4  C   UNL     1      48.449   7.577  14.316  0.00  0.00    +0.000 A 
ATOM      5  N   UNL     1      48.510   6.402  13.680  0.00  0.00    +0.000 NA
ATOM      6  C   UNL     1      47.555   6.158  12.755  0.00  0.00    +0.000 A 
ATOM      7  C   UNL     1      46.555   7.046  12.423  0.00  0.00    +0.000 A 
ATOM      8  C   UNL     1      46.587   8.221  13.139  0.00  0.00    +0.000 A 
ATOM      9  N   UNL     1      47.513   8.505  14.079  0.00  0.00    +0.000 NA
ATOM     10  H   UNL     1      49.302   8.864  15.559  0.00  0.00    +0.000 HD
BRANCH   7  11
ATOM     11  C   UNL     1      45.499   6.739  11.404  0.00  0.00    +0.000 C 
BRANCH  11  12
ATOM     12  C   UNL     1      44.836   5.398  11.621  0.00  0.00    +0.000 A 
ATOM     13  C   UNL     1      44.867   4.424  10.624  0.00  0.00    +0.000 A 
ATOM     14  C   UNL     1      44.143   3.249  10.809  0.00  0.00    +0.000 A 
ATOM     15  C   UNL     1      43.425   3.069  11.985  0.00  0.00    +0.000 A 
ATOM     16  C   UNL     1      43.478   4.069  12.941  0.00  0.00    +0.000 A 
ATOM     17  N   UNL     1      44.162   5.226  12.785  0.00  0.00    +0.000 NA
ENDBRANCH  11  12
ENDBRANCH   7  11
ENDBRANCH   2   3
BRANCH   2  18
ATOM     18  C   UNL     1      51.006   6.913  16.771  0.00  0.00    +0.000 C 
ATOM     19  O   UNL     1      51.426   7.777  17.549  0.00  0.00    +0.000 OA
BRANCH  18  20
ATOM     20  C   UNL     1      50.757   5.563  17.271  0.00  0.00    +0.000 A 
ATOM     21  C   UNL     1      51.724   4.599  17.497  0.00  0.00    +0.000 A 
ATOM     22  S   UNL     1      51.047   3.022  17.568  0.00  0.00    +0.000 S 
ATOM     23  C   UNL     1      49.460   3.637  17.461  0.00  0.00    +0.000 A 
ATOM     24  N   UNL     1      48.374   2.830  17.352  0.00  0.00    +0.000 NA
ATOM     25  C   UNL     1      47.247   3.463  17.354  0.00  0.00    +0.000 A 
ATOM     26  N   UNL     1      47.103   4.822  17.513  0.00  0.00    +0.000 N 
ATOM     27  C   UNL     1      48.172   5.682  17.675  0.00  0.00    +0.000 A 
ATOM     28  O   UNL     1      48.028   6.844  18.025  0.00  0.00    +0.000 OA
ATOM     29  C   UNL     1      49.461   5.017  17.510  0.00  0.00    +0.000 A 
ATOM     30  H   UNL     1      46.190   5.230  17.644  0.00  0.00    +0.000 HD
ENDBRANCH  18  20
ENDBRANCH   2  18
TORSDOF 5
ENDMDL
MODEL 9
REMARK VINA RESULT:    -6.816      2.700      3.511
REMARK INTER + INTRA:          -9.449
REMARK INTER:                  -8.735
REMARK INTRA:                  -0.714
REMARK UNBOUND:                -0.640
REMARK  Name = 
REMARK  6 active torsions:
REMARK  status: ('A' for Active; 'I' for Inactive)
REMARK    1  A    between atoms: C_1  and  C_2
REMARK    2  A    between atoms: C_2  and  N_3
REMARK    3  A    between atoms: C_2  and  C_17
REMARK    4  A    between atoms: C_7  and  C_8
REMARK    5  A    between atoms: C_8  and  C_9
REMARK    6  A    between atoms: C_17  and  C_19
REMARK                            x       y       z     vdW  Elec       q    Type
REMARK                         _______ _______ _______ _____ _____    ______ ____
ROOT
ATOM      1  C   UNL     1      50.191   8.306  13.856  0.00  0.00    +0.000 C 
ATOM      2  C   UNL     1      49.260   7.212  14.368  0.00  0.00    +0.000 C 
ENDROOT
BRANCH   2   3
ATOM      3  N   UNL     1      47.852   7.595  14.336  0.00  0.00    +0.000 N 
ATOM      4  C   UNL     1      46.968   7.036  13.454  0.00  0.00    +0.000 A 
ATOM      5  N   UNL     1      47.193   5.816  12.951  0.00  0.00    +0.000 NA
ATOM      6  C   UNL     1      46.261   5.323  12.107  0.00  0.00    +0.000 A 
ATOM      7  C   UNL     1      45.125   6.003  11.725  0.00  0.00    +0.000 A 
ATOM      8  C   UNL     1      44.994   7.245  12.302  0.00  0.00    +0.000 A 
ATOM      9  N   UNL     1      45.891   7.776  13.159  0.00  0.00    +0.000 NA
ATOM     10  H   UNL     1      47.646   8.575  14.502  0.00  0.00    +0.000 HD
BRANCH   7  11
ATOM     11  C   UNL     1      44.101   5.420  10.798  0.00  0.00    +0.000 C 
BRANCH  11  12
ATOM     12  C   UNL     1      44.660   4.343   9.896  0.00  0.00    +0.000 A 
ATOM     13  C   UNL     1      45.452   4.680   8.799  0.00  0.00    +0.000 A 
ATOM     14  C   UNL     1      45.848   3.675   7.921  0.00  0.00    +0.000 A 
ATOM     15  C   UNL     1      45.460   2.363   8.167  0.00  0.00    +0.000 A 
ATOM     16  C   UNL     1      44.706   2.108   9.300  0.00  0.00    +0.000 A 
ATOM     17  N   UNL     1      44.296   3.065  10.164  0.00  0.00    +0.000 NA
ENDBRANCH  11  12
ENDBRANCH   7  11
ENDBRANCH   2   3
BRANCH   2  18
ATOM     18  C   UNL     1      49.647   6.983  15.839  0.00  0.00    +0.000 C 
ATOM     19  O   UNL     1      50.621   6.272  16.112  0.00  0.00    +0.000 OA
BRANCH  18  20
ATOM     20  C   UNL     1      48.918   7.640  16.921  0.00  0.00    +0.000 A 
ATOM     21  C   UNL     1      48.879   9.004  17.151  0.00  0.00    +0.000 A 
ATOM     22  S   UNL     1      48.389   9.366  18.758  0.00  0.00    +0.000 S 
ATOM     23  C   UNL     1      48.075   7.723  19.091  0.00  0.00    +0.000 A 
ATOM     24  N   UNL     1      47.730   7.288  20.330  0.00  0.00    +0.000 NA
ATOM     25  C   UNL     1      47.460   6.024  20.385  0.00  0.00    +0.000 A 
ATOM     26  N   UNL     1      47.448   5.169  19.307  0.00  0.00    +0.000 N 
ATOM     27  C   UNL     1      47.745   5.571  18.020  0.00  0.00    +0.000 A 
ATOM     28  O   UNL     1      47.527   4.864  17.048  0.00  0.00    +0.000 OA
ATOM     29  C   UNL     1      48.215   6.952  17.955  0.00  0.00    +0.000 A 
ATOM     30  H   UNL     1      47.093   4.230  19.401  0.00  0.00    +0.000 HD
ENDBRANCH  18  20
ENDBRANCH   2  18
TORSDOF 5
ENDMDL
