MODEL 1
REMARK VINA RESULT:    -6.444      0.000      0.000
REMARK INTER + INTRA:          -8.031
REMARK INTER:                  -7.762
REMARK INTRA:                  -0.269
REMARK UNBOUND:                -0.269
REMARK  Name = 
REMARK  4 active torsions:
REMARK  status: ('A' for Active; 'I' for Inactive)
REMARK    1  A    between atoms: C_2  and  O_3
REMARK    2  A    between atoms: C_2  and  C_4
REMARK    3  A    between atoms: C_7  and  C_8
REMARK    4  A    between atoms: C_9  and  C_10
REMARK                            x       y       z     vdW  Elec       q    Type
REMARK                         _______ _______ _______ _____ _____    ______ ____
ROOT
ATOM      1  C   UNL     1      46.602   4.665  14.405  0.00  0.00    +0.000 C 
ATOM      2  C   UNL     1      47.037   4.582  15.522  0.00  0.00    +0.000 C 
ENDROOT
BRANCH   2   3
ATOM      3  C   UNL     1      47.541   4.356  16.844  0.00  0.00    +0.000 A 
ATOM      4  C   UNL     1      47.973   3.103  17.225  0.00  0.00    +0.000 A 
ATOM      5  N   UNL     1      48.542   2.882  18.421  0.00  0.00    +0.000 NA
ATOM      6  N   UNL     1      48.723   3.940  19.277  0.00  0.00    +0.000 NA
ATOM      7  C   UNL     1      48.313   5.193  18.967  0.00  0.00    +0.000 A 
ATOM      8  N   UNL     1      48.557   6.211  19.856  0.00  0.00    +0.000 N 
ATOM      9  C   UNL     1      49.779   6.172  20.669  0.00  0.00    +0.000 C 
ATOM     10  C   UNL     1      49.440   6.444  22.139  0.00  0.00    +0.000 C 
ATOM     11  O   UNL     1      48.706   7.674  22.285  0.00  0.00    +0.000 OA
ATOM     12  C   UNL     1      47.469   7.601  21.556  0.00  0.00    +0.000 C 
ATOM     13  C   UNL     1      47.701   7.377  20.048  0.00  0.00    +0.000 C 
ATOM     14  C   UNL     1      47.692   5.411  17.743  0.00  0.00    +0.000 A 
ENDBRANCH   2   3
BRANCH   1  18
ATOM     15  C   UNL     1      45.265   4.545  10.388  0.00  0.00    +0.000 A 
ATOM     16  C   UNL     1      45.838   5.709  10.911  0.00  0.00    +0.000 A 
ATOM     17  C   UNL     1      46.244   5.755  12.248  0.00  0.00    +0.000 A 
ATOM     18  C   UNL     1      46.087   4.636  13.069  0.00  0.00    +0.000 A 
ATOM     19  C   UNL     1      45.499   3.475  12.554  0.00  0.00    +0.000 A 
ATOM     20  C   UNL     1      45.092   3.425  11.213  0.00  0.00    +0.000 A 
BRANCH  15  22
ATOM     21  O   UNL     1      45.799   4.544   8.073  0.00  0.00    +0.000 OA
ATOM     22  C   UNL     1      44.942   4.522   8.939  0.00  0.00    +0.000 C 
BRANCH  22  23
ATOM     23  O   UNL     1      43.620   4.508   8.670  0.00  0.00    +0.000 OA
ATOM     24  H   UNL     1      43.322   3.778   8.099  0.00  0.00    +0.000 HD
ENDBRANCH  22  23
ENDBRANCH  15  22
ENDBRANCH   1  18
TORSDOF 4
ENDMDL
MODEL 2
REMARK VINA RESULT:    -5.853      1.907      2.418
REMARK INTER + INTRA:          -7.319
REMARK INTER:                  -7.029
REMARK INTRA:                  -0.290
REMARK UNBOUND:                -0.269
REMARK  Name = 
REMARK  4 active torsions:
REMARK  status: ('A' for Active; 'I' for Inactive)
REMARK    1  A    between atoms: C_2  and  O_3
REMARK    2  A    between atoms: C_2  and  C_4
REMARK    3  A    between atoms: C_7  and  C_8
REMARK    4  A    between atoms: C_9  and  C_10
REMARK                            x       y       z     vdW  Elec       q    Type
REMARK                         _______ _______ _______ _____ _____    ______ ____
ROOT
ATOM      1  C   UNL     1      47.444   5.920  13.852  0.00  0.00    +0.000 C 
ATOM      2  C   UNL     1      48.194   6.276  14.721  0.00  0.00    +0.000 C 
ENDROOT
BRANCH   2   3
ATOM      3  C   UNL     1      49.061   6.588  15.818  0.00  0.00    +0.000 A 
ATOM      4  C   UNL     1      50.237   7.277  15.608  0.00  0.00    +0.000 A 
ATOM      5  N   UNL     1      51.020   7.670  16.626  0.00  0.00    +0.000 NA
ATOM      6  N   UNL     1      50.622   7.403  17.913  0.00  0.00    +0.000 NA
ATOM      7  C   UNL     1      49.484   6.722  18.186  0.00  0.00    +0.000 A 
ATOM      8  N   UNL     1      49.130   6.521  19.497  0.00  0.00    +0.000 N 
ATOM      9  C   UNL     1      49.459   7.547  20.493  0.00  0.00    +0.000 C 
ATOM     10  C   UNL     1      50.118   6.899  21.716  0.00  0.00    +0.000 C 
ATOM     11  O   UNL     1      49.301   5.841  22.249  0.00  0.00    +0.000 OA
ATOM     12  C   UNL     1      49.112   4.816  21.259  0.00  0.00    +0.000 C 
ATOM     13  C   UNL     1      48.406   5.356  19.998  0.00  0.00    +0.000 C 
ATOM     14  C   UNL     1      48.695   6.286  17.129  0.00  0.00    +0.000 A 
ENDBRANCH   2   3
BRANCH   1  18
ATOM     15  C   UNL     1      44.931   4.274  10.866  0.00  0.00    +0.000 A 
ATOM     16  C   UNL     1      45.525   5.528  10.682  0.00  0.00    +0.000 A 
ATOM     17  C   UNL     1      46.324   6.083  11.686  0.00  0.00    +0.000 A 
ATOM     18  C   UNL     1      46.541   5.386  12.877  0.00  0.00    +0.000 A 
ATOM     19  C   UNL     1      45.935   4.140  13.072  0.00  0.00    +0.000 A 
ATOM     20  C   UNL     1      45.134   3.579  12.066  0.00  0.00    +0.000 A 
BRANCH  15  22
ATOM     21  O   UNL     1      44.031   2.494   9.577  0.00  0.00    +0.000 OA
ATOM     22  C   UNL     1      44.174   3.694   9.729  0.00  0.00    +0.000 C 
BRANCH  22  23
ATOM     23  O   UNL     1      43.688   4.611   8.866  0.00  0.00    +0.000 OA
ATOM     24  H   UNL     1      43.540   5.496   9.243  0.00  0.00    +0.000 HD
ENDBRANCH  22  23
ENDBRANCH  15  22
ENDBRANCH   1  18
TORSDOF 4
ENDMDL
MODEL 3
REMARK VINA RESULT:    -5.825      2.338      2.707
REMARK INTER + INTRA:          -7.285
REMARK INTER:                  -7.003
REMARK INTRA:                  -0.282
REMARK UNBOUND:                -0.269
REMARK  Name = 
REMARK  4 active torsions:
REMARK  status: ('A' for Active; 'I' for Inactive)
REMARK    1  A    between atoms: C_2  and  O_3
REMARK    2  A    between atoms: C_2  and  C_4
REMARK    3  A    between atoms: C_7  and  C_8
REMARK    4  A    between atoms: C_9  and  C_10
REMARK                            x       y       z     vdW  Elec       q    Type
REMARK                         _______ _______ _______ _____ _____    ______ ____
ROOT
ATOM      1  C   UNL     1      46.784   4.642  14.517  0.00  0.00    +0.000 C 
ATOM      2  C   UNL     1      47.348   4.658  15.578  0.00  0.00    +0.000 C 
ENDROOT
BRANCH   2   3
ATOM      3  C   UNL     1      48.129   4.702  16.779  0.00  0.00    +0.000 A 
ATOM      4  C   UNL     1      47.661   4.127  17.941  0.00  0.00    +0.000 A 
ATOM      5  N   UNL     1      48.411   4.066  19.053  0.00  0.00    +0.000 NA
ATOM      6  N   UNL     1      49.690   4.565  19.022  0.00  0.00    +0.000 NA
ATOM      7  C   UNL     1      50.205   5.152  17.916  0.00  0.00    +0.000 A 
ATOM      8  N   UNL     1      51.503   5.599  17.945  0.00  0.00    +0.000 N 
ATOM      9  C   UNL     1      52.494   4.868  18.742  0.00  0.00    +0.000 C 
ATOM     10  C   UNL     1      53.294   5.845  19.610  0.00  0.00    +0.000 C 
ATOM     11  O   UNL     1      53.876   6.892  18.814  0.00  0.00    +0.000 OA
ATOM     12  C   UNL     1      52.844   7.640  18.149  0.00  0.00    +0.000 C 
ATOM     13  C   UNL     1      52.006   6.754  17.206  0.00  0.00    +0.000 C 
ATOM     14  C   UNL     1      49.413   5.246  16.778  0.00  0.00    +0.000 A 
ENDBRANCH   2   3
BRANCH   1  18
ATOM     15  C   UNL     1      45.301   4.647  10.550  0.00  0.00    +0.000 A 
ATOM     16  C   UNL     1      46.005   5.750  11.046  0.00  0.00    +0.000 A 
ATOM     17  C   UNL     1      46.460   5.758  12.368  0.00  0.00    +0.000 A 
ATOM     18  C   UNL     1      46.222   4.662  13.200  0.00  0.00    +0.000 A 
ATOM     19  C   UNL     1      45.504   3.565  12.713  0.00  0.00    +0.000 A 
ATOM     20  C   UNL     1      45.046   3.552  11.388  0.00  0.00    +0.000 A 
BRANCH  15  22
ATOM     21  O   UNL     1      45.752   4.687   8.218  0.00  0.00    +0.000 OA
ATOM     22  C   UNL     1      44.927   4.654   9.113  0.00  0.00    +0.000 C 
BRANCH  22  23
ATOM     23  O   UNL     1      43.596   4.652   8.891  0.00  0.00    +0.000 OA
ATOM     24  H   UNL     1      43.321   4.985   8.019  0.00  0.00    +0.000 HD
ENDBRANCH  22  23
ENDBRANCH  15  22
ENDBRANCH   1  18
TORSDOF 4
ENDMDL
MODEL 4
REMARK VINA RESULT:    -5.700      2.752      3.717
REMARK INTER + INTRA:          -7.136
REMARK INTER:                  -6.844
REMARK INTRA:                  -0.292
REMARK UNBOUND:                -0.269
REMARK  Name = 
REMARK  4 active torsions:
REMARK  status: ('A' for Active; 'I' for Inactive)
REMARK    1  A    between atoms: C_2  and  O_3
REMARK    2  A    between atoms: C_2  and  C_4
REMARK    3  A    between atoms: C_7  and  C_8
REMARK    4  A    between atoms: C_9  and  C_10
REMARK                            x       y       z     vdW  Elec       q    Type
REMARK                         _______ _______ _______ _____ _____    ______ ____
ROOT
ATOM      1  C   UNL     1      47.763   6.017  14.337  0.00  0.00    +0.000 C 
ATOM      2  C   UNL     1      48.502   6.332  15.230  0.00  0.00    +0.000 C 
ENDROOT
BRANCH   2   3
ATOM      3  C   UNL     1      49.349   6.598  16.355  0.00  0.00    +0.000 A 
ATOM      4  C   UNL     1      49.443   7.871  16.877  0.00  0.00    +0.000 A 
ATOM      5  N   UNL     1      50.149   8.130  17.988  0.00  0.00    +0.000 NA
ATOM      6  N   UNL     1      50.772   7.094  18.639  0.00  0.00    +0.000 NA
ATOM      7  C   UNL     1      50.727   5.824  18.173  0.00  0.00    +0.000 A 
ATOM      8  N   UNL     1      51.345   4.830  18.892  0.00  0.00    +0.000 N 
ATOM      9  C   UNL     1      51.377   4.922  20.356  0.00  0.00    +0.000 C 
ATOM     10  C   UNL     1      52.799   4.665  20.867  0.00  0.00    +0.000 C 
ATOM     11  O   UNL     1      53.313   3.415  20.371  0.00  0.00    +0.000 OA
ATOM     12  C   UNL     1      53.360   3.435  18.934  0.00  0.00    +0.000 C 
ATOM     13  C   UNL     1      51.962   3.640  18.315  0.00  0.00    +0.000 C 
ATOM     14  C   UNL     1      50.025   5.564  17.002  0.00  0.00    +0.000 A 
ENDBRANCH   2   3
BRANCH   1  18
ATOM     15  C   UNL     1      44.954   4.611  11.494  0.00  0.00    +0.000 A 
ATOM     16  C   UNL     1      45.423   3.767  12.508  0.00  0.00    +0.000 A 
ATOM     17  C   UNL     1      46.377   4.225  13.421  0.00  0.00    +0.000 A 
ATOM     18  C   UNL     1      46.864   5.531  13.332  0.00  0.00    +0.000 A 
ATOM     19  C   UNL     1      46.411   6.373  12.311  0.00  0.00    +0.000 A 
ATOM     20  C   UNL     1      45.453   5.918  11.394  0.00  0.00    +0.000 A 
BRANCH  15  22
ATOM     21  O   UNL     1      43.251   3.083  10.856  0.00  0.00    +0.000 OA
ATOM     22  C   UNL     1      43.872   4.103  10.615  0.00  0.00    +0.000 C 
BRANCH  22  23
ATOM     23  O   UNL     1      43.661   4.851   9.512  0.00  0.00    +0.000 OA
ATOM     24  H   UNL     1      44.018   4.482   8.686  0.00  0.00    +0.000 HD
ENDBRANCH  22  23
ENDBRANCH  15  22
ENDBRANCH   1  18
TORSDOF 4
ENDMDL
MODEL 5
REMARK VINA RESULT:    -5.417      6.303      8.171
REMARK INTER + INTRA:          -6.794
REMARK INTER:                  -6.513
REMARK INTRA:                  -0.282
REMARK UNBOUND:                -0.269
REMARK  Name = 
REMARK  4 active torsions:
REMARK  status: ('A' for Active; 'I' for Inactive)
REMARK    1  A    between atoms: C_2  and  O_3
REMARK    2  A    between atoms: C_2  and  C_4
REMARK    3  A    between atoms: C_7  and  C_8
REMARK    4  A    between atoms: C_9  and  C_10
REMARK                            x       y       z     vdW  Elec       q    Type
REMARK                         _______ _______ _______ _____ _____    ______ ____
ROOT
ATOM      1  C   UNL     1      47.396   7.141  12.066  0.00  0.00    +0.000 C 
ATOM      2  C   UNL     1      48.196   8.034  12.147  0.00  0.00    +0.000 C 
ENDROOT
BRANCH   2   3
ATOM      3  C   UNL     1      49.163   9.090  12.114  0.00  0.00    +0.000 A 
ATOM      4  C   UNL     1      48.981  10.231  12.866  0.00  0.00    +0.000 A 
ATOM      5  N   UNL     1      49.916  11.193  12.933  0.00  0.00    +0.000 NA
ATOM      6  N   UNL     1      51.097  11.021  12.256  0.00  0.00    +0.000 NA
ATOM      7  C   UNL     1      51.334   9.928  11.492  0.00  0.00    +0.000 A 
ATOM      8  N   UNL     1      52.552   9.805  10.869  0.00  0.00    +0.000 N 
ATOM      9  C   UNL     1      53.750  10.336  11.529  0.00  0.00    +0.000 C 
ATOM     10  C   UNL     1      54.563  11.181  10.542  0.00  0.00    +0.000 C 
ATOM     11  O   UNL     1      54.863  10.438   9.346  0.00  0.00    +0.000 OA
ATOM     12  C   UNL     1      53.646  10.046   8.689  0.00  0.00    +0.000 C 
ATOM     13  C   UNL     1      52.772   9.145   9.585  0.00  0.00    +0.000 C 
ATOM     14  C   UNL     1      50.350   8.952  11.396  0.00  0.00    +0.000 A 
ENDBRANCH   2   3
BRANCH   1  18
ATOM     15  C   UNL     1      44.753   3.919  11.306  0.00  0.00    +0.000 A 
ATOM     16  C   UNL     1      44.961   4.910  10.340  0.00  0.00    +0.000 A 
ATOM     17  C   UNL     1      45.806   5.990  10.610  0.00  0.00    +0.000 A 
ATOM     18  C   UNL     1      46.454   6.084  11.844  0.00  0.00    +0.000 A 
ATOM     19  C   UNL     1      46.235   5.105  12.819  0.00  0.00    +0.000 A 
ATOM     20  C   UNL     1      45.389   4.019  12.551  0.00  0.00    +0.000 A 
BRANCH  15  22
ATOM     21  O   UNL     1      42.883   2.467  11.498  0.00  0.00    +0.000 OA
ATOM     22  C   UNL     1      43.922   2.748  10.929  0.00  0.00    +0.000 C 
BRANCH  22  23
ATOM     23  O   UNL     1      44.437   2.009   9.925  0.00  0.00    +0.000 OA
ATOM     24  H   UNL     1      45.342   2.248   9.657  0.00  0.00    +0.000 HD
ENDBRANCH  22  23
ENDBRANCH  15  22
ENDBRANCH   1  18
TORSDOF 4
ENDMDL
MODEL 6
REMARK VINA RESULT:    -5.308      3.404      4.044
REMARK INTER + INTRA:          -6.662
REMARK INTER:                  -6.368
REMARK INTRA:                  -0.294
REMARK UNBOUND:                -0.269
REMARK  Name = 
REMARK  4 active torsions:
REMARK  status: ('A' for Active; 'I' for Inactive)
REMARK    1  A    between atoms: C_2  and  O_3
REMARK    2  A    between atoms: C_2  and  C_4
REMARK    3  A    between atoms: C_7  and  C_8
REMARK    4  A    between atoms: C_9  and  C_10
REMARK                            x       y       z     vdW  Elec       q    Type
REMARK                         _______ _______ _______ _____ _____    ______ ____
ROOT
ATOM      1  C   UNL     1      48.215   6.611  13.229  0.00  0.00    +0.000 C 
ATOM      2  C   UNL     1      49.161   7.043  13.831  0.00  0.00    +0.000 C 
ENDROOT
BRANCH   2   3
ATOM      3  C   UNL     1      50.233   7.514  14.656  0.00  0.00    +0.000 A 
ATOM      4  C   UNL     1      51.073   8.513  14.212  0.00  0.00    +0.000 A 
ATOM      5  N   UNL     1      52.022   9.044  14.999  0.00  0.00    +0.000 NA
ATOM      6  N   UNL     1      52.140   8.597  16.292  0.00  0.00    +0.000 NA
ATOM      7  C   UNL     1      51.353   7.613  16.787  0.00  0.00    +0.000 A 
ATOM      8  N   UNL     1      51.503   7.239  18.100  0.00  0.00    +0.000 N 
ATOM      9  C   UNL     1      51.877   8.252  19.093  0.00  0.00    +0.000 C 
ATOM     10  C   UNL     1      53.033   7.738  19.958  0.00  0.00    +0.000 C 
ATOM     11  O   UNL     1      52.715   6.464  20.547  0.00  0.00    +0.000 OA
ATOM     12  C   UNL     1      52.471   5.490  19.518  0.00  0.00    +0.000 C 
ATOM     13  C   UNL     1      51.286   5.891  18.615  0.00  0.00    +0.000 C 
ATOM     14  C   UNL     1      50.396   7.041  15.958  0.00  0.00    +0.000 A 
ENDBRANCH   2   3
BRANCH   1  18
ATOM     15  C   UNL     1      44.880   4.838  11.312  0.00  0.00    +0.000 A 
ATOM     16  C   UNL     1      45.525   5.939  10.739  0.00  0.00    +0.000 A 
ATOM     17  C   UNL     1      46.603   6.543  11.394  0.00  0.00    +0.000 A 
ATOM     18  C   UNL     1      47.046   6.047  12.622  0.00  0.00    +0.000 A 
ATOM     19  C   UNL     1      46.393   4.957  13.206  0.00  0.00    +0.000 A 
ATOM     20  C   UNL     1      45.313   4.347  12.552  0.00  0.00    +0.000 A 
BRANCH  15  22
ATOM     21  O   UNL     1      43.168   3.231  10.949  0.00  0.00    +0.000 OA
ATOM     22  C   UNL     1      43.806   4.179  10.526  0.00  0.00    +0.000 C 
BRANCH  22  23
ATOM     23  O   UNL     1      43.624   4.702   9.297  0.00  0.00    +0.000 OA
ATOM     24  H   UNL     1      42.696   4.820   9.030  0.00  0.00    +0.000 HD
ENDBRANCH  22  23
ENDBRANCH  15  22
ENDBRANCH   1  18
TORSDOF 4
ENDMDL
MODEL 7
REMARK VINA RESULT:    -5.249      3.548      4.413
REMARK INTER + INTRA:          -6.592
REMARK INTER:                  -6.310
REMARK INTRA:                  -0.282
REMARK UNBOUND:                -0.269
REMARK  Name = 
REMARK  4 active torsions:
REMARK  status: ('A' for Active; 'I' for Inactive)
REMARK    1  A    between atoms: C_2  and  O_3
REMARK    2  A    between atoms: C_2  and  C_4
REMARK    3  A    between atoms: C_7  and  C_8
REMARK    4  A    between atoms: C_9  and  C_10
REMARK                            x       y       z     vdW  Elec       q    Type
REMARK                         _______ _______ _______ _____ _____    ______ ____
ROOT
ATOM      1  C   UNL     1      47.171   7.159  13.205  0.00  0.00    +0.000 C 
ATOM      2  C   UNL     1      47.774   7.976  13.848  0.00  0.00    +0.000 C 
ENDROOT
BRANCH   2   3
ATOM      3  C   UNL     1      48.490   8.866  14.713  0.00  0.00    +0.000 A 
ATOM      4  C   UNL     1      49.578   9.573  14.248  0.00  0.00    +0.000 A 
ATOM      5  N   UNL     1      50.206  10.487  15.005  0.00  0.00    +0.000 NA
ATOM      6  N   UNL     1      49.733  10.743  16.268  0.00  0.00    +0.000 NA
ATOM      7  C   UNL     1      48.676  10.076  16.788  0.00  0.00    +0.000 A 
ATOM      8  N   UNL     1      48.235  10.408  18.046  0.00  0.00    +0.000 N 
ATOM      9  C   UNL     1      48.334  11.802  18.494  0.00  0.00    +0.000 C 
ATOM     10  C   UNL     1      48.961  11.861  19.891  0.00  0.00    +0.000 C 
ATOM     11  O   UNL     1      48.247  11.022  20.818  0.00  0.00    +0.000 OA
ATOM     12  C   UNL     1      48.286   9.654  20.377  0.00  0.00    +0.000 C 
ATOM     13  C   UNL     1      47.631   9.476  18.993  0.00  0.00    +0.000 C 
ATOM     14  C   UNL     1      48.051   9.106  16.015  0.00  0.00    +0.000 A 
ENDBRANCH   2   3
BRANCH   1  18
ATOM     15  C   UNL     1      44.920   4.104  11.325  0.00  0.00    +0.000 A 
ATOM     16  C   UNL     1      45.413   3.926  12.622  0.00  0.00    +0.000 A 
ATOM     17  C   UNL     1      46.187   4.923  13.224  0.00  0.00    +0.000 A 
ATOM     18  C   UNL     1      46.466   6.106  12.537  0.00  0.00    +0.000 A 
ATOM     19  C   UNL     1      45.989   6.281  11.233  0.00  0.00    +0.000 A 
ATOM     20  C   UNL     1      45.211   5.284  10.627  0.00  0.00    +0.000 A 
BRANCH  15  22
ATOM     21  O   UNL     1      44.311   2.394   9.792  0.00  0.00    +0.000 OA
ATOM     22  C   UNL     1      44.025   3.055  10.774  0.00  0.00    +0.000 C 
BRANCH  22  23
ATOM     23  O   UNL     1      42.859   2.921  11.439  0.00  0.00    +0.000 OA
ATOM     24  H   UNL     1      42.830   2.191  12.082  0.00  0.00    +0.000 HD
ENDBRANCH  22  23
ENDBRANCH  15  22
ENDBRANCH   1  18
TORSDOF 4
ENDMDL
MODEL 8
REMARK VINA RESULT:    -4.981      4.058      5.083
REMARK INTER + INTRA:          -6.268
REMARK INTER:                  -5.988
REMARK INTRA:                  -0.280
REMARK UNBOUND:                -0.269
REMARK  Name = 
REMARK  4 active torsions:
REMARK  status: ('A' for Active; 'I' for Inactive)
REMARK    1  A    between atoms: C_2  and  O_3
REMARK    2  A    between atoms: C_2  and  C_4
REMARK    3  A    between atoms: C_7  and  C_8
REMARK    4  A    between atoms: C_9  and  C_10
REMARK                            x       y       z     vdW  Elec       q    Type
REMARK                         _______ _______ _______ _____ _____    ______ ____
ROOT
ATOM      1  C   UNL     1      46.023   7.503  12.483  0.00  0.00    +0.000 C 
ATOM      2  C   UNL     1      46.404   6.542  13.095  0.00  0.00    +0.000 C 
ENDROOT
BRANCH   2   3
ATOM      3  C   UNL     1      46.813   5.453  13.932  0.00  0.00    +0.000 A 
ATOM      4  C   UNL     1      46.717   4.152  13.487  0.00  0.00    +0.000 A 
ATOM      5  N   UNL     1      47.184   3.120  14.208  0.00  0.00    +0.000 NA
ATOM      6  N   UNL     1      47.799   3.371  15.409  0.00  0.00    +0.000 NA
ATOM      7  C   UNL     1      47.916   4.625  15.907  0.00  0.00    +0.000 A 
ATOM      8  N   UNL     1      48.574   4.806  17.099  0.00  0.00    +0.000 N 
ATOM      9  C   UNL     1      49.700   3.928  17.436  0.00  0.00    +0.000 C 
ATOM     10  C   UNL     1      49.542   3.395  18.864  0.00  0.00    +0.000 C 
ATOM     11  O   UNL     1      49.367   4.470  19.805  0.00  0.00    +0.000 OA
ATOM     12  C   UNL     1      48.183   5.221  19.483  0.00  0.00    +0.000 C 
ATOM     13  C   UNL     1      48.263   5.847  18.075  0.00  0.00    +0.000 C 
ATOM     14  C   UNL     1      47.400   5.687  15.175  0.00  0.00    +0.000 A 
ENDBRANCH   2   3
BRANCH   1  18
ATOM     15  C   UNL     1      44.403  11.038  10.803  0.00  0.00    +0.000 A 
ATOM     16  C   UNL     1      43.734   9.816  10.669  0.00  0.00    +0.000 A 
ATOM     17  C   UNL     1      44.291   8.647  11.194  0.00  0.00    +0.000 A 
ATOM     18  C   UNL     1      45.517   8.691  11.862  0.00  0.00    +0.000 A 
ATOM     19  C   UNL     1      46.197   9.907  11.983  0.00  0.00    +0.000 A 
ATOM     20  C   UNL     1      45.641  11.082  11.460  0.00  0.00    +0.000 A 
BRANCH  15  22
ATOM     21  O   UNL     1      42.709  12.703  10.830  0.00  0.00    +0.000 OA
ATOM     22  C   UNL     1      43.719  12.260  10.312  0.00  0.00    +0.000 C 
BRANCH  22  23
ATOM     23  O   UNL     1      44.296  12.815   9.226  0.00  0.00    +0.000 OA
ATOM     24  H   UNL     1      43.804  13.554   8.828  0.00  0.00    +0.000 HD
ENDBRANCH  22  23
ENDBRANCH  15  22
ENDBRANCH   1  18
TORSDOF 4
ENDMDL
MODEL 9
REMARK VINA RESULT:    -4.962      4.781      5.626
REMARK INTER + INTRA:          -6.246
REMARK INTER:                  -5.965
REMARK INTRA:                  -0.281
REMARK UNBOUND:                -0.269
REMARK  Name = 
REMARK  4 active torsions:
REMARK  status: ('A' for Active; 'I' for Inactive)
REMARK    1  A    between atoms: C_2  and  O_3
REMARK    2  A    between atoms: C_2  and  C_4
REMARK    3  A    between atoms: C_7  and  C_8
REMARK    4  A    between atoms: C_9  and  C_10
REMARK                            x       y       z     vdW  Elec       q    Type
REMARK                         _______ _______ _______ _____ _____    ______ ____
ROOT
ATOM      1  C   UNL     1      47.584   7.090  12.737  0.00  0.00    +0.000 C 
ATOM      2  C   UNL     1      48.418   7.864  13.121  0.00  0.00    +0.000 C 
ENDROOT
BRANCH   2   3
ATOM      3  C   UNL     1      49.449   8.697  13.664  0.00  0.00    +0.000 A 
ATOM      4  C   UNL     1      49.364  10.070  13.569  0.00  0.00    +0.000 A 
ATOM      5  N   UNL     1      50.263  10.878  14.154  0.00  0.00    +0.000 NA
ATOM      6  N   UNL     1      51.279  10.321  14.891  0.00  0.00    +0.000 NA
ATOM      7  C   UNL     1      51.424   8.981  15.015  0.00  0.00    +0.000 A 
ATOM      8  N   UNL     1      52.443   8.493  15.796  0.00  0.00    +0.000 N 
ATOM      9  C   UNL     1      52.855   9.245  16.987  0.00  0.00    +0.000 C 
ATOM     10  C   UNL     1      54.380   9.394  17.012  0.00  0.00    +0.000 C 
ATOM     11  O   UNL     1      55.030   8.115  16.903  0.00  0.00    +0.000 OA
ATOM     12  C   UNL     1      54.672   7.482  15.663  0.00  0.00    +0.000 C 
ATOM     13  C   UNL     1      53.152   7.239  15.557  0.00  0.00    +0.000 C 
ATOM     14  C   UNL     1      50.513   8.147  14.379  0.00  0.00    +0.000 A 
ENDBRANCH   2   3
BRANCH   1  18
ATOM     15  C   UNL     1      44.935   4.022  11.506  0.00  0.00    +0.000 A 
ATOM     16  C   UNL     1      45.166   5.132  10.686  0.00  0.00    +0.000 A 
ATOM     17  C   UNL     1      46.013   6.159  11.113  0.00  0.00    +0.000 A 
ATOM     18  C   UNL     1      46.639   6.081  12.359  0.00  0.00    +0.000 A 
ATOM     19  C   UNL     1      46.397   4.982  13.190  0.00  0.00    +0.000 A 
ATOM     20  C   UNL     1      45.549   3.949  12.764  0.00  0.00    +0.000 A 
BRANCH  15  22
ATOM     21  O   UNL     1      42.977   2.684  11.360  0.00  0.00    +0.000 OA
ATOM     22  C   UNL     1      44.104   2.920  10.961  0.00  0.00    +0.000 C 
BRANCH  22  23
ATOM     23  O   UNL     1      44.718   2.186  10.010  0.00  0.00    +0.000 OA
ATOM     24  H   UNL     1      45.461   2.627   9.562  0.00  0.00    +0.000 HD
ENDBRANCH  22  23
ENDBRANCH  15  22
ENDBRANCH   1  18
TORSDOF 4
ENDMDL
