MODEL 1
REMARK VINA RESULT:    -7.659      0.000      0.000
REMARK INTER + INTRA:         -11.235
REMARK INTER:                 -10.569
REMARK INTRA:                  -0.666
REMARK UNBOUND:                -0.666
REMARK  Name = 
REMARK  8 active torsions:
REMARK  status: ('A' for Active; 'I' for Inactive)
REMARK    1  A    between atoms: C_1  and  C_2
REMARK    2  A    between atoms: C_2  and  C_3
REMARK    3  A    between atoms: C_6  and  C_7
REMARK    4  A    between atoms: C_7  and  C_8
REMARK    5  A    between atoms: C_8  and  C_9
REMARK    6  A    between atoms: C_13  and  C_14
REMARK    7  A    between atoms: C_14  and  N_15
REMARK    8  A    between atoms: C_18  and  C_19
REMARK                            x       y       z     vdW  Elec       q    Type
REMARK                         _______ _______ _______ _____ _____    ______ ____
ROOT
ATOM      1  C   UNL     1      46.997   6.045  12.801  0.00  0.00    +0.000 A 
ATOM      2  C   UNL     1      46.524   6.569  11.601  0.00  0.00    +0.000 A 
ATOM      3  N   UNL     1      45.530   6.028  10.860  0.00  0.00    +0.000 NA
ATOM      4  C   UNL     1      44.971   4.880  11.299  0.00  0.00    +0.000 A 
ATOM      5  C   UNL     1      45.440   4.235  12.438  0.00  0.00    +0.000 A 
ATOM      6  C   UNL     1      46.442   4.828  13.214  0.00  0.00    +0.000 A 
ENDROOT
BRANCH   6   7
ATOM      7  C   UNL     1      46.899   4.117  14.442  0.00  0.00    +0.000 C 
ATOM      8  N   UNL     1      46.521   4.621  15.654  0.00  0.00    +0.000 N 
ATOM      9  O   UNL     1      47.590   3.107  14.389  0.00  0.00    +0.000 OA
ATOM     10  H   UNL     1      46.094   5.528  15.783  0.00  0.00    +0.000 HD
ATOM     11  H   UNL     1      46.890   4.152  16.471  0.00  0.00    +0.000 HD
ENDBRANCH   6   7
BRANCH   1  13
ATOM     12  C   UNL     1      48.744   7.860  12.719  0.00  0.00    +0.000 C 
ATOM     13  C   UNL     1      48.039   6.813  13.568  0.00  0.00    +0.000 C 
ENDBRANCH   1  13
BRANCH   4  14
ATOM     14  C   UNL     1      43.811   4.344  10.484  0.00  0.00    +0.000 C 
BRANCH  14  15
ATOM     15  C   UNL     1      44.098   4.328   8.977  0.00  0.00    +0.000 C 
BRANCH  15  16
ATOM     16  C   UNL     1      45.082   3.315   8.453  0.00  0.00    +0.000 A 
ATOM     17  C   UNL     1      45.070   2.025   9.007  0.00  0.00    +0.000 A 
ATOM     18  C   UNL     1      45.850   1.009   8.465  0.00  0.00    +0.000 A 
ATOM     19  C   UNL     1      46.643   1.264   7.347  0.00  0.00    +0.000 A 
ATOM     20  C   UNL     1      46.686   2.546   6.778  0.00  0.00    +0.000 A 
ATOM     21  C   UNL     1      45.901   3.564   7.345  0.00  0.00    +0.000 A 
BRANCH  20  22
ATOM     22  C   UNL     1      47.434   2.834   5.498  0.00  0.00    +0.000 C 
BRANCH  22  23
ATOM     23  N   UNL     1      48.537   1.915   5.239  0.00  0.00    +0.000 NA
ATOM     24  H   UNL     1      49.377   2.287   5.677  0.00  0.00    +0.000 HD
ATOM     25  H   UNL     1      48.719   1.899   4.238  0.00  0.00    +0.000 HD
ENDBRANCH  22  23
ENDBRANCH  20  22
ENDBRANCH  15  16
ENDBRANCH  14  15
ENDBRANCH   4  14
TORSDOF 7
ENDMDL
MODEL 2
REMARK VINA RESULT:    -7.127      2.033      2.900
REMARK INTER + INTRA:         -10.502
REMARK INTER:                 -10.070
REMARK INTRA:                  -0.431
REMARK UNBOUND:                -0.666
REMARK  Name = 
REMARK  8 active torsions:
REMARK  status: ('A' for Active; 'I' for Inactive)
REMARK    1  A    between atoms: C_1  and  C_2
REMARK    2  A    between atoms: C_2  and  C_3
REMARK    3  A    between atoms: C_6  and  C_7
REMARK    4  A    between atoms: C_7  and  C_8
REMARK    5  A    between atoms: C_8  and  C_9
REMARK    6  A    between atoms: C_13  and  C_14
REMARK    7  A    between atoms: C_14  and  N_15
REMARK    8  A    between atoms: C_18  and  C_19
REMARK                            x       y       z     vdW  Elec       q    Type
REMARK                         _______ _______ _______ _____ _____    ______ ____
ROOT
ATOM      1  C   UNL     1      46.706   5.940  13.511  0.00  0.00    +0.000 A 
ATOM      2  C   UNL     1      46.339   4.607  13.676  0.00  0.00    +0.000 A 
ATOM      3  N   UNL     1      45.262   4.025  13.102  0.00  0.00    +0.000 NA
ATOM      4  C   UNL     1      44.465   4.795  12.332  0.00  0.00    +0.000 A 
ATOM      5  C   UNL     1      44.700   6.158  12.183  0.00  0.00    +0.000 A 
ATOM      6  C   UNL     1      45.840   6.737  12.752  0.00  0.00    +0.000 A 
ENDROOT
BRANCH   6   7
ATOM      7  C   UNL     1      46.070   8.195  12.548  0.00  0.00    +0.000 C 
ATOM      8  N   UNL     1      45.131   9.066  13.026  0.00  0.00    +0.000 N 
ATOM      9  O   UNL     1      47.066   8.623  11.976  0.00  0.00    +0.000 OA
ATOM     10  H   UNL     1      44.219   8.789  13.360  0.00  0.00    +0.000 HD
ATOM     11  H   UNL     1      45.285  10.046  12.826  0.00  0.00    +0.000 HD
ENDBRANCH   6   7
BRANCH   1  13
ATOM     12  C   UNL     1      48.238   5.829  15.509  0.00  0.00    +0.000 C 
ATOM     13  C   UNL     1      47.990   6.423  14.131  0.00  0.00    +0.000 C 
ENDBRANCH   1  13
BRANCH   4  14
ATOM     14  C   UNL     1      43.312   4.093  11.645  0.00  0.00    +0.000 C 
BRANCH  14  15
ATOM     15  C   UNL     1      43.747   2.828  10.894  0.00  0.00    +0.000 C 
BRANCH  15  16
ATOM     16  C   UNL     1      44.572   2.993   9.643  0.00  0.00    +0.000 A 
ATOM     17  C   UNL     1      44.776   4.290   9.146  0.00  0.00    +0.000 A 
ATOM     18  C   UNL     1      45.647   4.518   8.085  0.00  0.00    +0.000 A 
ATOM     19  C   UNL     1      46.341   3.451   7.516  0.00  0.00    +0.000 A 
ATOM     20  C   UNL     1      46.149   2.142   7.982  0.00  0.00    +0.000 A 
ATOM     21  C   UNL     1      45.257   1.927   9.047  0.00  0.00    +0.000 A 
BRANCH  20  22
ATOM     22  C   UNL     1      46.968   0.979   7.477  0.00  0.00    +0.000 C 
BRANCH  22  23
ATOM     23  N   UNL     1      48.145   1.374   6.711  0.00  0.00    +0.000 NA
ATOM     24  H   UNL     1      47.895   1.398   5.724  0.00  0.00    +0.000 HD
ATOM     25  H   UNL     1      48.855   0.652   6.809  0.00  0.00    +0.000 HD
ENDBRANCH  22  23
ENDBRANCH  20  22
ENDBRANCH  15  16
ENDBRANCH  14  15
ENDBRANCH   4  14
TORSDOF 7
ENDMDL
MODEL 3
REMARK VINA RESULT:    -7.029      1.779      2.445
REMARK INTER + INTRA:         -10.366
REMARK INTER:                  -9.747
REMARK INTRA:                  -0.618
REMARK UNBOUND:                -0.666
REMARK  Name = 
REMARK  8 active torsions:
REMARK  status: ('A' for Active; 'I' for Inactive)
REMARK    1  A    between atoms: C_1  and  C_2
REMARK    2  A    between atoms: C_2  and  C_3
REMARK    3  A    between atoms: C_6  and  C_7
REMARK    4  A    between atoms: C_7  and  C_8
REMARK    5  A    between atoms: C_8  and  C_9
REMARK    6  A    between atoms: C_13  and  C_14
REMARK    7  A    between atoms: C_14  and  N_15
REMARK    8  A    between atoms: C_18  and  C_19
REMARK                            x       y       z     vdW  Elec       q    Type
REMARK                         _______ _______ _______ _____ _____    ______ ____
ROOT
ATOM      1  C   UNL     1      45.716   7.149  12.876  0.00  0.00    +0.000 A 
ATOM      2  C   UNL     1      44.449   6.797  12.419  0.00  0.00    +0.000 A 
ATOM      3  N   UNL     1      44.035   5.531  12.184  0.00  0.00    +0.000 NA
ATOM      4  C   UNL     1      44.922   4.532  12.379  0.00  0.00    +0.000 A 
ATOM      5  C   UNL     1      46.238   4.794  12.746  0.00  0.00    +0.000 A 
ATOM      6  C   UNL     1      46.639   6.105  13.023  0.00  0.00    +0.000 A 
ENDROOT
BRANCH   6   7
ATOM      7  C   UNL     1      48.051   6.341  13.438  0.00  0.00    +0.000 C 
ATOM      8  N   UNL     1      48.923   6.825  12.503  0.00  0.00    +0.000 N 
ATOM      9  O   UNL     1      48.440   6.118  14.578  0.00  0.00    +0.000 OA
ATOM     10  H   UNL     1      48.721   6.879  11.515  0.00  0.00    +0.000 HD
ATOM     11  H   UNL     1      49.886   6.924  12.796  0.00  0.00    +0.000 HD
ENDBRANCH   6   7
BRANCH   1  13
ATOM     12  C   UNL     1      45.727   9.517  12.015  0.00  0.00    +0.000 C 
ATOM     13  C   UNL     1      46.001   8.592  13.191  0.00  0.00    +0.000 C 
ENDBRANCH   1  13
BRANCH   4  14
ATOM     14  C   UNL     1      44.402   3.124  12.178  0.00  0.00    +0.000 C 
BRANCH  14  15
ATOM     15  C   UNL     1      43.768   2.913  10.797  0.00  0.00    +0.000 C 
BRANCH  15  16
ATOM     16  C   UNL     1      44.651   3.054   9.583  0.00  0.00    +0.000 A 
ATOM     17  C   UNL     1      44.903   4.343   9.088  0.00  0.00    +0.000 A 
ATOM     18  C   UNL     1      45.824   4.547   8.065  0.00  0.00    +0.000 A 
ATOM     19  C   UNL     1      46.520   3.463   7.533  0.00  0.00    +0.000 A 
ATOM     20  C   UNL     1      46.281   2.161   7.998  0.00  0.00    +0.000 A 
ATOM     21  C   UNL     1      45.339   1.971   9.024  0.00  0.00    +0.000 A 
BRANCH  20  22
ATOM     22  C   UNL     1      47.098   0.978   7.535  0.00  0.00    +0.000 C 
BRANCH  22  23
ATOM     23  N   UNL     1      47.930   1.254   6.369  0.00  0.00    +0.000 NA
ATOM     24  H   UNL     1      48.678   0.563   6.336  0.00  0.00    +0.000 HD
ATOM     25  H   UNL     1      48.379   2.158   6.496  0.00  0.00    +0.000 HD
ENDBRANCH  22  23
ENDBRANCH  20  22
ENDBRANCH  15  16
ENDBRANCH  14  15
ENDBRANCH   4  14
TORSDOF 7
ENDMDL
MODEL 4
REMARK VINA RESULT:    -6.943      1.712      2.325
REMARK INTER + INTRA:         -10.248
REMARK INTER:                  -9.542
REMARK INTRA:                  -0.706
REMARK UNBOUND:                -0.666
REMARK  Name = 
REMARK  8 active torsions:
REMARK  status: ('A' for Active; 'I' for Inactive)
REMARK    1  A    between atoms: C_1  and  C_2
REMARK    2  A    between atoms: C_2  and  C_3
REMARK    3  A    between atoms: C_6  and  C_7
REMARK    4  A    between atoms: C_7  and  C_8
REMARK    5  A    between atoms: C_8  and  C_9
REMARK    6  A    between atoms: C_13  and  C_14
REMARK    7  A    between atoms: C_14  and  N_15
REMARK    8  A    between atoms: C_18  and  C_19
REMARK                            x       y       z     vdW  Elec       q    Type
REMARK                         _______ _______ _______ _____ _____    ______ ____
ROOT
ATOM      1  C   UNL     1      46.642   4.929  13.573  0.00  0.00    +0.000 A 
ATOM      2  C   UNL     1      45.978   3.711  13.459  0.00  0.00    +0.000 A 
ATOM      3  N   UNL     1      45.054   3.419  12.515  0.00  0.00    +0.000 NA
ATOM      4  C   UNL     1      44.728   4.386  11.633  0.00  0.00    +0.000 A 
ATOM      5  C   UNL     1      45.271   5.664  11.725  0.00  0.00    +0.000 A 
ATOM      6  C   UNL     1      46.254   5.938  12.682  0.00  0.00    +0.000 A 
ENDROOT
BRANCH   6   7
ATOM      7  C   UNL     1      46.829   7.312  12.732  0.00  0.00    +0.000 C 
ATOM      8  N   UNL     1      46.242   8.224  13.564  0.00  0.00    +0.000 N 
ATOM      9  O   UNL     1      47.802   7.635  12.061  0.00  0.00    +0.000 OA
ATOM     10  H   UNL     1      45.352   8.084  14.020  0.00  0.00    +0.000 HD
ATOM     11  H   UNL     1      46.617   9.163  13.538  0.00  0.00    +0.000 HD
ENDBRANCH   6   7
BRANCH   1  13
ATOM     12  C   UNL     1      47.344   4.447  15.945  0.00  0.00    +0.000 C 
ATOM     13  C   UNL     1      47.721   5.075  14.612  0.00  0.00    +0.000 C 
ENDBRANCH   1  13
BRANCH   4  14
ATOM     14  C   UNL     1      43.747   4.001  10.544  0.00  0.00    +0.000 C 
BRANCH  14  15
ATOM     15  C   UNL     1      44.275   4.296   9.134  0.00  0.00    +0.000 C 
BRANCH  15  16
ATOM     16  C   UNL     1      45.208   3.295   8.502  0.00  0.00    +0.000 A 
ATOM     17  C   UNL     1      45.271   2.004   9.050  0.00  0.00    +0.000 A 
ATOM     18  C   UNL     1      45.999   0.998   8.422  0.00  0.00    +0.000 A 
ATOM     19  C   UNL     1      46.662   1.265   7.225  0.00  0.00    +0.000 A 
ATOM     20  C   UNL     1      46.627   2.548   6.659  0.00  0.00    +0.000 A 
ATOM     21  C   UNL     1      45.897   3.556   7.312  0.00  0.00    +0.000 A 
BRANCH  20  22
ATOM     22  C   UNL     1      47.228   2.847   5.307  0.00  0.00    +0.000 C 
BRANCH  22  23
ATOM     23  N   UNL     1      48.553   2.272   5.107  0.00  0.00    +0.000 NA
ATOM     24  H   UNL     1      49.190   3.017   4.831  0.00  0.00    +0.000 HD
ATOM     25  H   UNL     1      48.513   1.624   4.324  0.00  0.00    +0.000 HD
ENDBRANCH  22  23
ENDBRANCH  20  22
ENDBRANCH  15  16
ENDBRANCH  14  15
ENDBRANCH   4  14
TORSDOF 7
ENDMDL
MODEL 5
REMARK VINA RESULT:    -6.475      1.387      2.117
REMARK INTER + INTRA:          -9.602
REMARK INTER:                  -8.999
REMARK INTRA:                  -0.603
REMARK UNBOUND:                -0.666
REMARK  Name = 
REMARK  8 active torsions:
REMARK  status: ('A' for Active; 'I' for Inactive)
REMARK    1  A    between atoms: C_1  and  C_2
REMARK    2  A    between atoms: C_2  and  C_3
REMARK    3  A    between atoms: C_6  and  C_7
REMARK    4  A    between atoms: C_7  and  C_8
REMARK    5  A    between atoms: C_8  and  C_9
REMARK    6  A    between atoms: C_13  and  C_14
REMARK    7  A    between atoms: C_14  and  N_15
REMARK    8  A    between atoms: C_18  and  C_19
REMARK                            x       y       z     vdW  Elec       q    Type
REMARK                         _______ _______ _______ _____ _____    ______ ____
ROOT
ATOM      1  C   UNL     1      48.016   6.494  14.283  0.00  0.00    +0.000 A 
ATOM      2  C   UNL     1      47.901   7.554  13.389  0.00  0.00    +0.000 A 
ATOM      3  N   UNL     1      46.955   7.656  12.428  0.00  0.00    +0.000 NA
ATOM      4  C   UNL     1      46.071   6.643  12.305  0.00  0.00    +0.000 A 
ATOM      5  C   UNL     1      46.163   5.501  13.094  0.00  0.00    +0.000 A 
ATOM      6  C   UNL     1      47.124   5.429  14.109  0.00  0.00    +0.000 A 
ENDROOT
BRANCH   6   7
ATOM      7  C   UNL     1      47.174   4.199  14.948  0.00  0.00    +0.000 C 
ATOM      8  N   UNL     1      46.764   4.292  16.249  0.00  0.00    +0.000 N 
ATOM      9  O   UNL     1      47.563   3.124  14.506  0.00  0.00    +0.000 OA
ATOM     10  H   UNL     1      46.586   5.164  16.726  0.00  0.00    +0.000 HD
ATOM     11  H   UNL     1      46.860   3.456  16.811  0.00  0.00    +0.000 HD
ENDBRANCH   6   7
BRANCH   1  13
ATOM     12  C   UNL     1      48.938   7.822  16.217  0.00  0.00    +0.000 C 
ATOM     13  C   UNL     1      49.058   6.567  15.367  0.00  0.00    +0.000 C 
ENDBRANCH   1  13
BRANCH   4  14
ATOM     14  C   UNL     1      44.980   6.826  11.269  0.00  0.00    +0.000 C 
BRANCH  14  15
ATOM     15  C   UNL     1      44.095   5.583  11.111  0.00  0.00    +0.000 C 
BRANCH  15  16
ATOM     16  C   UNL     1      44.602   4.455  10.249  0.00  0.00    +0.000 A 
ATOM     17  C   UNL     1      44.076   3.170  10.456  0.00  0.00    +0.000 A 
ATOM     18  C   UNL     1      44.394   2.123   9.597  0.00  0.00    +0.000 A 
ATOM     19  C   UNL     1      45.232   2.350   8.507  0.00  0.00    +0.000 A 
ATOM     20  C   UNL     1      45.783   3.621   8.281  0.00  0.00    +0.000 A 
ATOM     21  C   UNL     1      45.461   4.665   9.165  0.00  0.00    +0.000 A 
BRANCH  20  22
ATOM     22  C   UNL     1      46.594   3.938   7.047  0.00  0.00    +0.000 C 
BRANCH  22  23
ATOM     23  N   UNL     1      47.755   3.074   6.864  0.00  0.00    +0.000 NA
ATOM     24  H   UNL     1      47.715   2.673   5.929  0.00  0.00    +0.000 HD
ATOM     25  H   UNL     1      47.686   2.294   7.513  0.00  0.00    +0.000 HD
ENDBRANCH  22  23
ENDBRANCH  20  22
ENDBRANCH  15  16
ENDBRANCH  14  15
ENDBRANCH   4  14
TORSDOF 7
ENDMDL
MODEL 6
REMARK VINA RESULT:    -5.969      2.437      3.938
REMARK INTER + INTRA:          -8.903
REMARK INTER:                  -8.184
REMARK INTRA:                  -0.719
REMARK UNBOUND:                -0.666
REMARK  Name = 
REMARK  8 active torsions:
REMARK  status: ('A' for Active; 'I' for Inactive)
REMARK    1  A    between atoms: C_1  and  C_2
REMARK    2  A    between atoms: C_2  and  C_3
REMARK    3  A    between atoms: C_6  and  C_7
REMARK    4  A    between atoms: C_7  and  C_8
REMARK    5  A    between atoms: C_8  and  C_9
REMARK    6  A    between atoms: C_13  and  C_14
REMARK    7  A    between atoms: C_14  and  N_15
REMARK    8  A    between atoms: C_18  and  C_19
REMARK                            x       y       z     vdW  Elec       q    Type
REMARK                         _______ _______ _______ _____ _____    ______ ____
ROOT
ATOM      1  C   UNL     1      48.630   5.813  16.435  0.00  0.00    +0.000 A 
ATOM      2  C   UNL     1      48.875   6.940  15.657  0.00  0.00    +0.000 A 
ATOM      3  N   UNL     1      48.346   7.164  14.432  0.00  0.00    +0.000 NA
ATOM      4  C   UNL     1      47.542   6.214  13.910  0.00  0.00    +0.000 A 
ATOM      5  C   UNL     1      47.313   5.014  14.575  0.00  0.00    +0.000 A 
ATOM      6  C   UNL     1      47.836   4.815  15.857  0.00  0.00    +0.000 A 
ENDROOT
BRANCH   6   7
ATOM      7  C   UNL     1      47.546   3.526  16.547  0.00  0.00    +0.000 C 
ATOM      8  N   UNL     1      48.460   2.516  16.430  0.00  0.00    +0.000 N 
ATOM      9  O   UNL     1      46.529   3.355  17.208  0.00  0.00    +0.000 OA
ATOM     10  H   UNL     1      49.233   2.524  15.780  0.00  0.00    +0.000 HD
ATOM     11  H   UNL     1      48.214   1.635  16.862  0.00  0.00    +0.000 HD
ENDBRANCH   6   7
BRANCH   1  13
ATOM     12  C   UNL     1      49.938   7.023  18.217  0.00  0.00    +0.000 C 
ATOM     13  C   UNL     1      49.207   5.749  17.824  0.00  0.00    +0.000 C 
ENDBRANCH   1  13
BRANCH   4  14
ATOM     14  C   UNL     1      46.908   6.532  12.571  0.00  0.00    +0.000 C 
BRANCH  14  15
ATOM     15  C   UNL     1      45.423   6.153  12.510  0.00  0.00    +0.000 C 
BRANCH  15  16
ATOM     16  C   UNL     1      45.033   4.931  11.718  0.00  0.00    +0.000 A 
ATOM     17  C   UNL     1      44.262   3.945  12.353  0.00  0.00    +0.000 A 
ATOM     18  C   UNL     1      43.749   2.870  11.633  0.00  0.00    +0.000 A 
ATOM     19  C   UNL     1      43.986   2.775  10.263  0.00  0.00    +0.000 A 
ATOM     20  C   UNL     1      44.764   3.739   9.604  0.00  0.00    +0.000 A 
ATOM     21  C   UNL     1      45.284   4.812  10.347  0.00  0.00    +0.000 A 
BRANCH  20  22
ATOM     22  C   UNL     1      44.943   3.740   8.104  0.00  0.00    +0.000 C 
BRANCH  22  23
ATOM     23  N   UNL     1      46.141   4.439   7.652  0.00  0.00    +0.000 NA
ATOM     24  H   UNL     1      46.301   4.205   6.674  0.00  0.00    +0.000 HD
ATOM     25  H   UNL     1      46.941   4.080   8.168  0.00  0.00    +0.000 HD
ENDBRANCH  22  23
ENDBRANCH  20  22
ENDBRANCH  15  16
ENDBRANCH  14  15
ENDBRANCH   4  14
TORSDOF 7
ENDMDL
MODEL 7
REMARK VINA RESULT:    -5.923      2.958      4.576
REMARK INTER + INTRA:          -8.840
REMARK INTER:                  -8.037
REMARK INTRA:                  -0.803
REMARK UNBOUND:                -0.666
REMARK  Name = 
REMARK  8 active torsions:
REMARK  status: ('A' for Active; 'I' for Inactive)
REMARK    1  A    between atoms: C_1  and  C_2
REMARK    2  A    between atoms: C_2  and  C_3
REMARK    3  A    between atoms: C_6  and  C_7
REMARK    4  A    between atoms: C_7  and  C_8
REMARK    5  A    between atoms: C_8  and  C_9
REMARK    6  A    between atoms: C_13  and  C_14
REMARK    7  A    between atoms: C_14  and  N_15
REMARK    8  A    between atoms: C_18  and  C_19
REMARK                            x       y       z     vdW  Elec       q    Type
REMARK                         _______ _______ _______ _____ _____    ______ ____
ROOT
ATOM      1  C   UNL     1      48.978   5.831  16.168  0.00  0.00    +0.000 A 
ATOM      2  C   UNL     1      49.128   7.056  15.524  0.00  0.00    +0.000 A 
ATOM      3  N   UNL     1      48.372   7.482  14.486  0.00  0.00    +0.000 NA
ATOM      4  C   UNL     1      47.419   6.649  14.018  0.00  0.00    +0.000 A 
ATOM      5  C   UNL     1      47.256   5.369  14.538  0.00  0.00    +0.000 A 
ATOM      6  C   UNL     1      48.019   4.960  15.637  0.00  0.00    +0.000 A 
ENDROOT
BRANCH   6   7
ATOM      7  C   UNL     1      47.798   3.590  16.181  0.00  0.00    +0.000 C 
ATOM      8  N   UNL     1      46.865   3.434  17.168  0.00  0.00    +0.000 N 
ATOM      9  O   UNL     1      48.417   2.617  15.767  0.00  0.00    +0.000 OA
ATOM     10  H   UNL     1      46.436   4.199  17.668  0.00  0.00    +0.000 HD
ATOM     11  H   UNL     1      46.774   2.504  17.557  0.00  0.00    +0.000 HD
ENDBRANCH   6   7
BRANCH   1  13
ATOM     12  C   UNL     1      49.232   6.094  18.661  0.00  0.00    +0.000 C 
ATOM     13  C   UNL     1      49.825   5.537  17.377  0.00  0.00    +0.000 C 
ENDBRANCH   1  13
BRANCH   4  14
ATOM     14  C   UNL     1      46.543   7.188  12.905  0.00  0.00    +0.000 C 
BRANCH  14  15
ATOM     15  C   UNL     1      46.839   6.539  11.547  0.00  0.00    +0.000 C 
BRANCH  15  16
ATOM     16  C   UNL     1      45.823   5.579  10.982  0.00  0.00    +0.000 A 
ATOM     17  C   UNL     1      45.810   5.363   9.595  0.00  0.00    +0.000 A 
ATOM     18  C   UNL     1      44.999   4.382   9.034  0.00  0.00    +0.000 A 
ATOM     19  C   UNL     1      44.199   3.590   9.857  0.00  0.00    +0.000 A 
ATOM     20  C   UNL     1      44.181   3.790  11.245  0.00  0.00    +0.000 A 
ATOM     21  C   UNL     1      44.998   4.793  11.795  0.00  0.00    +0.000 A 
BRANCH  20  22
ATOM     22  C   UNL     1      43.425   2.877  12.180  0.00  0.00    +0.000 C 
BRANCH  22  23
ATOM     23  N   UNL     1      43.015   1.616  11.573  0.00  0.00    +0.000 NA
ATOM     24  H   UNL     1      43.342   1.601  10.608  0.00  0.00    +0.000 HD
ATOM     25  H   UNL     1      41.999   1.590  11.532  0.00  0.00    +0.000 HD
ENDBRANCH  22  23
ENDBRANCH  20  22
ENDBRANCH  15  16
ENDBRANCH  14  15
ENDBRANCH   4  14
TORSDOF 7
ENDMDL
MODEL 8
REMARK VINA RESULT:    -5.815      3.036      4.802
REMARK INTER + INTRA:          -8.692
REMARK INTER:                  -8.094
REMARK INTRA:                  -0.597
REMARK UNBOUND:                -0.666
REMARK  Name = 
REMARK  8 active torsions:
REMARK  status: ('A' for Active; 'I' for Inactive)
REMARK    1  A    between atoms: C_1  and  C_2
REMARK    2  A    between atoms: C_2  and  C_3
REMARK    3  A    between atoms: C_6  and  C_7
REMARK    4  A    between atoms: C_7  and  C_8
REMARK    5  A    between atoms: C_8  and  C_9
REMARK    6  A    between atoms: C_13  and  C_14
REMARK    7  A    between atoms: C_14  and  N_15
REMARK    8  A    between atoms: C_18  and  C_19
REMARK                            x       y       z     vdW  Elec       q    Type
REMARK                         _______ _______ _______ _____ _____    ______ ____
ROOT
ATOM      1  C   UNL     1      47.795   4.416  16.020  0.00  0.00    +0.000 A 
ATOM      2  C   UNL     1      47.226   3.894  14.862  0.00  0.00    +0.000 A 
ATOM      3  N   UNL     1      47.148   4.545  13.678  0.00  0.00    +0.000 NA
ATOM      4  C   UNL     1      47.633   5.803  13.618  0.00  0.00    +0.000 A 
ATOM      5  C   UNL     1      48.137   6.439  14.747  0.00  0.00    +0.000 A 
ATOM      6  C   UNL     1      48.246   5.740  15.954  0.00  0.00    +0.000 A 
ENDROOT
BRANCH   6   7
ATOM      7  C   UNL     1      48.815   6.450  17.134  0.00  0.00    +0.000 C 
ATOM      8  N   UNL     1      47.961   7.162  17.929  0.00  0.00    +0.000 N 
ATOM      9  O   UNL     1      50.009   6.407  17.406  0.00  0.00    +0.000 OA
ATOM     10  H   UNL     1      47.005   7.376  17.683  0.00  0.00    +0.000 HD
ATOM     11  H   UNL     1      48.381   7.678  18.691  0.00  0.00    +0.000 HD
ENDBRANCH   6   7
BRANCH   1  13
ATOM     12  C   UNL     1      49.144   2.658  17.221  0.00  0.00    +0.000 C 
ATOM     13  C   UNL     1      47.903   3.536  17.237  0.00  0.00    +0.000 C 
ENDBRANCH   1  13
BRANCH   4  14
ATOM     14  C   UNL     1      47.598   6.472  12.259  0.00  0.00    +0.000 C 
BRANCH  14  15
ATOM     15  C   UNL     1      46.171   6.756  11.771  0.00  0.00    +0.000 C 
BRANCH  15  16
ATOM     16  C   UNL     1      45.486   5.708  10.932  0.00  0.00    +0.000 A 
ATOM     17  C   UNL     1      45.882   5.563   9.594  0.00  0.00    +0.000 A 
ATOM     18  C   UNL     1      45.393   4.518   8.815  0.00  0.00    +0.000 A 
ATOM     19  C   UNL     1      44.511   3.593   9.370  0.00  0.00    +0.000 A 
ATOM     20  C   UNL     1      44.087   3.719  10.702  0.00  0.00    +0.000 A 
ATOM     21  C   UNL     1      44.582   4.786  11.471  0.00  0.00    +0.000 A 
BRANCH  20  22
ATOM     22  C   UNL     1      43.232   2.673  11.376  0.00  0.00    +0.000 C 
BRANCH  22  23
ATOM     23  N   UNL     1      43.604   2.408  12.762  0.00  0.00    +0.000 NA
ATOM     24  H   UNL     1      44.476   2.895  12.960  0.00  0.00    +0.000 HD
ATOM     25  H   UNL     1      43.802   1.415  12.862  0.00  0.00    +0.000 HD
ENDBRANCH  22  23
ENDBRANCH  20  22
ENDBRANCH  15  16
ENDBRANCH  14  15
ENDBRANCH   4  14
TORSDOF 7
ENDMDL
MODEL 9
REMARK VINA RESULT:    -5.713      3.898      6.586
REMARK INTER + INTRA:          -8.550
REMARK INTER:                  -8.046
REMARK INTRA:                  -0.504
REMARK UNBOUND:                -0.666
REMARK  Name = 
REMARK  8 active torsions:
REMARK  status: ('A' for Active; 'I' for Inactive)
REMARK    1  A    between atoms: C_1  and  C_2
REMARK    2  A    between atoms: C_2  and  C_3
REMARK    3  A    between atoms: C_6  and  C_7
REMARK    4  A    between atoms: C_7  and  C_8
REMARK    5  A    between atoms: C_8  and  C_9
REMARK    6  A    between atoms: C_13  and  C_14
REMARK    7  A    between atoms: C_14  and  N_15
REMARK    8  A    between atoms: C_18  and  C_19
REMARK                            x       y       z     vdW  Elec       q    Type
REMARK                         _______ _______ _______ _____ _____    ______ ____
ROOT
ATOM      1  C   UNL     1      50.763   2.806  17.540  0.00  0.00    +0.000 A 
ATOM      2  C   UNL     1      50.034   2.060  16.619  0.00  0.00    +0.000 A 
ATOM      3  N   UNL     1      48.866   2.450  16.058  0.00  0.00    +0.000 NA
ATOM      4  C   UNL     1      48.352   3.639  16.438  0.00  0.00    +0.000 A 
ATOM      5  C   UNL     1      48.962   4.412  17.421  0.00  0.00    +0.000 A 
ATOM      6  C   UNL     1      50.189   4.012  17.962  0.00  0.00    +0.000 A 
ENDROOT
BRANCH   6   7
ATOM      7  C   UNL     1      50.823   4.881  18.994  0.00  0.00    +0.000 C 
ATOM      8  N   UNL     1      50.521   4.645  20.306  0.00  0.00    +0.000 N 
ATOM      9  O   UNL     1      51.599   5.782  18.699  0.00  0.00    +0.000 OA
ATOM     10  H   UNL     1      49.777   4.035  20.615  0.00  0.00    +0.000 HD
ATOM     11  H   UNL     1      50.922   5.282  20.981  0.00  0.00    +0.000 HD
ENDBRANCH   6   7
BRANCH   1  13
ATOM     12  C   UNL     1      52.350   0.849  17.580  0.00  0.00    +0.000 C 
ATOM     13  C   UNL     1      52.099   2.289  18.001  0.00  0.00    +0.000 C 
ENDBRANCH   1  13
BRANCH   4  14
ATOM     14  C   UNL     1      47.084   4.078  15.735  0.00  0.00    +0.000 C 
BRANCH  14  15
ATOM     15  C   UNL     1      47.064   3.695  14.249  0.00  0.00    +0.000 C 
BRANCH  15  16
ATOM     16  C   UNL     1      46.437   4.661  13.276  0.00  0.00    +0.000 A 
ATOM     17  C   UNL     1      47.173   5.795  12.897  0.00  0.00    +0.000 A 
ATOM     18  C   UNL     1      46.710   6.641  11.893  0.00  0.00    +0.000 A 
ATOM     19  C   UNL     1      45.512   6.356  11.242  0.00  0.00    +0.000 A 
ATOM     20  C   UNL     1      44.748   5.237  11.608  0.00  0.00    +0.000 A 
ATOM     21  C   UNL     1      45.223   4.398  12.631  0.00  0.00    +0.000 A 
BRANCH  20  22
ATOM     22  C   UNL     1      43.510   4.824  10.849  0.00  0.00    +0.000 C 
BRANCH  22  23
ATOM     23  N   UNL     1      43.710   4.711   9.408  0.00  0.00    +0.000 NA
ATOM     24  H   UNL     1      44.477   5.324   9.139  0.00  0.00    +0.000 HD
ATOM     25  H   UNL     1      42.881   5.063   8.935  0.00  0.00    +0.000 HD
ENDBRANCH  22  23
ENDBRANCH  20  22
ENDBRANCH  15  16
ENDBRANCH  14  15
ENDBRANCH   4  14
TORSDOF 7
ENDMDL
