MODEL 1
REMARK VINA RESULT:    -7.729      0.000      0.000
REMARK INTER + INTRA:         -10.245
REMARK INTER:                  -9.536
REMARK INTRA:                  -0.709
REMARK UNBOUND:                -0.709
REMARK  Name = 
REMARK  4 active torsions:
REMARK  status: ('A' for Active; 'I' for Inactive)
REMARK    1  A    between atoms: C_2  and  C_4
REMARK    2  A    between atoms: C_9  and  C_10
REMARK    3  A    between atoms: C_10  and  N_11
REMARK    4  A    between atoms: C_16  and  C_17
REMARK                            x       y       z     vdW  Elec       q    Type
REMARK                         _______ _______ _______ _____ _____    ______ ____
ROOT
ATOM      1  N   UNL     1      43.993   6.442  11.241  0.00  0.00    +0.000 N 
ATOM      2  C   UNL     1      44.082   5.054  10.997  0.00  0.00    +0.000 A 
ATOM      3  C   UNL     1      43.279   4.202  11.744  0.00  0.00    +0.000 A 
ATOM      4  C   UNL     1      43.296   2.841  11.468  0.00  0.00    +0.000 A 
ATOM      5  C   UNL     1      44.075   2.373  10.414  0.00  0.00    +0.000 A 
ATOM      6  C   UNL     1      44.818   3.282   9.664  0.00  0.00    +0.000 A 
ATOM      7  N   UNL     1      44.823   4.609   9.966  0.00  0.00    +0.000 NA
ATOM      8  H   UNL     1      43.206   6.749  10.674  0.00  0.00    +0.000 HD
ENDROOT
BRANCH   6   9
ATOM      9  C   UNL     1      45.606   2.876   8.475  0.00  0.00    +0.000 A 
ATOM     10  C   UNL     1      46.121   1.584   8.334  0.00  0.00    +0.000 A 
ATOM     11  C   UNL     1      46.891   1.267   7.217  0.00  0.00    +0.000 A 
ATOM     12  C   UNL     1      47.129   2.241   6.259  0.00  0.00    +0.000 A 
ATOM     13  C   UNL     1      46.583   3.496   6.459  0.00  0.00    +0.000 A 
ATOM     14  N   UNL     1      45.836   3.834   7.533  0.00  0.00    +0.000 NA
ENDBRANCH   6   9
BRANCH   1  15
ATOM     15  C   UNL     1      45.215   7.153  10.838  0.00  0.00    +0.000 C 
BRANCH  15  21
ATOM     16  C   UNL     1      46.416   8.542  12.596  0.00  0.00    +0.000 A 
ATOM     17  N   UNL     1      47.296   8.741  13.630  0.00  0.00    +0.000 NA
ATOM     18  C   UNL     1      47.974   7.665  14.073  0.00  0.00    +0.000 A 
ATOM     19  C   UNL     1      47.832   6.398  13.542  0.00  0.00    +0.000 A 
ATOM     20  C   UNL     1      46.943   6.220  12.486  0.00  0.00    +0.000 A 
ATOM     21  C   UNL     1      46.201   7.300  11.980  0.00  0.00    +0.000 A 
BRANCH  16  23
ATOM     22  N   UNL     1      44.414   9.924  12.633  0.00  0.00    +0.000 N 
ATOM     23  C   UNL     1      45.696   9.801  12.169  0.00  0.00    +0.000 C 
ATOM     24  O   UNL     1      46.187  10.671  11.460  0.00  0.00    +0.000 OA
ATOM     25  H   UNL     1      43.887  10.759  12.424  0.00  0.00    +0.000 HD
ATOM     26  H   UNL     1      44.031   9.202  13.234  0.00  0.00    +0.000 HD
ENDBRANCH  16  23
ENDBRANCH  15  21
ENDBRANCH   1  15
TORSDOF 4
ENDMDL
MODEL 2
REMARK VINA RESULT:    -7.669      2.323      3.134
REMARK INTER + INTRA:         -10.171
REMARK INTER:                  -9.330
REMARK INTRA:                  -0.841
REMARK UNBOUND:                -0.709
REMARK  Name = 
REMARK  4 active torsions:
REMARK  status: ('A' for Active; 'I' for Inactive)
REMARK    1  A    between atoms: C_2  and  C_4
REMARK    2  A    between atoms: C_9  and  C_10
REMARK    3  A    between atoms: C_10  and  N_11
REMARK    4  A    between atoms: C_16  and  C_17
REMARK                            x       y       z     vdW  Elec       q    Type
REMARK                         _______ _______ _______ _____ _____    ______ ____
ROOT
ATOM      1  N   UNL     1      46.188   7.287  12.061  0.00  0.00    +0.000 N 
ATOM      2  C   UNL     1      45.316   6.338  11.483  0.00  0.00    +0.000 A 
ATOM      3  C   UNL     1      43.960   6.433  11.767  0.00  0.00    +0.000 A 
ATOM      4  C   UNL     1      43.076   5.557  11.150  0.00  0.00    +0.000 A 
ATOM      5  C   UNL     1      43.565   4.645  10.221  0.00  0.00    +0.000 A 
ATOM      6  C   UNL     1      44.928   4.632   9.935  0.00  0.00    +0.000 A 
ATOM      7  N   UNL     1      45.791   5.470  10.572  0.00  0.00    +0.000 NA
ATOM      8  H   UNL     1      46.151   8.083  11.429  0.00  0.00    +0.000 HD
ENDROOT
BRANCH   6   9
ATOM      9  C   UNL     1      45.515   3.749   8.897  0.00  0.00    +0.000 A 
ATOM     10  C   UNL     1      45.522   2.357   9.027  0.00  0.00    +0.000 A 
ATOM     11  C   UNL     1      46.124   1.576   8.043  0.00  0.00    +0.000 A 
ATOM     12  C   UNL     1      46.705   2.195   6.947  0.00  0.00    +0.000 A 
ATOM     13  C   UNL     1      46.657   3.576   6.879  0.00  0.00    +0.000 A 
ATOM     14  N   UNL     1      46.083   4.360   7.819  0.00  0.00    +0.000 NA
ENDBRANCH   6   9
BRANCH   1  15
ATOM     15  C   UNL     1      47.566   6.782  12.157  0.00  0.00    +0.000 C 
BRANCH  15  21
ATOM     16  C   UNL     1      47.896   5.790  14.475  0.00  0.00    +0.000 A 
ATOM     17  N   UNL     1      48.354   5.787  15.767  0.00  0.00    +0.000 NA
ATOM     18  C   UNL     1      49.058   6.862  16.171  0.00  0.00    +0.000 A 
ATOM     19  C   UNL     1      49.327   7.949  15.362  0.00  0.00    +0.000 A 
ATOM     20  C   UNL     1      48.842   7.937  14.057  0.00  0.00    +0.000 A 
ATOM     21  C   UNL     1      48.106   6.844  13.573  0.00  0.00    +0.000 A 
BRANCH  16  23
ATOM     22  N   UNL     1      45.785   4.583  14.388  0.00  0.00    +0.000 N 
ATOM     23  C   UNL     1      47.124   4.543  14.107  0.00  0.00    +0.000 C 
ATOM     24  O   UNL     1      47.622   3.548  13.596  0.00  0.00    +0.000 OA
ATOM     25  H   UNL     1      45.198   3.804  14.130  0.00  0.00    +0.000 HD
ATOM     26  H   UNL     1      45.387   5.423  14.795  0.00  0.00    +0.000 HD
ENDBRANCH  16  23
ENDBRANCH  15  21
ENDBRANCH   1  15
TORSDOF 4
ENDMDL
MODEL 3
REMARK VINA RESULT:    -7.651      2.420      3.117
REMARK INTER + INTRA:         -10.149
REMARK INTER:                  -9.394
REMARK INTRA:                  -0.755
REMARK UNBOUND:                -0.709
REMARK  Name = 
REMARK  4 active torsions:
REMARK  status: ('A' for Active; 'I' for Inactive)
REMARK    1  A    between atoms: C_2  and  C_4
REMARK    2  A    between atoms: C_9  and  C_10
REMARK    3  A    between atoms: C_10  and  N_11
REMARK    4  A    between atoms: C_16  and  C_17
REMARK                            x       y       z     vdW  Elec       q    Type
REMARK                         _______ _______ _______ _____ _____    ______ ____
ROOT
ATOM      1  N   UNL     1      45.812   6.385  13.340  0.00  0.00    +0.000 N 
ATOM      2  C   UNL     1      44.959   5.659  12.480  0.00  0.00    +0.000 A 
ATOM      3  C   UNL     1      43.588   5.773  12.664  0.00  0.00    +0.000 A 
ATOM      4  C   UNL     1      42.730   5.128  11.782  0.00  0.00    +0.000 A 
ATOM      5  C   UNL     1      43.266   4.431  10.705  0.00  0.00    +0.000 A 
ATOM      6  C   UNL     1      44.648   4.396  10.539  0.00  0.00    +0.000 A 
ATOM      7  N   UNL     1      45.482   5.001  11.430  0.00  0.00    +0.000 NA
ATOM      8  H   UNL     1      45.871   7.309  12.918  0.00  0.00    +0.000 HD
ENDROOT
BRANCH   6   9
ATOM      9  C   UNL     1      45.294   3.747   9.372  0.00  0.00    +0.000 A 
ATOM     10  C   UNL     1      45.369   2.357   9.246  0.00  0.00    +0.000 A 
ATOM     11  C   UNL     1      46.024   1.798   8.151  0.00  0.00    +0.000 A 
ATOM     12  C   UNL     1      46.589   2.634   7.199  0.00  0.00    +0.000 A 
ATOM     13  C   UNL     1      46.471   4.000   7.383  0.00  0.00    +0.000 A 
ATOM     14  N   UNL     1      45.846   4.570   8.437  0.00  0.00    +0.000 NA
ENDBRANCH   6   9
BRANCH   1  15
ATOM     15  C   UNL     1      47.150   5.782  13.427  0.00  0.00    +0.000 C 
BRANCH  15  21
ATOM     16  C   UNL     1      49.119   7.211  14.168  0.00  0.00    +0.000 A 
ATOM     17  N   UNL     1      50.133   8.116  13.981  0.00  0.00    +0.000 NA
ATOM     18  C   UNL     1      50.301   8.600  12.735  0.00  0.00    +0.000 A 
ATOM     19  C   UNL     1      49.511   8.239  11.661  0.00  0.00    +0.000 A 
ATOM     20  C   UNL     1      48.479   7.329  11.875  0.00  0.00    +0.000 A 
ATOM     21  C   UNL     1      48.254   6.783  13.149  0.00  0.00    +0.000 A 
BRANCH  16  23
ATOM     22  N   UNL     1      48.320   7.540  16.443  0.00  0.00    +0.000 N 
ATOM     23  C   UNL     1      49.008   6.717  15.592  0.00  0.00    +0.000 C 
ATOM     24  O   UNL     1      49.486   5.665  15.997  0.00  0.00    +0.000 OA
ATOM     25  H   UNL     1      48.168   7.255  17.398  0.00  0.00    +0.000 HD
ATOM     26  H   UNL     1      47.916   8.399  16.084  0.00  0.00    +0.000 HD
ENDBRANCH  16  23
ENDBRANCH  15  21
ENDBRANCH   1  15
TORSDOF 4
ENDMDL
MODEL 4
REMARK VINA RESULT:    -7.590      2.729      3.502
REMARK INTER + INTRA:         -10.073
REMARK INTER:                  -9.404
REMARK INTRA:                  -0.670
REMARK UNBOUND:                -0.709
REMARK  Name = 
REMARK  4 active torsions:
REMARK  status: ('A' for Active; 'I' for Inactive)
REMARK    1  A    between atoms: C_2  and  C_4
REMARK    2  A    between atoms: C_9  and  C_10
REMARK    3  A    between atoms: C_10  and  N_11
REMARK    4  A    between atoms: C_16  and  C_17
REMARK                            x       y       z     vdW  Elec       q    Type
REMARK                         _______ _______ _______ _____ _____    ______ ____
ROOT
ATOM      1  N   UNL     1      45.819   5.837  13.716  0.00  0.00    +0.000 N 
ATOM      2  C   UNL     1      44.938   5.332  12.735  0.00  0.00    +0.000 A 
ATOM      3  C   UNL     1      43.588   5.638  12.844  0.00  0.00    +0.000 A 
ATOM      4  C   UNL     1      42.715   5.215  11.850  0.00  0.00    +0.000 A 
ATOM      5  C   UNL     1      43.224   4.545  10.742  0.00  0.00    +0.000 A 
ATOM      6  C   UNL     1      44.595   4.313  10.660  0.00  0.00    +0.000 A 
ATOM      7  N   UNL     1      45.437   4.700  11.658  0.00  0.00    +0.000 NA
ATOM      8  H   UNL     1      46.045   6.775  13.394  0.00  0.00    +0.000 HD
ENDROOT
BRANCH   6   9
ATOM      9  C   UNL     1      45.225   3.681   9.476  0.00  0.00    +0.000 A 
ATOM     10  C   UNL     1      45.321   2.294   9.340  0.00  0.00    +0.000 A 
ATOM     11  C   UNL     1      45.961   1.752   8.228  0.00  0.00    +0.000 A 
ATOM     12  C   UNL     1      46.491   2.602   7.269  0.00  0.00    +0.000 A 
ATOM     13  C   UNL     1      46.354   3.965   7.463  0.00  0.00    +0.000 A 
ATOM     14  N   UNL     1      45.742   4.519   8.533  0.00  0.00    +0.000 NA
ENDBRANCH   6   9
BRANCH   1  15
ATOM     15  C   UNL     1      47.044   5.030  13.824  0.00  0.00    +0.000 C 
BRANCH  15  21
ATOM     16  C   UNL     1      48.326   5.732  15.905  0.00  0.00    +0.000 A 
ATOM     17  N   UNL     1      48.753   5.597  17.201  0.00  0.00    +0.000 NA
ATOM     18  C   UNL     1      48.304   4.528  17.886  0.00  0.00    +0.000 A 
ATOM     19  C   UNL     1      47.457   3.577  17.352  0.00  0.00    +0.000 A 
ATOM     20  C   UNL     1      47.045   3.726  16.030  0.00  0.00    +0.000 A 
ATOM     21  C   UNL     1      47.473   4.821  15.263  0.00  0.00    +0.000 A 
BRANCH  16  23
ATOM     22  N   UNL     1      48.169   8.115  15.437  0.00  0.00    +0.000 N 
ATOM     23  C   UNL     1      48.873   6.961  15.216  0.00  0.00    +0.000 C 
ATOM     24  O   UNL     1      49.869   6.969  14.504  0.00  0.00    +0.000 OA
ATOM     25  H   UNL     1      48.499   8.983  15.045  0.00  0.00    +0.000 HD
ATOM     26  H   UNL     1      47.356   8.091  16.044  0.00  0.00    +0.000 HD
ENDBRANCH  16  23
ENDBRANCH  15  21
ENDBRANCH   1  15
TORSDOF 4
ENDMDL
MODEL 5
REMARK VINA RESULT:    -7.332      3.045      7.203
REMARK INTER + INTRA:          -9.755
REMARK INTER:                  -9.091
REMARK INTRA:                  -0.664
REMARK UNBOUND:                -0.709
REMARK  Name = 
REMARK  4 active torsions:
REMARK  status: ('A' for Active; 'I' for Inactive)
REMARK    1  A    between atoms: C_2  and  C_4
REMARK    2  A    between atoms: C_9  and  C_10
REMARK    3  A    between atoms: C_10  and  N_11
REMARK    4  A    between atoms: C_16  and  C_17
REMARK                            x       y       z     vdW  Elec       q    Type
REMARK                         _______ _______ _______ _____ _____    ______ ____
ROOT
ATOM      1  N   UNL     1      45.678   6.897  11.173  0.00  0.00    +0.000 N 
ATOM      2  C   UNL     1      46.878   6.880  11.917  0.00  0.00    +0.000 A 
ATOM      3  C   UNL     1      47.925   7.689  11.495  0.00  0.00    +0.000 A 
ATOM      4  C   UNL     1      49.086   7.745  12.255  0.00  0.00    +0.000 A 
ATOM      5  C   UNL     1      49.151   7.031  13.447  0.00  0.00    +0.000 A 
ATOM      6  C   UNL     1      48.049   6.279  13.848  0.00  0.00    +0.000 A 
ATOM      7  N   UNL     1      46.929   6.202  13.078  0.00  0.00    +0.000 NA
ATOM      8  H   UNL     1      45.162   7.692  11.544  0.00  0.00    +0.000 HD
ENDROOT
BRANCH   6   9
ATOM      9  C   UNL     1      48.006   5.559  15.144  0.00  0.00    +0.000 A 
ATOM     10  C   UNL     1      48.531   6.111  16.316  0.00  0.00    +0.000 A 
ATOM     11  C   UNL     1      48.503   5.375  17.498  0.00  0.00    +0.000 A 
ATOM     12  C   UNL     1      47.949   4.103  17.492  0.00  0.00    +0.000 A 
ATOM     13  C   UNL     1      47.442   3.621  16.298  0.00  0.00    +0.000 A 
ATOM     14  N   UNL     1      47.459   4.311  15.136  0.00  0.00    +0.000 NA
ENDBRANCH   6   9
BRANCH   1  15
ATOM     15  C   UNL     1      44.901   5.661  11.351  0.00  0.00    +0.000 C 
BRANCH  15  21
ATOM     16  C   UNL     1      44.733   3.329  10.353  0.00  0.00    +0.000 A 
ATOM     17  N   UNL     1      44.913   2.383   9.376  0.00  0.00    +0.000 NA
ATOM     18  C   UNL     1      45.494   2.788   8.231  0.00  0.00    +0.000 A 
ATOM     19  C   UNL     1      45.914   4.084   8.002  0.00  0.00    +0.000 A 
ATOM     20  C   UNL     1      45.732   5.026   9.011  0.00  0.00    +0.000 A 
ATOM     21  C   UNL     1      45.128   4.669  10.228  0.00  0.00    +0.000 A 
BRANCH  16  23
ATOM     22  N   UNL     1      44.857   2.769  12.718  0.00  0.00    +0.000 N 
ATOM     23  C   UNL     1      44.069   2.788  11.599  0.00  0.00    +0.000 C 
ATOM     24  O   UNL     1      42.913   2.385  11.647  0.00  0.00    +0.000 OA
ATOM     25  H   UNL     1      44.468   2.462  13.597  0.00  0.00    +0.000 HD
ATOM     26  H   UNL     1      45.806   3.124  12.663  0.00  0.00    +0.000 HD
ENDBRANCH  16  23
ENDBRANCH  15  21
ENDBRANCH   1  15
TORSDOF 4
ENDMDL
MODEL 6
REMARK VINA RESULT:    -7.176      4.549      8.225
REMARK INTER + INTRA:          -9.563
REMARK INTER:                  -8.147
REMARK INTRA:                  -1.416
REMARK UNBOUND:                -0.709
REMARK  Name = 
REMARK  4 active torsions:
REMARK  status: ('A' for Active; 'I' for Inactive)
REMARK    1  A    between atoms: C_2  and  C_4
REMARK    2  A    between atoms: C_9  and  C_10
REMARK    3  A    between atoms: C_10  and  N_11
REMARK    4  A    between atoms: C_16  and  C_17
REMARK                            x       y       z     vdW  Elec       q    Type
REMARK                         _______ _______ _______ _____ _____    ______ ____
ROOT
ATOM      1  N   UNL     1      48.077   7.612  15.143  0.00  0.00    +0.000 N 
ATOM      2  C   UNL     1      49.025   7.269  16.131  0.00  0.00    +0.000 A 
ATOM      3  C   UNL     1      49.392   8.239  17.055  0.00  0.00    +0.000 A 
ATOM      4  C   UNL     1      50.266   7.901  18.081  0.00  0.00    +0.000 A 
ATOM      5  C   UNL     1      50.708   6.586  18.188  0.00  0.00    +0.000 A 
ATOM      6  C   UNL     1      50.264   5.643  17.264  0.00  0.00    +0.000 A 
ATOM      7  N   UNL     1      49.436   5.993  16.241  0.00  0.00    +0.000 NA
ATOM      8  H   UNL     1      47.177   7.467  15.595  0.00  0.00    +0.000 HD
ENDROOT
BRANCH   6   9
ATOM      9  C   UNL     1      50.621   4.207  17.358  0.00  0.00    +0.000 A 
ATOM     10  C   UNL     1      51.869   3.783  17.824  0.00  0.00    +0.000 A 
ATOM     11  C   UNL     1      52.168   2.423  17.853  0.00  0.00    +0.000 A 
ATOM     12  C   UNL     1      51.218   1.510  17.421  0.00  0.00    +0.000 A 
ATOM     13  C   UNL     1      50.002   1.998  16.979  0.00  0.00    +0.000 A 
ATOM     14  N   UNL     1      49.684   3.311  16.936  0.00  0.00    +0.000 NA
ENDBRANCH   6   9
BRANCH   1  15
ATOM     15  C   UNL     1      48.188   6.758  13.951  0.00  0.00    +0.000 C 
BRANCH  15  21
ATOM     16  C   UNL     1      46.255   5.123  13.716  0.00  0.00    +0.000 A 
ATOM     17  N   UNL     1      45.038   4.704  13.244  0.00  0.00    +0.000 NA
ATOM     18  C   UNL     1      44.368   5.550  12.438  0.00  0.00    +0.000 A 
ATOM     19  C   UNL     1      44.845   6.792  12.067  0.00  0.00    +0.000 A 
ATOM     20  C   UNL     1      46.088   7.194  12.547  0.00  0.00    +0.000 A 
ATOM     21  C   UNL     1      46.835   6.360  13.396  0.00  0.00    +0.000 A 
BRANCH  16  23
ATOM     22  N   UNL     1      46.814   4.361  15.959  0.00  0.00    +0.000 N 
ATOM     23  C   UNL     1      46.931   4.115  14.617  0.00  0.00    +0.000 C 
ATOM     24  O   UNL     1      47.548   3.136  14.217  0.00  0.00    +0.000 OA
ATOM     25  H   UNL     1      47.202   3.707  16.621  0.00  0.00    +0.000 HD
ATOM     26  H   UNL     1      46.283   5.168  16.271  0.00  0.00    +0.000 HD
ENDBRANCH  16  23
ENDBRANCH  15  21
ENDBRANCH   1  15
TORSDOF 4
ENDMDL
MODEL 7
REMARK VINA RESULT:    -7.028      4.053      6.684
REMARK INTER + INTRA:          -9.381
REMARK INTER:                  -8.053
REMARK INTRA:                  -1.328
REMARK UNBOUND:                -0.709
REMARK  Name = 
REMARK  4 active torsions:
REMARK  status: ('A' for Active; 'I' for Inactive)
REMARK    1  A    between atoms: C_2  and  C_4
REMARK    2  A    between atoms: C_9  and  C_10
REMARK    3  A    between atoms: C_10  and  N_11
REMARK    4  A    between atoms: C_16  and  C_17
REMARK                            x       y       z     vdW  Elec       q    Type
REMARK                         _______ _______ _______ _____ _____    ______ ____
ROOT
ATOM      1  N   UNL     1      49.409   6.889  15.224  0.00  0.00    +0.000 N 
ATOM      2  C   UNL     1      48.488   7.140  14.183  0.00  0.00    +0.000 A 
ATOM      3  C   UNL     1      48.785   8.142  13.270  0.00  0.00    +0.000 A 
ATOM      4  C   UNL     1      47.930   8.354  12.195  0.00  0.00    +0.000 A 
ATOM      5  C   UNL     1      46.829   7.521  12.032  0.00  0.00    +0.000 A 
ATOM      6  C   UNL     1      46.611   6.496  12.950  0.00  0.00    +0.000 A 
ATOM      7  N   UNL     1      47.434   6.320  14.020  0.00  0.00    +0.000 NA
ATOM      8  H   UNL     1      50.092   6.258  14.811  0.00  0.00    +0.000 HD
ENDROOT
BRANCH   6   9
ATOM      9  C   UNL     1      45.510   5.514  12.800  0.00  0.00    +0.000 A 
ATOM     10  C   UNL     1      44.170   5.872  12.970  0.00  0.00    +0.000 A 
ATOM     11  C   UNL     1      43.177   4.901  12.859  0.00  0.00    +0.000 A 
ATOM     12  C   UNL     1      43.537   3.592  12.577  0.00  0.00    +0.000 A 
ATOM     13  C   UNL     1      44.881   3.309  12.414  0.00  0.00    +0.000 A 
ATOM     14  N   UNL     1      45.866   4.229  12.519  0.00  0.00    +0.000 NA
ENDBRANCH   6   9
BRANCH   1  15
ATOM     15  C   UNL     1      48.770   6.254  16.386  0.00  0.00    +0.000 C 
BRANCH  15  21
ATOM     16  C   UNL     1      48.917   3.771  16.910  0.00  0.00    +0.000 A 
ATOM     17  N   UNL     1      49.548   2.630  17.338  0.00  0.00    +0.000 NA
ATOM     18  C   UNL     1      50.833   2.748  17.724  0.00  0.00    +0.000 A 
ATOM     19  C   UNL     1      51.529   3.941  17.714  0.00  0.00    +0.000 A 
ATOM     20  C   UNL     1      50.867   5.089  17.287  0.00  0.00    +0.000 A 
ATOM     21  C   UNL     1      49.528   5.033  16.867  0.00  0.00    +0.000 A 
BRANCH  16  23
ATOM     22  N   UNL     1      47.286   3.389  15.146  0.00  0.00    +0.000 N 
ATOM     23  C   UNL     1      47.482   3.544  16.492  0.00  0.00    +0.000 C 
ATOM     24  O   UNL     1      46.536   3.496  17.267  0.00  0.00    +0.000 OA
ATOM     25  H   UNL     1      46.360   3.191  14.797  0.00  0.00    +0.000 HD
ATOM     26  H   UNL     1      48.085   3.414  14.521  0.00  0.00    +0.000 HD
ENDBRANCH  16  23
ENDBRANCH  15  21
ENDBRANCH   1  15
TORSDOF 4
ENDMDL
MODEL 8
REMARK VINA RESULT:    -6.992      1.373      2.508
REMARK INTER + INTRA:          -9.335
REMARK INTER:                  -8.631
REMARK INTRA:                  -0.705
REMARK UNBOUND:                -0.709
REMARK  Name = 
REMARK  4 active torsions:
REMARK  status: ('A' for Active; 'I' for Inactive)
REMARK    1  A    between atoms: C_2  and  C_4
REMARK    2  A    between atoms: C_9  and  C_10
REMARK    3  A    between atoms: C_10  and  N_11
REMARK    4  A    between atoms: C_16  and  C_17
REMARK                            x       y       z     vdW  Elec       q    Type
REMARK                         _______ _______ _______ _____ _____    ______ ____
ROOT
ATOM      1  N   UNL     1      44.027   6.466  12.016  0.00  0.00    +0.000 N 
ATOM      2  C   UNL     1      44.079   5.110  11.623  0.00  0.00    +0.000 A 
ATOM      3  C   UNL     1      43.265   4.202  12.286  0.00  0.00    +0.000 A 
ATOM      4  C   UNL     1      43.245   2.878  11.866  0.00  0.00    +0.000 A 
ATOM      5  C   UNL     1      43.999   2.508  10.757  0.00  0.00    +0.000 A 
ATOM      6  C   UNL     1      44.755   3.475  10.098  0.00  0.00    +0.000 A 
ATOM      7  N   UNL     1      44.796   4.762  10.540  0.00  0.00    +0.000 NA
ATOM      8  H   UNL     1      43.241   6.850  11.496  0.00  0.00    +0.000 HD
ENDROOT
BRANCH   6   9
ATOM      9  C   UNL     1      45.518   3.181   8.861  0.00  0.00    +0.000 A 
ATOM     10  C   UNL     1      45.927   1.885   8.533  0.00  0.00    +0.000 A 
ATOM     11  C   UNL     1      46.678   1.669   7.380  0.00  0.00    +0.000 A 
ATOM     12  C   UNL     1      47.006   2.748   6.573  0.00  0.00    +0.000 A 
ATOM     13  C   UNL     1      46.564   4.002   6.953  0.00  0.00    +0.000 A 
ATOM     14  N   UNL     1      45.837   4.242   8.067  0.00  0.00    +0.000 NA
ENDBRANCH   6   9
BRANCH   1  15
ATOM     15  C   UNL     1      45.261   7.188  11.673  0.00  0.00    +0.000 C 
BRANCH  15  21
ATOM     16  C   UNL     1      45.996   9.594  12.035  0.00  0.00    +0.000 A 
ATOM     17  N   UNL     1      45.856  10.957  11.962  0.00  0.00    +0.000 NA
ATOM     18  C   UNL     1      44.736  11.428  11.382  0.00  0.00    +0.000 A 
ATOM     19  C   UNL     1      43.739  10.619  10.873  0.00  0.00    +0.000 A 
ATOM     20  C   UNL     1      43.895   9.238  10.967  0.00  0.00    +0.000 A 
ATOM     21  C   UNL     1      45.043   8.683  11.557  0.00  0.00    +0.000 A 
BRANCH  16  23
ATOM     22  N   UNL     1      48.372   9.093  11.864  0.00  0.00    +0.000 N 
ATOM     23  C   UNL     1      47.284   9.157  12.694  0.00  0.00    +0.000 C 
ATOM     24  O   UNL     1      47.391   8.870  13.880  0.00  0.00    +0.000 OA
ATOM     25  H   UNL     1      49.274   8.851  12.243  0.00  0.00    +0.000 HD
ATOM     26  H   UNL     1      48.267   9.352  10.889  0.00  0.00    +0.000 HD
ENDBRANCH  16  23
ENDBRANCH  15  21
ENDBRANCH   1  15
TORSDOF 4
ENDMDL
MODEL 9
REMARK VINA RESULT:    -6.764      5.167      8.203
REMARK INTER + INTRA:          -9.055
REMARK INTER:                  -8.323
REMARK INTRA:                  -0.732
REMARK UNBOUND:                -0.709
REMARK  Name = 
REMARK  4 active torsions:
REMARK  status: ('A' for Active; 'I' for Inactive)
REMARK    1  A    between atoms: C_2  and  C_4
REMARK    2  A    between atoms: C_9  and  C_10
REMARK    3  A    between atoms: C_10  and  N_11
REMARK    4  A    between atoms: C_16  and  C_17
REMARK                            x       y       z     vdW  Elec       q    Type
REMARK                         _______ _______ _______ _____ _____    ______ ____
ROOT
ATOM      1  N   UNL     1      46.606   4.240  15.831  0.00  0.00    +0.000 N 
ATOM      2  C   UNL     1      47.563   4.456  16.847  0.00  0.00    +0.000 A 
ATOM      3  C   UNL     1      47.196   5.229  17.941  0.00  0.00    +0.000 A 
ATOM      4  C   UNL     1      48.096   5.391  18.987  0.00  0.00    +0.000 A 
ATOM      5  C   UNL     1      49.319   4.730  18.937  0.00  0.00    +0.000 A 
ATOM      6  C   UNL     1      49.610   3.923  17.840  0.00  0.00    +0.000 A 
ATOM      7  N   UNL     1      48.736   3.800  16.803  0.00  0.00    +0.000 NA
ATOM      8  H   UNL     1      46.061   3.447  16.160  0.00  0.00    +0.000 HD
ENDROOT
BRANCH   6   9
ATOM      9  C   UNL     1      50.853   3.119  17.751  0.00  0.00    +0.000 A 
ATOM     10  C   UNL     1      50.838   1.771  17.383  0.00  0.00    +0.000 A 
ATOM     11  C   UNL     1      52.030   1.051  17.356  0.00  0.00    +0.000 A 
ATOM     12  C   UNL     1      53.215   1.688  17.691  0.00  0.00    +0.000 A 
ATOM     13  C   UNL     1      53.158   3.025  18.038  0.00  0.00    +0.000 A 
ATOM     14  N   UNL     1      52.017   3.749  18.077  0.00  0.00    +0.000 NA
ENDBRANCH   6   9
BRANCH   1  15
ATOM     15  C   UNL     1      47.235   3.921  14.540  0.00  0.00    +0.000 C 
BRANCH  15  21
ATOM     16  C   UNL     1      45.823   4.894  12.664  0.00  0.00    +0.000 A 
ATOM     17  N   UNL     1      45.518   5.811  11.691  0.00  0.00    +0.000 NA
ATOM     18  C   UNL     1      46.363   6.849  11.539  0.00  0.00    +0.000 A 
ATOM     19  C   UNL     1      47.503   7.025  12.299  0.00  0.00    +0.000 A 
ATOM     20  C   UNL     1      47.800   6.076  13.274  0.00  0.00    +0.000 A 
ATOM     21  C   UNL     1      46.957   4.973  13.486  0.00  0.00    +0.000 A 
BRANCH  16  23
ATOM     22  N   UNL     1      45.084   2.677  11.986  0.00  0.00    +0.000 N 
ATOM     23  C   UNL     1      44.818   3.769  12.767  0.00  0.00    +0.000 C 
ATOM     24  O   UNL     1      43.825   3.794  13.484  0.00  0.00    +0.000 OA
ATOM     25  H   UNL     1      44.481   1.870  12.035  0.00  0.00    +0.000 HD
ATOM     26  H   UNL     1      45.921   2.669  11.412  0.00  0.00    +0.000 HD
ENDBRANCH  16  23
ENDBRANCH  15  21
ENDBRANCH   1  15
TORSDOF 4
ENDMDL
