MODEL 1
REMARK VINA RESULT:    -8.014      0.000      0.000
REMARK INTER + INTRA:         -11.456
REMARK INTER:                 -10.356
REMARK INTRA:                  -1.100
REMARK UNBOUND:                -1.100
REMARK  Name = 
REMARK  8 active torsions:
REMARK  status: ('A' for Active; 'I' for Inactive)
REMARK    1  A    between atoms: C_1  and  C_2
REMARK    2  A    between atoms: N_4  and  C_5
REMARK    3  A    between atoms: C_9  and  C_10
REMARK    4  A    between atoms: C_10  and  C_11
REMARK    5  A    between atoms: C_10  and  C_12
REMARK    6  A    between atoms: C_12  and  N_13
REMARK    7  A    between atoms: C_17  and  C_18
REMARK    8  A    between atoms: C_25  and  C_26
REMARK                            x       y       z     vdW  Elec       q    Type
REMARK                         _______ _______ _______ _____ _____    ______ ____
ROOT
ATOM      1  C   UNL     1      43.376   5.309  12.174  0.00  0.00    +0.000 C 
ATOM      2  C   UNL     1      42.908   6.731  11.844  0.00  0.00    +0.000 C 
ENDROOT
BRANCH   1   7
ATOM      3  C   UNL     1      46.812   6.711  13.217  0.00  0.00    +0.000 A 
ATOM      4  C   UNL     1      47.430   5.541  13.677  0.00  0.00    +0.000 A 
ATOM      5  C   UNL     1      46.787   4.301  13.634  0.00  0.00    +0.000 A 
ATOM      6  C   UNL     1      45.491   4.198  13.137  0.00  0.00    +0.000 A 
ATOM      7  C   UNL     1      44.810   5.341  12.701  0.00  0.00    +0.000 A 
ATOM      8  C   UNL     1      45.496   6.571  12.736  0.00  0.00    +0.000 A 
BRANCH   3  12
ATOM      9  C   UNL     1      50.298   7.685  14.726  0.00  0.00    +0.000 C 
ATOM     10  C   UNL     1      49.434   8.909  14.405  0.00  0.00    +0.000 C 
ATOM     11  C   UNL     1      47.916   8.569  14.477  0.00  0.00    +0.000 C 
ATOM     12  N   UNL     1      47.459   7.931  13.233  0.00  0.00    +0.000 N 
ATOM     13  C   UNL     1      47.787   8.677  12.013  0.00  0.00    +0.000 C 
ATOM     14  C   UNL     1      49.307   8.969  11.929  0.00  0.00    +0.000 C 
ATOM     15  C   UNL     1      50.108   7.744  11.483  0.00  0.00    +0.000 C 
ATOM     16  N   UNL     1      49.864   9.591  13.157  0.00  0.00    +0.000 NA
ATOM     17  H   UNL     1      49.476  10.536  13.200  0.00  0.00    +0.000 HD
ENDBRANCH   3  12
ENDBRANCH   1   7
BRANCH   1  18
ATOM     18  C   UNL     1      43.202   4.333  10.987  0.00  0.00    +0.000 C 
BRANCH  18  19
ATOM     19  N   UNL     1      43.831   4.829   9.752  0.00  0.00    +0.000 N 
ATOM     20  C   UNL     1      44.649   3.854   9.133  0.00  0.00    +0.000 A 
ATOM     21  C   UNL     1      45.344   4.211   7.980  0.00  0.00    +0.000 A 
ATOM     22  C   UNL     1      46.163   3.275   7.353  0.00  0.00    +0.000 A 
ATOM     23  C   UNL     1      46.253   2.012   7.910  0.00  0.00    +0.000 A 
ATOM     24  N   UNL     1      45.567   1.670   9.023  0.00  0.00    +0.000 NA
ATOM     25  N   UNL     1      44.756   2.599   9.622  0.00  0.00    +0.000 NA
ATOM     26  H   UNL     1      44.410   5.647   9.920  0.00  0.00    +0.000 HD
BRANCH  23  27
ATOM     27  C   UNL     1      47.123   0.963   7.316  0.00  0.00    +0.000 C 
ATOM     28  N   UNL     1      46.802  -0.333   7.620  0.00  0.00    +0.000 N 
ATOM     29  O   UNL     1      48.082   1.237   6.601  0.00  0.00    +0.000 OA
ATOM     30  H   UNL     1      46.006  -0.546   8.211  0.00  0.00    +0.000 HD
ATOM     31  H   UNL     1      47.367  -1.082   7.248  0.00  0.00    +0.000 HD
ENDBRANCH  23  27
ENDBRANCH  18  19
ENDBRANCH   1  18
TORSDOF 5
ENDMDL
MODEL 2
REMARK VINA RESULT:    -7.683      1.421      2.142
REMARK INTER + INTRA:         -11.028
REMARK INTER:                 -10.218
REMARK INTRA:                  -0.811
REMARK UNBOUND:                -1.100
REMARK  Name = 
REMARK  8 active torsions:
REMARK  status: ('A' for Active; 'I' for Inactive)
REMARK    1  A    between atoms: C_1  and  C_2
REMARK    2  A    between atoms: N_4  and  C_5
REMARK    3  A    between atoms: C_9  and  C_10
REMARK    4  A    between atoms: C_10  and  C_11
REMARK    5  A    between atoms: C_10  and  C_12
REMARK    6  A    between atoms: C_12  and  N_13
REMARK    7  A    between atoms: C_17  and  C_18
REMARK    8  A    between atoms: C_25  and  C_26
REMARK                            x       y       z     vdW  Elec       q    Type
REMARK                         _______ _______ _______ _____ _____    ______ ____
ROOT
ATOM      1  C   UNL     1      43.797   6.315  11.609  0.00  0.00    +0.000 C 
ATOM      2  C   UNL     1      43.800   7.837  11.416  0.00  0.00    +0.000 C 
ENDROOT
BRANCH   1   7
ATOM      3  C   UNL     1      47.425   6.338  12.914  0.00  0.00    +0.000 A 
ATOM      4  C   UNL     1      47.392   5.223  13.762  0.00  0.00    +0.000 A 
ATOM      5  C   UNL     1      46.244   4.439  13.906  0.00  0.00    +0.000 A 
ATOM      6  C   UNL     1      45.082   4.759  13.209  0.00  0.00    +0.000 A 
ATOM      7  C   UNL     1      45.046   5.885  12.379  0.00  0.00    +0.000 A 
ATOM      8  C   UNL     1      46.228   6.640  12.238  0.00  0.00    +0.000 A 
BRANCH   3  12
ATOM      9  C   UNL     1      47.824  10.079  11.807  0.00  0.00    +0.000 C 
ATOM     10  C   UNL     1      49.141   9.299  11.731  0.00  0.00    +0.000 C 
ATOM     11  C   UNL     1      48.891   7.781  11.491  0.00  0.00    +0.000 C 
ATOM     12  N   UNL     1      48.568   7.094  12.751  0.00  0.00    +0.000 N 
ATOM     13  C   UNL     1      49.538   7.318  13.829  0.00  0.00    +0.000 C 
ATOM     14  C   UNL     1      49.743   8.831  14.090  0.00  0.00    +0.000 C 
ATOM     15  C   UNL     1      48.596   9.441  14.898  0.00  0.00    +0.000 C 
ATOM     16  N   UNL     1      50.049   9.613  12.865  0.00  0.00    +0.000 NA
ATOM     17  H   UNL     1      50.984   9.327  12.569  0.00  0.00    +0.000 HD
ENDBRANCH   3  12
ENDBRANCH   1   7
BRANCH   1  18
ATOM     18  C   UNL     1      43.627   5.546  10.279  0.00  0.00    +0.000 C 
BRANCH  18  19
ATOM     19  N   UNL     1      43.943   4.115  10.409  0.00  0.00    +0.000 N 
ATOM     20  C   UNL     1      44.829   3.662   9.403  0.00  0.00    +0.000 A 
ATOM     21  C   UNL     1      45.170   2.312   9.382  0.00  0.00    +0.000 A 
ATOM     22  C   UNL     1      46.034   1.836   8.398  0.00  0.00    +0.000 A 
ATOM     23  C   UNL     1      46.522   2.738   7.470  0.00  0.00    +0.000 A 
ATOM     24  N   UNL     1      46.195   4.048   7.503  0.00  0.00    +0.000 NA
ATOM     25  N   UNL     1      45.353   4.504   8.485  0.00  0.00    +0.000 NA
ATOM     26  H   UNL     1      43.111   3.533  10.363  0.00  0.00    +0.000 HD
BRANCH  23  27
ATOM     27  C   UNL     1      47.429   2.307   6.374  0.00  0.00    +0.000 C 
ATOM     28  N   UNL     1      47.413   3.072   5.238  0.00  0.00    +0.000 N 
ATOM     29  O   UNL     1      48.148   1.317   6.471  0.00  0.00    +0.000 OA
ATOM     30  H   UNL     1      46.815   3.889   5.170  0.00  0.00    +0.000 HD
ATOM     31  H   UNL     1      48.006   2.816   4.461  0.00  0.00    +0.000 HD
ENDBRANCH  23  27
ENDBRANCH  18  19
ENDBRANCH   1  18
TORSDOF 5
ENDMDL
MODEL 3
REMARK VINA RESULT:    -7.524      1.694      2.432
REMARK INTER + INTRA:         -10.823
REMARK INTER:                  -9.940
REMARK INTRA:                  -0.883
REMARK UNBOUND:                -1.100
REMARK  Name = 
REMARK  8 active torsions:
REMARK  status: ('A' for Active; 'I' for Inactive)
REMARK    1  A    between atoms: C_1  and  C_2
REMARK    2  A    between atoms: N_4  and  C_5
REMARK    3  A    between atoms: C_9  and  C_10
REMARK    4  A    between atoms: C_10  and  C_11
REMARK    5  A    between atoms: C_10  and  C_12
REMARK    6  A    between atoms: C_12  and  N_13
REMARK    7  A    between atoms: C_17  and  C_18
REMARK    8  A    between atoms: C_25  and  C_26
REMARK                            x       y       z     vdW  Elec       q    Type
REMARK                         _______ _______ _______ _____ _____    ______ ____
ROOT
ATOM      1  C   UNL     1      44.223   5.595  11.863  0.00  0.00    +0.000 C 
ATOM      2  C   UNL     1      43.193   5.369  12.977  0.00  0.00    +0.000 C 
ENDROOT
BRANCH   1   7
ATOM      3  C   UNL     1      46.248   8.838  12.348  0.00  0.00    +0.000 A 
ATOM      4  C   UNL     1      45.415   9.754  11.693  0.00  0.00    +0.000 A 
ATOM      5  C   UNL     1      44.198   9.368  11.124  0.00  0.00    +0.000 A 
ATOM      6  C   UNL     1      43.785   8.040  11.183  0.00  0.00    +0.000 A 
ATOM      7  C   UNL     1      44.596   7.075  11.789  0.00  0.00    +0.000 A 
ATOM      8  C   UNL     1      45.805   7.503  12.374  0.00  0.00    +0.000 A 
BRANCH   3  12
ATOM      9  C   UNL     1      48.807   6.749  14.461  0.00  0.00    +0.000 C 
ATOM     10  C   UNL     1      49.028   8.260  14.596  0.00  0.00    +0.000 C 
ATOM     11  C   UNL     1      47.706   9.050  14.370  0.00  0.00    +0.000 C 
ATOM     12  N   UNL     1      47.436   9.227  12.935  0.00  0.00    +0.000 N 
ATOM     13  C   UNL     1      48.549   9.807  12.175  0.00  0.00    +0.000 C 
ATOM     14  C   UNL     1      49.848   8.985  12.371  0.00  0.00    +0.000 C 
ATOM     15  C   UNL     1      49.853   7.702  11.537  0.00  0.00    +0.000 C 
ATOM     16  N   UNL     1      50.186   8.733  13.795  0.00  0.00    +0.000 NA
ATOM     17  H   UNL     1      50.455   9.637  14.189  0.00  0.00    +0.000 HD
ENDBRANCH   3  12
ENDBRANCH   1   7
BRANCH   1  18
ATOM     18  C   UNL     1      43.757   5.033  10.499  0.00  0.00    +0.000 C 
BRANCH  18  19
ATOM     19  N   UNL     1      44.013   3.590  10.365  0.00  0.00    +0.000 N 
ATOM     20  C   UNL     1      44.922   3.296   9.321  0.00  0.00    +0.000 A 
ATOM     21  C   UNL     1      45.213   1.961   9.055  0.00  0.00    +0.000 A 
ATOM     22  C   UNL     1      46.098   1.640   8.029  0.00  0.00    +0.000 A 
ATOM     23  C   UNL     1      46.658   2.678   7.306  0.00  0.00    +0.000 A 
ATOM     24  N   UNL     1      46.380   3.972   7.577  0.00  0.00    +0.000 NA
ATOM     25  N   UNL     1      45.516   4.272   8.598  0.00  0.00    +0.000 NA
ATOM     26  H   UNL     1      43.163   3.066  10.181  0.00  0.00    +0.000 HD
BRANCH  23  27
ATOM     27  C   UNL     1      47.593   2.421   6.179  0.00  0.00    +0.000 C 
ATOM     28  N   UNL     1      47.413   3.184   5.056  0.00  0.00    +0.000 N 
ATOM     29  O   UNL     1      48.474   1.569   6.241  0.00  0.00    +0.000 OA
ATOM     30  H   UNL     1      46.681   3.886   5.017  0.00  0.00    +0.000 HD
ATOM     31  H   UNL     1      48.017   3.042   4.259  0.00  0.00    +0.000 HD
ENDBRANCH  23  27
ENDBRANCH  18  19
ENDBRANCH   1  18
TORSDOF 5
ENDMDL
MODEL 4
REMARK VINA RESULT:    -7.388      3.270      7.580
REMARK INTER + INTRA:         -10.648
REMARK INTER:                  -9.226
REMARK INTRA:                  -1.421
REMARK UNBOUND:                -1.100
REMARK  Name = 
REMARK  8 active torsions:
REMARK  status: ('A' for Active; 'I' for Inactive)
REMARK    1  A    between atoms: C_1  and  C_2
REMARK    2  A    between atoms: N_4  and  C_5
REMARK    3  A    between atoms: C_9  and  C_10
REMARK    4  A    between atoms: C_10  and  C_11
REMARK    5  A    between atoms: C_10  and  C_12
REMARK    6  A    between atoms: C_12  and  N_13
REMARK    7  A    between atoms: C_17  and  C_18
REMARK    8  A    between atoms: C_25  and  C_26
REMARK                            x       y       z     vdW  Elec       q    Type
REMARK                         _______ _______ _______ _____ _____    ______ ____
ROOT
ATOM      1  C   UNL     1      49.055   8.284  11.646  0.00  0.00    +0.000 C 
ATOM      2  C   UNL     1      49.588   9.693  11.938  0.00  0.00    +0.000 C 
ENDROOT
BRANCH   1   7
ATOM      3  C   UNL     1      45.417   7.018  11.524  0.00  0.00    +0.000 A 
ATOM      4  C   UNL     1      44.778   8.019  12.266  0.00  0.00    +0.000 A 
ATOM      5  C   UNL     1      45.477   9.114  12.782  0.00  0.00    +0.000 A 
ATOM      6  C   UNL     1      46.849   9.231  12.579  0.00  0.00    +0.000 A 
ATOM      7  C   UNL     1      47.545   8.239  11.879  0.00  0.00    +0.000 A 
ATOM      8  C   UNL     1      46.806   7.161  11.352  0.00  0.00    +0.000 A 
BRANCH   3  12
ATOM      9  C   UNL     1      45.588   3.203  12.419  0.00  0.00    +0.000 C 
ATOM     10  C   UNL     1      44.881   3.463  11.085  0.00  0.00    +0.000 C 
ATOM     11  C   UNL     1      45.389   4.774  10.417  0.00  0.00    +0.000 C 
ATOM     12  N   UNL     1      44.720   5.951  10.990  0.00  0.00    +0.000 N 
ATOM     13  C   UNL     1      43.254   5.877  10.987  0.00  0.00    +0.000 C 
ATOM     14  C   UNL     1      42.759   4.591  11.696  0.00  0.00    +0.000 C 
ATOM     15  C   UNL     1      42.822   4.708  13.220  0.00  0.00    +0.000 C 
ATOM     16  N   UNL     1      43.404   3.349  11.198  0.00  0.00    +0.000 NA
ATOM     17  H   UNL     1      43.055   3.207  10.248  0.00  0.00    +0.000 HD
ENDBRANCH   3  12
ENDBRANCH   1   7
BRANCH   1  18
ATOM     18  C   UNL     1      49.809   7.187  12.434  0.00  0.00    +0.000 C 
BRANCH  18  19
ATOM     19  N   UNL     1      50.074   7.573  13.829  0.00  0.00    +0.000 N 
ATOM     20  C   UNL     1      49.353   6.783  14.755  0.00  0.00    +0.000 A 
ATOM     21  C   UNL     1      49.475   7.078  16.111  0.00  0.00    +0.000 A 
ATOM     22  C   UNL     1      48.771   6.322  17.045  0.00  0.00    +0.000 A 
ATOM     23  C   UNL     1      47.969   5.296  16.580  0.00  0.00    +0.000 A 
ATOM     24  N   UNL     1      47.865   5.008  15.265  0.00  0.00    +0.000 NA
ATOM     25  N   UNL     1      48.573   5.754  14.357  0.00  0.00    +0.000 NA
ATOM     26  H   UNL     1      49.833   8.544  14.009  0.00  0.00    +0.000 HD
BRANCH  23  27
ATOM     27  C   UNL     1      47.167   4.457  17.510  0.00  0.00    +0.000 C 
ATOM     28  N   UNL     1      47.054   4.917  18.795  0.00  0.00    +0.000 N 
ATOM     29  O   UNL     1      46.641   3.407  17.155  0.00  0.00    +0.000 OA
ATOM     30  H   UNL     1      47.492   5.788  19.076  0.00  0.00    +0.000 HD
ATOM     31  H   UNL     1      46.526   4.379  19.468  0.00  0.00    +0.000 HD
ENDBRANCH  23  27
ENDBRANCH  18  19
ENDBRANCH   1  18
TORSDOF 5
ENDMDL
MODEL 5
REMARK VINA RESULT:    -7.334      3.414      4.513
REMARK INTER + INTRA:         -10.577
REMARK INTER:                  -9.738
REMARK INTRA:                  -0.839
REMARK UNBOUND:                -1.100
REMARK  Name = 
REMARK  8 active torsions:
REMARK  status: ('A' for Active; 'I' for Inactive)
REMARK    1  A    between atoms: C_1  and  C_2
REMARK    2  A    between atoms: N_4  and  C_5
REMARK    3  A    between atoms: C_9  and  C_10
REMARK    4  A    between atoms: C_10  and  C_11
REMARK    5  A    between atoms: C_10  and  C_12
REMARK    6  A    between atoms: C_12  and  N_13
REMARK    7  A    between atoms: C_17  and  C_18
REMARK    8  A    between atoms: C_25  and  C_26
REMARK                            x       y       z     vdW  Elec       q    Type
REMARK                         _______ _______ _______ _____ _____    ______ ____
ROOT
ATOM      1  C   UNL     1      44.516   5.627  11.951  0.00  0.00    +0.000 C 
ATOM      2  C   UNL     1      43.636   5.451  13.195  0.00  0.00    +0.000 C 
ENDROOT
BRANCH   1   7
ATOM      3  C   UNL     1      44.638   9.440  11.398  0.00  0.00    +0.000 A 
ATOM      4  C   UNL     1      45.953   9.709  11.799  0.00  0.00    +0.000 A 
ATOM      5  C   UNL     1      46.820   8.694  12.213  0.00  0.00    +0.000 A 
ATOM      6  C   UNL     1      46.386   7.372  12.252  0.00  0.00    +0.000 A 
ATOM      7  C   UNL     1      45.070   7.051  11.901  0.00  0.00    +0.000 A 
ATOM      8  C   UNL     1      44.230   8.095  11.465  0.00  0.00    +0.000 A 
BRANCH   3  12
ATOM      9  C   UNL     1      45.476  12.891   9.732  0.00  0.00    +0.000 C 
ATOM     10  C   UNL     1      44.031  12.817  10.238  0.00  0.00    +0.000 C 
ATOM     11  C   UNL     1      43.896  11.829  11.434  0.00  0.00    +0.000 C 
ATOM     12  N   UNL     1      43.792  10.440  10.961  0.00  0.00    +0.000 N 
ATOM     13  C   UNL     1      42.746  10.218   9.957  0.00  0.00    +0.000 C 
ATOM     14  C   UNL     1      42.918  11.175   8.750  0.00  0.00    +0.000 C 
ATOM     15  C   UNL     1      44.027  10.717   7.801  0.00  0.00    +0.000 C 
ATOM     16  N   UNL     1      43.058  12.602   9.135  0.00  0.00    +0.000 NA
ATOM     17  H   UNL     1      42.148  12.892   9.498  0.00  0.00    +0.000 HD
ENDBRANCH   3  12
ENDBRANCH   1   7
BRANCH   1  18
ATOM     18  C   UNL     1      43.788   5.229  10.646  0.00  0.00    +0.000 C 
BRANCH  18  19
ATOM     19  N   UNL     1      43.846   3.781  10.386  0.00  0.00    +0.000 N 
ATOM     20  C   UNL     1      44.787   3.448   9.384  0.00  0.00    +0.000 A 
ATOM     21  C   UNL     1      44.905   2.113   9.006  0.00  0.00    +0.000 A 
ATOM     22  C   UNL     1      45.817   1.756   8.016  0.00  0.00    +0.000 A 
ATOM     23  C   UNL     1      46.578   2.758   7.441  0.00  0.00    +0.000 A 
ATOM     24  N   UNL     1      46.466   4.049   7.820  0.00  0.00    +0.000 NA
ATOM     25  N   UNL     1      45.572   4.384   8.805  0.00  0.00    +0.000 NA
ATOM     26  H   UNL     1      42.947   3.409  10.093  0.00  0.00    +0.000 HD
BRANCH  23  27
ATOM     27  C   UNL     1      47.557   2.464   6.361  0.00  0.00    +0.000 C 
ATOM     28  N   UNL     1      47.388   3.150   5.188  0.00  0.00    +0.000 N 
ATOM     29  O   UNL     1      48.463   1.649   6.504  0.00  0.00    +0.000 OA
ATOM     30  H   UNL     1      46.636   3.822   5.083  0.00  0.00    +0.000 HD
ATOM     31  H   UNL     1      48.022   2.980   4.421  0.00  0.00    +0.000 HD
ENDBRANCH  23  27
ENDBRANCH  18  19
ENDBRANCH   1  18
TORSDOF 5
ENDMDL
MODEL 6
REMARK VINA RESULT:    -7.210      4.354      7.920
REMARK INTER + INTRA:         -10.418
REMARK INTER:                  -9.551
REMARK INTRA:                  -0.866
REMARK UNBOUND:                -1.100
REMARK  Name = 
REMARK  8 active torsions:
REMARK  status: ('A' for Active; 'I' for Inactive)
REMARK    1  A    between atoms: C_1  and  C_2
REMARK    2  A    between atoms: N_4  and  C_5
REMARK    3  A    between atoms: C_9  and  C_10
REMARK    4  A    between atoms: C_10  and  C_11
REMARK    5  A    between atoms: C_10  and  C_12
REMARK    6  A    between atoms: C_12  and  N_13
REMARK    7  A    between atoms: C_17  and  C_18
REMARK    8  A    between atoms: C_25  and  C_26
REMARK                            x       y       z     vdW  Elec       q    Type
REMARK                         _______ _______ _______ _____ _____    ______ ____
ROOT
ATOM      1  C   UNL     1      48.714   6.918  14.381  0.00  0.00    +0.000 C 
ATOM      2  C   UNL     1      49.939   7.789  14.071  0.00  0.00    +0.000 C 
ENDROOT
BRANCH   1   7
ATOM      3  C   UNL     1      45.289   6.934  12.614  0.00  0.00    +0.000 A 
ATOM      4  C   UNL     1      45.190   8.289  12.272  0.00  0.00    +0.000 A 
ATOM      5  C   UNL     1      46.210   9.199  12.563  0.00  0.00    +0.000 A 
ATOM      6  C   UNL     1      47.361   8.778  13.223  0.00  0.00    +0.000 A 
ATOM      7  C   UNL     1      47.495   7.445  13.625  0.00  0.00    +0.000 A 
ATOM      8  C   UNL     1      46.459   6.548  13.294  0.00  0.00    +0.000 A 
BRANCH   3  12
ATOM      9  C   UNL     1      44.970   4.514   9.545  0.00  0.00    +0.000 C 
ATOM     10  C   UNL     1      43.649   4.679  10.304  0.00  0.00    +0.000 C 
ATOM     11  C   UNL     1      43.572   6.059  11.019  0.00  0.00    +0.000 C 
ATOM     12  N   UNL     1      44.293   6.030  12.300  0.00  0.00    +0.000 N 
ATOM     13  C   UNL     1      43.898   4.936  13.194  0.00  0.00    +0.000 C 
ATOM     14  C   UNL     1      44.024   3.563  12.486  0.00  0.00    +0.000 C 
ATOM     15  C   UNL     1      45.473   3.078  12.415  0.00  0.00    +0.000 C 
ATOM     16  N   UNL     1      43.344   3.508  11.167  0.00  0.00    +0.000 NA
ATOM     17  H   UNL     1      42.342   3.548  11.358  0.00  0.00    +0.000 HD
ENDBRANCH   3  12
ENDBRANCH   1   7
BRANCH   1  18
ATOM     18  C   UNL     1      48.454   6.776  15.899  0.00  0.00    +0.000 C 
BRANCH  18  19
ATOM     19  N   UNL     1      47.903   5.459  16.256  0.00  0.00    +0.000 N 
ATOM     20  C   UNL     1      48.904   4.548  16.669  0.00  0.00    +0.000 A 
ATOM     21  C   UNL     1      48.522   3.247  16.988  0.00  0.00    +0.000 A 
ATOM     22  C   UNL     1      49.486   2.326  17.390  0.00  0.00    +0.000 A 
ATOM     23  C   UNL     1      50.801   2.748  17.456  0.00  0.00    +0.000 A 
ATOM     24  N   UNL     1      51.163   4.015  17.156  0.00  0.00    +0.000 NA
ATOM     25  N   UNL     1      50.200   4.913  16.773  0.00  0.00    +0.000 NA
ATOM     26  H   UNL     1      47.405   5.029  15.481  0.00  0.00    +0.000 HD
BRANCH  23  27
ATOM     27  C   UNL     1      51.894   1.821  17.853  0.00  0.00    +0.000 C 
ATOM     28  N   UNL     1      51.549   0.503  17.991  0.00  0.00    +0.000 N 
ATOM     29  O   UNL     1      53.040   2.209  18.055  0.00  0.00    +0.000 OA
ATOM     30  H   UNL     1      50.598   0.194  17.820  0.00  0.00    +0.000 HD
ATOM     31  H   UNL     1      52.253  -0.166  18.267  0.00  0.00    +0.000 HD
ENDBRANCH  23  27
ENDBRANCH  18  19
ENDBRANCH   1  18
TORSDOF 5
ENDMDL
MODEL 7
REMARK VINA RESULT:    -6.954      3.832      6.395
REMARK INTER + INTRA:         -10.087
REMARK INTER:                  -9.097
REMARK INTRA:                  -0.990
REMARK UNBOUND:                -1.100
REMARK  Name = 
REMARK  8 active torsions:
REMARK  status: ('A' for Active; 'I' for Inactive)
REMARK    1  A    between atoms: C_1  and  C_2
REMARK    2  A    between atoms: N_4  and  C_5
REMARK    3  A    between atoms: C_9  and  C_10
REMARK    4  A    between atoms: C_10  and  C_11
REMARK    5  A    between atoms: C_10  and  C_12
REMARK    6  A    between atoms: C_12  and  N_13
REMARK    7  A    between atoms: C_17  and  C_18
REMARK    8  A    between atoms: C_25  and  C_26
REMARK                            x       y       z     vdW  Elec       q    Type
REMARK                         _______ _______ _______ _____ _____    ______ ____
ROOT
ATOM      1  C   UNL     1      49.418   7.941  14.462  0.00  0.00    +0.000 C 
ATOM      2  C   UNL     1      50.090   8.342  13.143  0.00  0.00    +0.000 C 
ENDROOT
BRANCH   1   7
ATOM      3  C   UNL     1      50.835   5.574  17.154  0.00  0.00    +0.000 A 
ATOM      4  C   UNL     1      52.195   5.899  17.082  0.00  0.00    +0.000 A 
ATOM      5  C   UNL     1      52.673   6.885  16.214  0.00  0.00    +0.000 A 
ATOM      6  C   UNL     1      51.797   7.568  15.376  0.00  0.00    +0.000 A 
ATOM      7  C   UNL     1      50.433   7.256  15.377  0.00  0.00    +0.000 A 
ATOM      8  C   UNL     1      49.981   6.274  16.281  0.00  0.00    +0.000 A 
BRANCH   3  12
ATOM      9  C   UNL     1      47.835   5.751  19.674  0.00  0.00    +0.000 C 
ATOM     10  C   UNL     1      48.773   4.572  19.958  0.00  0.00    +0.000 C 
ATOM     11  C   UNL     1      50.223   4.871  19.476  0.00  0.00    +0.000 C 
ATOM     12  N   UNL     1      50.360   4.620  18.033  0.00  0.00    +0.000 N 
ATOM     13  C   UNL     1      49.910   3.292  17.602  0.00  0.00    +0.000 C 
ATOM     14  C   UNL     1      48.450   3.026  18.047  0.00  0.00    +0.000 C 
ATOM     15  C   UNL     1      47.432   3.739  17.155  0.00  0.00    +0.000 C 
ATOM     16  N   UNL     1      48.210   3.279  19.491  0.00  0.00    +0.000 NA
ATOM     17  H   UNL     1      48.715   2.549  19.997  0.00  0.00    +0.000 HD
ENDBRANCH   3  12
ENDBRANCH   1   7
BRANCH   1  18
ATOM     18  C   UNL     1      48.144   7.091  14.248  0.00  0.00    +0.000 C 
BRANCH  18  19
ATOM     19  N   UNL     1      47.567   7.267  12.906  0.00  0.00    +0.000 N 
ATOM     20  C   UNL     1      46.673   6.226  12.561  0.00  0.00    +0.000 A 
ATOM     21  C   UNL     1      46.093   6.246  11.295  0.00  0.00    +0.000 A 
ATOM     22  C   UNL     1      45.215   5.230  10.924  0.00  0.00    +0.000 A 
ATOM     23  C   UNL     1      44.953   4.230  11.843  0.00  0.00    +0.000 A 
ATOM     24  N   UNL     1      45.509   4.224  13.074  0.00  0.00    +0.000 NA
ATOM     25  N   UNL     1      46.363   5.237  13.428  0.00  0.00    +0.000 NA
ATOM     26  H   UNL     1      48.280   7.304  12.184  0.00  0.00    +0.000 HD
BRANCH  23  27
ATOM     27  C   UNL     1      44.046   3.097  11.518  0.00  0.00    +0.000 C 
ATOM     28  N   UNL     1      43.606   2.351  12.578  0.00  0.00    +0.000 N 
ATOM     29  O   UNL     1      43.714   2.836  10.366  0.00  0.00    +0.000 OA
ATOM     30  H   UNL     1      43.887   2.578  13.526  0.00  0.00    +0.000 HD
ATOM     31  H   UNL     1      42.995   1.564  12.409  0.00  0.00    +0.000 HD
ENDBRANCH  23  27
ENDBRANCH  18  19
ENDBRANCH   1  18
TORSDOF 5
ENDMDL
MODEL 8
REMARK VINA RESULT:    -6.899      3.636      6.054
REMARK INTER + INTRA:         -10.016
REMARK INTER:                  -8.917
REMARK INTRA:                  -1.099
REMARK UNBOUND:                -1.100
REMARK  Name = 
REMARK  8 active torsions:
REMARK  status: ('A' for Active; 'I' for Inactive)
REMARK    1  A    between atoms: C_1  and  C_2
REMARK    2  A    between atoms: N_4  and  C_5
REMARK    3  A    between atoms: C_9  and  C_10
REMARK    4  A    between atoms: C_10  and  C_11
REMARK    5  A    between atoms: C_10  and  C_12
REMARK    6  A    between atoms: C_12  and  N_13
REMARK    7  A    between atoms: C_17  and  C_18
REMARK    8  A    between atoms: C_25  and  C_26
REMARK                            x       y       z     vdW  Elec       q    Type
REMARK                         _______ _______ _______ _____ _____    ______ ____
ROOT
ATOM      1  C   UNL     1      49.180   8.340  13.164  0.00  0.00    +0.000 C 
ATOM      2  C   UNL     1      49.856   7.819  11.889  0.00  0.00    +0.000 C 
ENDROOT
BRANCH   1   7
ATOM      3  C   UNL     1      49.532   6.216  16.361  0.00  0.00    +0.000 A 
ATOM      4  C   UNL     1      50.884   6.433  16.657  0.00  0.00    +0.000 A 
ATOM      5  C   UNL     1      51.685   7.271  15.878  0.00  0.00    +0.000 A 
ATOM      6  C   UNL     1      51.154   7.910  14.761  0.00  0.00    +0.000 A 
ATOM      7  C   UNL     1      49.821   7.698  14.394  0.00  0.00    +0.000 A 
ATOM      8  C   UNL     1      49.035   6.866  15.216  0.00  0.00    +0.000 A 
BRANCH   3  12
ATOM      9  C   UNL     1      50.043   2.489  17.470  0.00  0.00    +0.000 C 
ATOM     10  C   UNL     1      48.609   2.978  17.696  0.00  0.00    +0.000 C 
ATOM     11  C   UNL     1      48.228   4.106  16.693  0.00  0.00    +0.000 C 
ATOM     12  N   UNL     1      48.734   5.410  17.149  0.00  0.00    +0.000 N 
ATOM     13  C   UNL     1      48.358   5.759  18.524  0.00  0.00    +0.000 C 
ATOM     14  C   UNL     1      48.784   4.650  19.518  0.00  0.00    +0.000 C 
ATOM     15  C   UNL     1      50.280   4.701  19.838  0.00  0.00    +0.000 C 
ATOM     16  N   UNL     1      48.337   3.290  19.123  0.00  0.00    +0.000 NA
ATOM     17  H   UNL     1      47.321   3.280  19.228  0.00  0.00    +0.000 HD
ENDBRANCH   3  12
ENDBRANCH   1   7
BRANCH   1  18
ATOM     18  C   UNL     1      47.643   8.166  13.137  0.00  0.00    +0.000 C 
BRANCH  18  19
ATOM     19  N   UNL     1      47.142   7.780  11.809  0.00  0.00    +0.000 N 
ATOM     20  C   UNL     1      46.359   6.602  11.848  0.00  0.00    +0.000 A 
ATOM     21  C   UNL     1      45.864   6.098  10.647  0.00  0.00    +0.000 A 
ATOM     22  C   UNL     1      45.097   4.936  10.653  0.00  0.00    +0.000 A 
ATOM     23  C   UNL     1      44.857   4.321  11.869  0.00  0.00    +0.000 A 
ATOM     24  N   UNL     1      45.332   4.821  13.031  0.00  0.00    +0.000 NA
ATOM     25  N   UNL     1      46.076   5.974  13.010  0.00  0.00    +0.000 NA
ATOM     26  H   UNL     1      47.895   7.621  11.147  0.00  0.00    +0.000 HD
BRANCH  23  27
ATOM     27  C   UNL     1      44.069   3.064  11.959  0.00  0.00    +0.000 C 
ATOM     28  N   UNL     1      43.951   2.339  10.804  0.00  0.00    +0.000 N 
ATOM     29  O   UNL     1      43.544   2.695  13.005  0.00  0.00    +0.000 OA
ATOM     30  H   UNL     1      44.391   2.653   9.945  0.00  0.00    +0.000 HD
ATOM     31  H   UNL     1      43.418   1.481  10.811  0.00  0.00    +0.000 HD
ENDBRANCH  23  27
ENDBRANCH  18  19
ENDBRANCH   1  18
TORSDOF 5
ENDMDL
MODEL 9
REMARK VINA RESULT:    -6.892      1.319      2.327
REMARK INTER + INTRA:         -10.006
REMARK INTER:                  -9.219
REMARK INTRA:                  -0.787
REMARK UNBOUND:                -1.100
REMARK  Name = 
REMARK  8 active torsions:
REMARK  status: ('A' for Active; 'I' for Inactive)
REMARK    1  A    between atoms: C_1  and  C_2
REMARK    2  A    between atoms: N_4  and  C_5
REMARK    3  A    between atoms: C_9  and  C_10
REMARK    4  A    between atoms: C_10  and  C_11
REMARK    5  A    between atoms: C_10  and  C_12
REMARK    6  A    between atoms: C_12  and  N_13
REMARK    7  A    between atoms: C_17  and  C_18
REMARK    8  A    between atoms: C_25  and  C_26
REMARK                            x       y       z     vdW  Elec       q    Type
REMARK                         _______ _______ _______ _____ _____    ______ ____
ROOT
ATOM      1  C   UNL     1      44.700   5.173  12.176  0.00  0.00    +0.000 C 
ATOM      2  C   UNL     1      43.877   4.781  13.409  0.00  0.00    +0.000 C 
ENDROOT
BRANCH   1   7
ATOM      3  C   UNL     1      47.132   8.048  12.996  0.00  0.00    +0.000 A 
ATOM      4  C   UNL     1      46.346   9.151  12.639  0.00  0.00    +0.000 A 
ATOM      5  C   UNL     1      45.037   9.002  12.170  0.00  0.00    +0.000 A 
ATOM      6  C   UNL     1      44.480   7.735  12.031  0.00  0.00    +0.000 A 
ATOM      7  C   UNL     1      45.234   6.596  12.335  0.00  0.00    +0.000 A 
ATOM      8  C   UNL     1      46.541   6.782  12.828  0.00  0.00    +0.000 A 
BRANCH   3  12
ATOM      9  C   UNL     1      48.360   9.558  16.402  0.00  0.00    +0.000 C 
ATOM     10  C   UNL     1      49.491   9.421  15.377  0.00  0.00    +0.000 C 
ATOM     11  C   UNL     1      48.951   9.497  13.919  0.00  0.00    +0.000 C 
ATOM     12  N   UNL     1      48.415   8.198  13.487  0.00  0.00    +0.000 N 
ATOM     13  C   UNL     1      49.338   7.071  13.663  0.00  0.00    +0.000 C 
ATOM     14  C   UNL     1      49.832   6.978  15.128  0.00  0.00    +0.000 C 
ATOM     15  C   UNL     1      48.785   6.356  16.054  0.00  0.00    +0.000 C 
ATOM     16  N   UNL     1      50.369   8.256  15.660  0.00  0.00    +0.000 NA
ATOM     17  H   UNL     1      51.243   8.429  15.161  0.00  0.00    +0.000 HD
ENDBRANCH   3  12
ENDBRANCH   1   7
BRANCH   1  18
ATOM     18  C   UNL     1      43.922   4.976  10.853  0.00  0.00    +0.000 C 
BRANCH  18  19
ATOM     19  N   UNL     1      44.687   5.420   9.677  0.00  0.00    +0.000 N 
ATOM     20  C   UNL     1      45.323   4.346   9.009  0.00  0.00    +0.000 A 
ATOM     21  C   UNL     1      46.122   4.635   7.905  0.00  0.00    +0.000 A 
ATOM     22  C   UNL     1      46.766   3.600   7.232  0.00  0.00    +0.000 A 
ATOM     23  C   UNL     1      46.582   2.310   7.695  0.00  0.00    +0.000 A 
ATOM     24  N   UNL     1      45.797   2.036   8.759  0.00  0.00    +0.000 NA
ATOM     25  N   UNL     1      45.160   3.065   9.405  0.00  0.00    +0.000 NA
ATOM     26  H   UNL     1      45.409   6.093   9.921  0.00  0.00    +0.000 HD
BRANCH  23  27
ATOM     27  C   UNL     1      47.253   1.152   7.048  0.00  0.00    +0.000 C 
ATOM     28  N   UNL     1      46.864  -0.090   7.475  0.00  0.00    +0.000 N 
ATOM     29  O   UNL     1      48.114   1.293   6.185  0.00  0.00    +0.000 OA
ATOM     30  H   UNL     1      46.150  -0.194   8.189  0.00  0.00    +0.000 HD
ATOM     31  H   UNL     1      47.296  -0.909   7.073  0.00  0.00    +0.000 HD
ENDBRANCH  23  27
ENDBRANCH  18  19
ENDBRANCH   1  18
TORSDOF 5
ENDMDL
