MODEL 1
REMARK VINA RESULT:    -7.085      0.000      0.000
REMARK INTER + INTRA:         -10.725
REMARK INTER:                 -10.191
REMARK INTRA:                  -0.534
REMARK UNBOUND:                -0.534
REMARK  Name = 
REMARK  9 active torsions:
REMARK  status: ('A' for Active; 'I' for Inactive)
REMARK    1  A    between atoms: C_1  and  C_2
REMARK    2  A    between atoms: C_2  and  O_3
REMARK    3  A    between atoms: C_2  and  C_4
REMARK    4  A    between atoms: C_2  and  C_17
REMARK    5  A    between atoms: C_4  and  S_5
REMARK    6  A    between atoms: S_5  and  C_6
REMARK    7  A    between atoms: C_10  and  N_11
REMARK    8  A    between atoms: N_11  and  C_12
REMARK    9  A    between atoms: C_21  and  C_22
REMARK                            x       y       z     vdW  Elec       q    Type
REMARK                         _______ _______ _______ _____ _____    ______ ____
ROOT
ATOM      1  C   UNL     1      44.964   7.166  11.597  0.00  0.00    +0.000 C 
ATOM      2  C   UNL     1      44.756   5.951  12.521  0.00  0.00    +0.000 C 
ENDROOT
BRANCH   2   3
ATOM      3  C   UNL     1      44.477   4.700  11.676  0.00  0.00    +0.000 A 
ATOM      4  C   UNL     1      43.621   3.668  12.075  0.00  0.00    +0.000 A 
ATOM      5  C   UNL     1      43.426   2.585  11.230  0.00  0.00    +0.000 A 
ATOM      6  N   UNL     1      44.021   2.445  10.028  0.00  0.00    +0.000 NA
ATOM      7  C   UNL     1      44.856   3.440   9.621  0.00  0.00    +0.000 A 
ATOM      8  C   UNL     1      45.087   4.568  10.414  0.00  0.00    +0.000 A 
BRANCH   7   9
ATOM      9  C   UNL     1      45.573   3.330   8.281  0.00  0.00    +0.000 C 
ATOM     10  F   UNL     1      46.419   4.363   8.007  0.00  0.00    +0.000 F 
ATOM     11  F   UNL     1      46.328   2.197   8.184  0.00  0.00    +0.000 F 
ATOM     12  F   UNL     1      44.702   3.276   7.229  0.00  0.00    +0.000 F 
ENDBRANCH   7   9
ENDBRANCH   2   3
BRANCH   2  13
ATOM     13  O   UNL     1      43.548   6.180  13.265  0.00  0.00    +0.000 OA
ATOM     14  H   UNL     1      43.308   5.349  13.706  0.00  0.00    +0.000 HD
ENDBRANCH   2  13
BRANCH   2  15
ATOM     15  C   UNL     1      45.949   5.797  13.514  0.00  0.00    +0.000 C 
BRANCH  15  16
ATOM     16  S   UNL     1      47.435   6.785  13.069  0.00  0.00    +0.000 S 
BRANCH  16  17
ATOM     17  C   UNL     1      48.467   6.614  14.517  0.00  0.00    +0.000 A 
ATOM     18  C   UNL     1      49.681   7.280  14.677  0.00  0.00    +0.000 A 
ATOM     19  C   UNL     1      50.466   7.043  15.808  0.00  0.00    +0.000 A 
ATOM     20  C   UNL     1      50.050   6.126  16.779  0.00  0.00    +0.000 A 
ATOM     21  C   UNL     1      48.848   5.432  16.631  0.00  0.00    +0.000 A 
ATOM     22  C   UNL     1      48.059   5.702  15.502  0.00  0.00    +0.000 A 
BRANCH  21  23
ATOM     23  N   UNL     1      48.360   4.538  17.610  0.00  0.00    +0.000 N 
ATOM     24  H   UNL     1      47.454   4.837  17.969  0.00  0.00    +0.000 HD
BRANCH  23  25
ATOM     25  C   UNL     1      48.496   3.103  17.588  0.00  0.00    +0.000 C 
ATOM     26  C   UNL     1      49.930   2.618  17.326  0.00  0.00    +0.000 C 
ATOM     27  O   UNL     1      49.525   1.928  16.118  0.00  0.00    +0.000 OA
ATOM     28  C   UNL     1      48.197   2.499  16.209  0.00  0.00    +0.000 C 
ENDBRANCH  23  25
ENDBRANCH  21  23
ENDBRANCH  16  17
ENDBRANCH  15  16
ENDBRANCH   2  15
TORSDOF 8
ENDMDL
MODEL 2
REMARK VINA RESULT:    -7.001      4.114      8.116
REMARK INTER + INTRA:         -10.604
REMARK INTER:                  -9.972
REMARK INTRA:                  -0.632
REMARK UNBOUND:                -0.534
REMARK  Name = 
REMARK  9 active torsions:
REMARK  status: ('A' for Active; 'I' for Inactive)
REMARK    1  A    between atoms: C_1  and  C_2
REMARK    2  A    between atoms: C_2  and  O_3
REMARK    3  A    between atoms: C_2  and  C_4
REMARK    4  A    between atoms: C_2  and  C_17
REMARK    5  A    between atoms: C_4  and  S_5
REMARK    6  A    between atoms: S_5  and  C_6
REMARK    7  A    between atoms: C_10  and  N_11
REMARK    8  A    between atoms: N_11  and  C_12
REMARK    9  A    between atoms: C_21  and  C_22
REMARK                            x       y       z     vdW  Elec       q    Type
REMARK                         _______ _______ _______ _____ _____    ______ ____
ROOT
ATOM      1  C   UNL     1      46.833   8.458  13.489  0.00  0.00    +0.000 C 
ATOM      2  C   UNL     1      47.358   7.034  13.217  0.00  0.00    +0.000 C 
ENDROOT
BRANCH   2   3
ATOM      3  C   UNL     1      48.134   6.526  14.441  0.00  0.00    +0.000 A 
ATOM      4  C   UNL     1      49.250   7.176  14.976  0.00  0.00    +0.000 A 
ATOM      5  C   UNL     1      49.874   6.641  16.094  0.00  0.00    +0.000 A 
ATOM      6  N   UNL     1      49.480   5.509  16.712  0.00  0.00    +0.000 NA
ATOM      7  C   UNL     1      48.394   4.864  16.207  0.00  0.00    +0.000 A 
ATOM      8  C   UNL     1      47.706   5.354  15.093  0.00  0.00    +0.000 A 
BRANCH   7   9
ATOM      9  C   UNL     1      47.911   3.569  16.850  0.00  0.00    +0.000 C 
ATOM     10  F   UNL     1      48.413   3.334  18.095  0.00  0.00    +0.000 F 
ATOM     11  F   UNL     1      46.552   3.527  16.983  0.00  0.00    +0.000 F 
ATOM     12  F   UNL     1      48.235   2.469  16.107  0.00  0.00    +0.000 F 
ENDBRANCH   7   9
ENDBRANCH   2   3
BRANCH   2  13
ATOM     13  O   UNL     1      48.333   7.132  12.166  0.00  0.00    +0.000 OA
ATOM     14  H   UNL     1      49.135   7.532  12.540  0.00  0.00    +0.000 HD
ENDBRANCH   2  13
BRANCH   2  15
ATOM     15  C   UNL     1      46.201   6.094  12.759  0.00  0.00    +0.000 C 
BRANCH  15  16
ATOM     16  S   UNL     1      45.454   6.547  11.140  0.00  0.00    +0.000 S 
BRANCH  16  17
ATOM     17  C   UNL     1      45.019   4.957  10.452  0.00  0.00    +0.000 A 
ATOM     18  C   UNL     1      44.288   3.994  11.148  0.00  0.00    +0.000 A 
ATOM     19  C   UNL     1      44.046   2.746  10.568  0.00  0.00    +0.000 A 
ATOM     20  C   UNL     1      44.544   2.447   9.296  0.00  0.00    +0.000 A 
ATOM     21  C   UNL     1      45.295   3.388   8.589  0.00  0.00    +0.000 A 
ATOM     22  C   UNL     1      45.507   4.646   9.175  0.00  0.00    +0.000 A 
BRANCH  21  23
ATOM     23  N   UNL     1      45.772   3.152   7.280  0.00  0.00    +0.000 N 
ATOM     24  H   UNL     1      45.180   3.599   6.581  0.00  0.00    +0.000 HD
BRANCH  23  25
ATOM     25  C   UNL     1      47.156   3.109   6.880  0.00  0.00    +0.000 C 
ATOM     26  C   UNL     1      47.363   2.814   5.386  0.00  0.00    +0.000 C 
ATOM     27  O   UNL     1      48.105   1.604   5.680  0.00  0.00    +0.000 OA
ATOM     28  C   UNL     1      47.792   1.727   7.089  0.00  0.00    +0.000 C 
ENDBRANCH  23  25
ENDBRANCH  21  23
ENDBRANCH  16  17
ENDBRANCH  15  16
ENDBRANCH   2  15
TORSDOF 8
ENDMDL
MODEL 3
REMARK VINA RESULT:    -6.923      3.924      8.007
REMARK INTER + INTRA:         -10.492
REMARK INTER:                  -9.940
REMARK INTRA:                  -0.553
REMARK UNBOUND:                -0.534
REMARK  Name = 
REMARK  9 active torsions:
REMARK  status: ('A' for Active; 'I' for Inactive)
REMARK    1  A    between atoms: C_1  and  C_2
REMARK    2  A    between atoms: C_2  and  O_3
REMARK    3  A    between atoms: C_2  and  C_4
REMARK    4  A    between atoms: C_2  and  C_17
REMARK    5  A    between atoms: C_4  and  S_5
REMARK    6  A    between atoms: S_5  and  C_6
REMARK    7  A    between atoms: C_10  and  N_11
REMARK    8  A    between atoms: N_11  and  C_12
REMARK    9  A    between atoms: C_21  and  C_22
REMARK                            x       y       z     vdW  Elec       q    Type
REMARK                         _______ _______ _______ _____ _____    ______ ____
ROOT
ATOM      1  C   UNL     1      48.095   8.433  14.381  0.00  0.00    +0.000 C 
ATOM      2  C   UNL     1      48.519   6.952  14.394  0.00  0.00    +0.000 C 
ENDROOT
BRANCH   2   3
ATOM      3  C   UNL     1      48.601   6.449  15.842  0.00  0.00    +0.000 A 
ATOM      4  C   UNL     1      48.964   7.257  16.925  0.00  0.00    +0.000 A 
ATOM      5  C   UNL     1      48.995   6.708  18.199  0.00  0.00    +0.000 A 
ATOM      6  N   UNL     1      48.703   5.422  18.476  0.00  0.00    +0.000 NA
ATOM      7  C   UNL     1      48.345   4.621  17.437  0.00  0.00    +0.000 A 
ATOM      8  C   UNL     1      48.277   5.110  16.129  0.00  0.00    +0.000 A 
BRANCH   7   9
ATOM      9  C   UNL     1      48.022   3.152  17.684  0.00  0.00    +0.000 C 
ATOM     10  F   UNL     1      48.347   2.703  18.929  0.00  0.00    +0.000 F 
ATOM     11  F   UNL     1      46.694   2.876  17.525  0.00  0.00    +0.000 F 
ATOM     12  F   UNL     1      48.671   2.324  16.812  0.00  0.00    +0.000 F 
ENDBRANCH   7   9
ENDBRANCH   2   3
BRANCH   2  13
ATOM     13  O   UNL     1      49.865   6.888  13.896  0.00  0.00    +0.000 OA
ATOM     14  H   UNL     1      49.862   6.331  13.099  0.00  0.00    +0.000 HD
ENDBRANCH   2  13
BRANCH   2  15
ATOM     15  C   UNL     1      47.590   6.100  13.474  0.00  0.00    +0.000 C 
BRANCH  15  16
ATOM     16  S   UNL     1      46.269   7.065  12.634  0.00  0.00    +0.000 S 
BRANCH  16  17
ATOM     17  C   UNL     1      45.124   5.793  12.119  0.00  0.00    +0.000 A 
ATOM     18  C   UNL     1      44.397   5.009  13.014  0.00  0.00    +0.000 A 
ATOM     19  C   UNL     1      43.572   3.987  12.537  0.00  0.00    +0.000 A 
ATOM     20  C   UNL     1      43.480   3.733  11.166  0.00  0.00    +0.000 A 
ATOM     21  C   UNL     1      44.214   4.491  10.252  0.00  0.00    +0.000 A 
ATOM     22  C   UNL     1      45.017   5.531  10.746  0.00  0.00    +0.000 A 
BRANCH  21  23
ATOM     23  N   UNL     1      44.112   4.308   8.855  0.00  0.00    +0.000 N 
ATOM     24  H   UNL     1      44.305   5.172   8.350  0.00  0.00    +0.000 HD
BRANCH  23  25
ATOM     25  C   UNL     1      44.532   3.139   8.123  0.00  0.00    +0.000 C 
ATOM     26  C   UNL     1      45.420   2.183   8.934  0.00  0.00    +0.000 C 
ATOM     27  O   UNL     1      46.518   2.338   8.002  0.00  0.00    +0.000 OA
ATOM     28  C   UNL     1      45.802   3.381   7.296  0.00  0.00    +0.000 C 
ENDBRANCH  23  25
ENDBRANCH  21  23
ENDBRANCH  16  17
ENDBRANCH  15  16
ENDBRANCH   2  15
TORSDOF 8
ENDMDL
MODEL 4
REMARK VINA RESULT:    -6.670      3.951      7.137
REMARK INTER + INTRA:         -10.128
REMARK INTER:                  -9.065
REMARK INTRA:                  -1.063
REMARK UNBOUND:                -0.534
REMARK  Name = 
REMARK  9 active torsions:
REMARK  status: ('A' for Active; 'I' for Inactive)
REMARK    1  A    between atoms: C_1  and  C_2
REMARK    2  A    between atoms: C_2  and  O_3
REMARK    3  A    between atoms: C_2  and  C_4
REMARK    4  A    between atoms: C_2  and  C_17
REMARK    5  A    between atoms: C_4  and  S_5
REMARK    6  A    between atoms: S_5  and  C_6
REMARK    7  A    between atoms: C_10  and  N_11
REMARK    8  A    between atoms: N_11  and  C_12
REMARK    9  A    between atoms: C_21  and  C_22
REMARK                            x       y       z     vdW  Elec       q    Type
REMARK                         _______ _______ _______ _____ _____    ______ ____
ROOT
ATOM      1  C   UNL     1      49.861   7.547  13.972  0.00  0.00    +0.000 C 
ATOM      2  C   UNL     1      48.342   7.436  13.738  0.00  0.00    +0.000 C 
ENDROOT
BRANCH   2   3
ATOM      3  C   UNL     1      47.837   8.693  13.015  0.00  0.00    +0.000 A 
ATOM      4  C   UNL     1      48.615   9.838  12.813  0.00  0.00    +0.000 A 
ATOM      5  C   UNL     1      48.068  10.918  12.134  0.00  0.00    +0.000 A 
ATOM      6  N   UNL     1      46.810  10.950  11.652  0.00  0.00    +0.000 NA
ATOM      7  C   UNL     1      46.038   9.845  11.836  0.00  0.00    +0.000 A 
ATOM      8  C   UNL     1      46.528   8.714  12.497  0.00  0.00    +0.000 A 
BRANCH   7   9
ATOM      9  C   UNL     1      44.600   9.827  11.331  0.00  0.00    +0.000 C 
ATOM     10  F   UNL     1      44.430  10.365  10.090  0.00  0.00    +0.000 F 
ATOM     11  F   UNL     1      44.086   8.564  11.261  0.00  0.00    +0.000 F 
ATOM     12  F   UNL     1      43.753  10.518  12.152  0.00  0.00    +0.000 F 
ENDBRANCH   7   9
ENDBRANCH   2   3
BRANCH   2  13
ATOM     13  O   UNL     1      47.707   7.463  15.027  0.00  0.00    +0.000 OA
ATOM     14  H   UNL     1      47.371   8.362  15.174  0.00  0.00    +0.000 HD
ENDBRANCH   2  13
BRANCH   2  15
ATOM     15  C   UNL     1      47.986   6.099  13.017  0.00  0.00    +0.000 C 
BRANCH  15  16
ATOM     16  S   UNL     1      46.924   4.968  14.005  0.00  0.00    +0.000 S 
BRANCH  16  17
ATOM     17  C   UNL     1      45.478   4.789  12.971  0.00  0.00    +0.000 A 
ATOM     18  C   UNL     1      44.381   5.649  13.031  0.00  0.00    +0.000 A 
ATOM     19  C   UNL     1      43.257   5.404  12.238  0.00  0.00    +0.000 A 
ATOM     20  C   UNL     1      43.215   4.291  11.393  0.00  0.00    +0.000 A 
ATOM     21  C   UNL     1      44.293   3.406  11.330  0.00  0.00    +0.000 A 
ATOM     22  C   UNL     1      45.425   3.681  12.113  0.00  0.00    +0.000 A 
BRANCH  21  23
ATOM     23  N   UNL     1      44.319   2.300  10.451  0.00  0.00    +0.000 N 
ATOM     24  H   UNL     1      43.669   1.573  10.746  0.00  0.00    +0.000 HD
BRANCH  23  25
ATOM     25  C   UNL     1      44.458   2.363   9.018  0.00  0.00    +0.000 C 
ATOM     26  C   UNL     1      45.806   1.839   8.500  0.00  0.00    +0.000 C 
ATOM     27  O   UNL     1      46.135   3.124   7.917  0.00  0.00    +0.000 OA
ATOM     28  C   UNL     1      44.969   3.726   8.530  0.00  0.00    +0.000 C 
ENDBRANCH  23  25
ENDBRANCH  21  23
ENDBRANCH  16  17
ENDBRANCH  15  16
ENDBRANCH   2  15
TORSDOF 8
ENDMDL
MODEL 5
REMARK VINA RESULT:    -6.639      2.618      3.386
REMARK INTER + INTRA:         -10.084
REMARK INTER:                  -9.078
REMARK INTRA:                  -1.006
REMARK UNBOUND:                -0.534
REMARK  Name = 
REMARK  9 active torsions:
REMARK  status: ('A' for Active; 'I' for Inactive)
REMARK    1  A    between atoms: C_1  and  C_2
REMARK    2  A    between atoms: C_2  and  O_3
REMARK    3  A    between atoms: C_2  and  C_4
REMARK    4  A    between atoms: C_2  and  C_17
REMARK    5  A    between atoms: C_4  and  S_5
REMARK    6  A    between atoms: S_5  and  C_6
REMARK    7  A    between atoms: C_10  and  N_11
REMARK    8  A    between atoms: N_11  and  C_12
REMARK    9  A    between atoms: C_21  and  C_22
REMARK                            x       y       z     vdW  Elec       q    Type
REMARK                         _______ _______ _______ _____ _____    ______ ____
ROOT
ATOM      1  C   UNL     1      47.868   7.818  11.829  0.00  0.00    +0.000 C 
ATOM      2  C   UNL     1      47.520   7.341  13.253  0.00  0.00    +0.000 C 
ENDROOT
BRANCH   2   3
ATOM      3  C   UNL     1      46.792   5.991  13.182  0.00  0.00    +0.000 A 
ATOM      4  C   UNL     1      47.344   4.787  13.632  0.00  0.00    +0.000 A 
ATOM      5  C   UNL     1      46.597   3.621  13.535  0.00  0.00    +0.000 A 
ATOM      6  N   UNL     1      45.353   3.561  13.020  0.00  0.00    +0.000 NA
ATOM      7  C   UNL     1      44.798   4.722  12.579  0.00  0.00    +0.000 A 
ATOM      8  C   UNL     1      45.486   5.936  12.660  0.00  0.00    +0.000 A 
BRANCH   7   9
ATOM      9  C   UNL     1      43.401   4.715  11.968  0.00  0.00    +0.000 C 
ATOM     10  F   UNL     1      42.911   3.473  11.692  0.00  0.00    +0.000 F 
ATOM     11  F   UNL     1      42.475   5.308  12.777  0.00  0.00    +0.000 F 
ATOM     12  F   UNL     1      43.347   5.404  10.790  0.00  0.00    +0.000 F 
ENDBRANCH   7   9
ENDBRANCH   2   3
BRANCH   2  13
ATOM     13  O   UNL     1      46.556   8.261  13.789  0.00  0.00    +0.000 OA
ATOM     14  H   UNL     1      46.288   8.861  13.073  0.00  0.00    +0.000 HD
ENDBRANCH   2  13
BRANCH   2  15
ATOM     15  C   UNL     1      48.788   7.336  14.162  0.00  0.00    +0.000 C 
BRANCH  15  16
ATOM     16  S   UNL     1      48.722   8.536  15.555  0.00  0.00    +0.000 S 
BRANCH  16  17
ATOM     17  C   UNL     1      48.761   7.472  16.989  0.00  0.00    +0.000 A 
ATOM     18  C   UNL     1      48.198   7.819  18.218  0.00  0.00    +0.000 A 
ATOM     19  C   UNL     1      48.329   6.963  19.313  0.00  0.00    +0.000 A 
ATOM     20  C   UNL     1      49.034   5.762  19.194  0.00  0.00    +0.000 A 
ATOM     21  C   UNL     1      49.623   5.402  17.980  0.00  0.00    +0.000 A 
ATOM     22  C   UNL     1      49.461   6.261  16.882  0.00  0.00    +0.000 A 
BRANCH  21  23
ATOM     23  N   UNL     1      50.298   4.175  17.797  0.00  0.00    +0.000 N 
ATOM     24  H   UNL     1      51.196   4.167  18.279  0.00  0.00    +0.000 HD
BRANCH  23  25
ATOM     25  C   UNL     1      49.685   2.871  17.758  0.00  0.00    +0.000 C 
ATOM     26  C   UNL     1      50.461   1.842  16.921  0.00  0.00    +0.000 C 
ATOM     27  O   UNL     1      49.340   1.658  16.021  0.00  0.00    +0.000 OA
ATOM     28  C   UNL     1      48.623   2.746  16.655  0.00  0.00    +0.000 C 
ENDBRANCH  23  25
ENDBRANCH  21  23
ENDBRANCH  16  17
ENDBRANCH  15  16
ENDBRANCH   2  15
TORSDOF 8
ENDMDL
MODEL 6
REMARK VINA RESULT:    -6.585      4.189      7.227
REMARK INTER + INTRA:         -10.006
REMARK INTER:                  -8.881
REMARK INTRA:                  -1.125
REMARK UNBOUND:                -0.534
REMARK  Name = 
REMARK  9 active torsions:
REMARK  status: ('A' for Active; 'I' for Inactive)
REMARK    1  A    between atoms: C_1  and  C_2
REMARK    2  A    between atoms: C_2  and  O_3
REMARK    3  A    between atoms: C_2  and  C_4
REMARK    4  A    between atoms: C_2  and  C_17
REMARK    5  A    between atoms: C_4  and  S_5
REMARK    6  A    between atoms: S_5  and  C_6
REMARK    7  A    between atoms: C_10  and  N_11
REMARK    8  A    between atoms: N_11  and  C_12
REMARK    9  A    between atoms: C_21  and  C_22
REMARK                            x       y       z     vdW  Elec       q    Type
REMARK                         _______ _______ _______ _____ _____    ______ ____
ROOT
ATOM      1  C   UNL     1      48.606   8.489  14.819  0.00  0.00    +0.000 C 
ATOM      2  C   UNL     1      48.638   7.499  13.639  0.00  0.00    +0.000 C 
ENDROOT
BRANCH   2   3
ATOM      3  C   UNL     1      47.900   6.209  14.026  0.00  0.00    +0.000 A 
ATOM      4  C   UNL     1      47.132   5.456  13.132  0.00  0.00    +0.000 A 
ATOM      5  C   UNL     1      46.515   4.296  13.579  0.00  0.00    +0.000 A 
ATOM      6  N   UNL     1      46.595   3.836  14.843  0.00  0.00    +0.000 NA
ATOM      7  C   UNL     1      47.340   4.553  15.728  0.00  0.00    +0.000 A 
ATOM      8  C   UNL     1      48.003   5.723  15.343  0.00  0.00    +0.000 A 
BRANCH   7   9
ATOM      9  C   UNL     1      47.453   4.094  17.177  0.00  0.00    +0.000 C 
ATOM     10  F   UNL     1      46.692   4.804  18.056  0.00  0.00    +0.000 F 
ATOM     11  F   UNL     1      47.089   2.788  17.340  0.00  0.00    +0.000 F 
ATOM     12  F   UNL     1      48.734   4.174  17.647  0.00  0.00    +0.000 F 
ENDBRANCH   7   9
ENDBRANCH   2   3
BRANCH   2  13
ATOM     13  O   UNL     1      50.007   7.106  13.446  0.00  0.00    +0.000 OA
ATOM     14  H   UNL     1      50.569   7.756  13.899  0.00  0.00    +0.000 HD
ENDBRANCH   2  13
BRANCH   2  15
ATOM     15  C   UNL     1      48.108   8.171  12.335  0.00  0.00    +0.000 C 
BRANCH  15  16
ATOM     16  S   UNL     1      47.575   9.918  12.548  0.00  0.00    +0.000 S 
BRANCH  16  17
ATOM     17  C   UNL     1      45.951   9.924  11.805  0.00  0.00    +0.000 A 
ATOM     18  C   UNL     1      45.293  11.089  11.407  0.00  0.00    +0.000 A 
ATOM     19  C   UNL     1      43.995  11.019  10.896  0.00  0.00    +0.000 A 
ATOM     20  C   UNL     1      43.340   9.788  10.793  0.00  0.00    +0.000 A 
ATOM     21  C   UNL     1      43.969   8.612  11.203  0.00  0.00    +0.000 A 
ATOM     22  C   UNL     1      45.283   8.696  11.690  0.00  0.00    +0.000 A 
BRANCH  21  23
ATOM     23  N   UNL     1      43.369   7.340  11.067  0.00  0.00    +0.000 N 
ATOM     24  H   UNL     1      42.932   7.230  10.153  0.00  0.00    +0.000 HD
BRANCH  23  25
ATOM     25  C   UNL     1      43.895   6.099  11.577  0.00  0.00    +0.000 C 
ATOM     26  C   UNL     1      43.699   4.904  10.630  0.00  0.00    +0.000 C 
ATOM     27  O   UNL     1      42.903   4.196  11.613  0.00  0.00    +0.000 OA
ATOM     28  C   UNL     1      42.898   5.357  12.479  0.00  0.00    +0.000 C 
ENDBRANCH  23  25
ENDBRANCH  21  23
ENDBRANCH  16  17
ENDBRANCH  15  16
ENDBRANCH   2  15
TORSDOF 8
ENDMDL
MODEL 7
REMARK VINA RESULT:    -6.377      1.995      2.556
REMARK INTER + INTRA:          -9.707
REMARK INTER:                  -9.100
REMARK INTRA:                  -0.606
REMARK UNBOUND:                -0.534
REMARK  Name = 
REMARK  9 active torsions:
REMARK  status: ('A' for Active; 'I' for Inactive)
REMARK    1  A    between atoms: C_1  and  C_2
REMARK    2  A    between atoms: C_2  and  O_3
REMARK    3  A    between atoms: C_2  and  C_4
REMARK    4  A    between atoms: C_2  and  C_17
REMARK    5  A    between atoms: C_4  and  S_5
REMARK    6  A    between atoms: S_5  and  C_6
REMARK    7  A    between atoms: C_10  and  N_11
REMARK    8  A    between atoms: N_11  and  C_12
REMARK    9  A    between atoms: C_21  and  C_22
REMARK                            x       y       z     vdW  Elec       q    Type
REMARK                         _______ _______ _______ _____ _____    ______ ____
ROOT
ATOM      1  C   UNL     1      48.154   7.403  11.605  0.00  0.00    +0.000 C 
ATOM      2  C   UNL     1      47.041   7.250  12.660  0.00  0.00    +0.000 C 
ENDROOT
BRANCH   2   3
ATOM      3  C   UNL     1      46.513   5.808  12.650  0.00  0.00    +0.000 A 
ATOM      4  C   UNL     1      47.022   4.789  13.461  0.00  0.00    +0.000 A 
ATOM      5  C   UNL     1      46.465   3.521  13.386  0.00  0.00    +0.000 A 
ATOM      6  N   UNL     1      45.451   3.188  12.562  0.00  0.00    +0.000 NA
ATOM      7  C   UNL     1      44.940   4.165  11.766  0.00  0.00    +0.000 A 
ATOM      8  C   UNL     1      45.442   5.470  11.801  0.00  0.00    +0.000 A 
BRANCH   7   9
ATOM      9  C   UNL     1      43.806   3.846  10.800  0.00  0.00    +0.000 C 
ATOM     10  F   UNL     1      42.558   3.942  11.341  0.00  0.00    +0.000 F 
ATOM     11  F   UNL     1      43.802   4.667   9.709  0.00  0.00    +0.000 F 
ATOM     12  F   UNL     1      43.894   2.578  10.298  0.00  0.00    +0.000 F 
ENDBRANCH   7   9
ENDBRANCH   2   3
BRANCH   2  13
ATOM     13  O   UNL     1      45.933   8.060  12.234  0.00  0.00    +0.000 OA
ATOM     14  H   UNL     1      45.132   7.512  12.272  0.00  0.00    +0.000 HD
ENDBRANCH   2  13
BRANCH   2  15
ATOM     15  C   UNL     1      47.530   7.742  14.057  0.00  0.00    +0.000 C 
BRANCH  15  16
ATOM     16  S   UNL     1      49.278   8.312  14.089  0.00  0.00    +0.000 S 
BRANCH  16  17
ATOM     17  C   UNL     1      50.005   7.270  15.345  0.00  0.00    +0.000 A 
ATOM     18  C   UNL     1      51.374   7.232  15.613  0.00  0.00    +0.000 A 
ATOM     19  C   UNL     1      51.876   6.341  16.564  0.00  0.00    +0.000 A 
ATOM     20  C   UNL     1      51.017   5.472  17.243  0.00  0.00    +0.000 A 
ATOM     21  C   UNL     1      49.646   5.477  16.978  0.00  0.00    +0.000 A 
ATOM     22  C   UNL     1      49.154   6.397  16.039  0.00  0.00    +0.000 A 
BRANCH  21  23
ATOM     23  N   UNL     1      48.733   4.657  17.678  0.00  0.00    +0.000 N 
ATOM     24  H   UNL     1      47.798   5.063  17.686  0.00  0.00    +0.000 HD
BRANCH  23  25
ATOM     25  C   UNL     1      48.706   3.216  17.661  0.00  0.00    +0.000 C 
ATOM     26  C   UNL     1      50.053   2.573  17.295  0.00  0.00    +0.000 C 
ATOM     27  O   UNL     1      49.482   1.930  16.128  0.00  0.00    +0.000 OA
ATOM     28  C   UNL     1      48.237   2.647  16.314  0.00  0.00    +0.000 C 
ENDBRANCH  23  25
ENDBRANCH  21  23
ENDBRANCH  16  17
ENDBRANCH  15  16
ENDBRANCH   2  15
TORSDOF 8
ENDMDL
MODEL 8
REMARK VINA RESULT:    -6.301      5.237      8.654
REMARK INTER + INTRA:          -9.597
REMARK INTER:                  -9.018
REMARK INTRA:                  -0.580
REMARK UNBOUND:                -0.534
REMARK  Name = 
REMARK  9 active torsions:
REMARK  status: ('A' for Active; 'I' for Inactive)
REMARK    1  A    between atoms: C_1  and  C_2
REMARK    2  A    between atoms: C_2  and  O_3
REMARK    3  A    between atoms: C_2  and  C_4
REMARK    4  A    between atoms: C_2  and  C_17
REMARK    5  A    between atoms: C_4  and  S_5
REMARK    6  A    between atoms: S_5  and  C_6
REMARK    7  A    between atoms: C_10  and  N_11
REMARK    8  A    between atoms: N_11  and  C_12
REMARK    9  A    between atoms: C_21  and  C_22
REMARK                            x       y       z     vdW  Elec       q    Type
REMARK                         _______ _______ _______ _____ _____    ______ ____
ROOT
ATOM      1  C   UNL     1      48.747   2.460  16.982  0.00  0.00    +0.000 C 
ATOM      2  C   UNL     1      47.623   3.488  17.215  0.00  0.00    +0.000 C 
ENDROOT
BRANCH   2   3
ATOM      3  C   UNL     1      48.022   4.443  18.349  0.00  0.00    +0.000 A 
ATOM      4  C   UNL     1      47.176   5.427  18.869  0.00  0.00    +0.000 A 
ATOM      5  C   UNL     1      47.629   6.231  19.906  0.00  0.00    +0.000 A 
ATOM      6  N   UNL     1      48.856   6.137  20.455  0.00  0.00    +0.000 NA
ATOM      7  C   UNL     1      49.693   5.184  19.965  0.00  0.00    +0.000 A 
ATOM      8  C   UNL     1      49.298   4.328  18.933  0.00  0.00    +0.000 A 
BRANCH   7   9
ATOM      9  C   UNL     1      51.100   5.041  20.533  0.00  0.00    +0.000 C 
ATOM     10  F   UNL     1      51.913   4.205  19.826  0.00  0.00    +0.000 F 
ATOM     11  F   UNL     1      51.761   6.234  20.598  0.00  0.00    +0.000 F 
ATOM     12  F   UNL     1      51.097   4.559  21.812  0.00  0.00    +0.000 F 
ENDBRANCH   7   9
ENDBRANCH   2   3
BRANCH   2  13
ATOM     13  O   UNL     1      46.481   2.770  17.710  0.00  0.00    +0.000 OA
ATOM     14  H   UNL     1      46.305   3.079  18.614  0.00  0.00    +0.000 HD
ENDBRANCH   2  13
BRANCH   2  15
ATOM     15  C   UNL     1      47.241   4.204  15.882  0.00  0.00    +0.000 C 
BRANCH  15  16
ATOM     16  S   UNL     1      48.168   5.762  15.569  0.00  0.00    +0.000 S 
BRANCH  16  17
ATOM     17  C   UNL     1      47.736   6.140  13.877  0.00  0.00    +0.000 A 
ATOM     18  C   UNL     1      48.397   7.102  13.113  0.00  0.00    +0.000 A 
ATOM     19  C   UNL     1      47.957   7.390  11.819  0.00  0.00    +0.000 A 
ATOM     20  C   UNL     1      46.846   6.731  11.285  0.00  0.00    +0.000 A 
ATOM     21  C   UNL     1      46.156   5.778  12.038  0.00  0.00    +0.000 A 
ATOM     22  C   UNL     1      46.626   5.482  13.327  0.00  0.00    +0.000 A 
BRANCH  21  23
ATOM     23  N   UNL     1      45.063   5.047  11.523  0.00  0.00    +0.000 N 
ATOM     24  H   UNL     1      44.727   5.446  10.647  0.00  0.00    +0.000 HD
BRANCH  23  25
ATOM     25  C   UNL     1      44.907   3.615  11.568  0.00  0.00    +0.000 C 
ATOM     26  C   UNL     1      44.141   3.034  10.369  0.00  0.00    +0.000 C 
ATOM     27  O   UNL     1      43.104   2.502  11.230  0.00  0.00    +0.000 OA
ATOM     28  C   UNL     1      43.677   3.176  12.377  0.00  0.00    +0.000 C 
ENDBRANCH  23  25
ENDBRANCH  21  23
ENDBRANCH  16  17
ENDBRANCH  15  16
ENDBRANCH   2  15
TORSDOF 8
ENDMDL
MODEL 9
REMARK VINA RESULT:    -6.099      3.629      7.343
REMARK INTER + INTRA:          -9.308
REMARK INTER:                  -8.362
REMARK INTRA:                  -0.946
REMARK UNBOUND:                -0.534
REMARK  Name = 
REMARK  9 active torsions:
REMARK  status: ('A' for Active; 'I' for Inactive)
REMARK    1  A    between atoms: C_1  and  C_2
REMARK    2  A    between atoms: C_2  and  O_3
REMARK    3  A    between atoms: C_2  and  C_4
REMARK    4  A    between atoms: C_2  and  C_17
REMARK    5  A    between atoms: C_4  and  S_5
REMARK    6  A    between atoms: S_5  and  C_6
REMARK    7  A    between atoms: C_10  and  N_11
REMARK    8  A    between atoms: N_11  and  C_12
REMARK    9  A    between atoms: C_21  and  C_22
REMARK                            x       y       z     vdW  Elec       q    Type
REMARK                         _______ _______ _______ _____ _____    ______ ____
ROOT
ATOM      1  C   UNL     1      50.415   9.115  17.333  0.00  0.00    +0.000 C 
ATOM      2  C   UNL     1      49.873   8.026  16.386  0.00  0.00    +0.000 C 
ENDROOT
BRANCH   2   3
ATOM      3  C   UNL     1      48.969   7.063  17.168  0.00  0.00    +0.000 A 
ATOM      4  C   UNL     1      48.306   7.408  18.350  0.00  0.00    +0.000 A 
ATOM      5  C   UNL     1      47.499   6.467  18.974  0.00  0.00    +0.000 A 
ATOM      6  N   UNL     1      47.310   5.212  18.519  0.00  0.00    +0.000 NA
ATOM      7  C   UNL     1      47.944   4.858  17.369  0.00  0.00    +0.000 A 
ATOM      8  C   UNL     1      48.760   5.760  16.679  0.00  0.00    +0.000 A 
BRANCH   7   9
ATOM      9  C   UNL     1      47.785   3.447  16.815  0.00  0.00    +0.000 C 
ATOM     10  F   UNL     1      48.933   2.713  16.798  0.00  0.00    +0.000 F 
ATOM     11  F   UNL     1      46.881   2.707  17.523  0.00  0.00    +0.000 F 
ATOM     12  F   UNL     1      47.326   3.445  15.528  0.00  0.00    +0.000 F 
ENDBRANCH   7   9
ENDBRANCH   2   3
BRANCH   2  13
ATOM     13  O   UNL     1      50.993   7.231  15.963  0.00  0.00    +0.000 OA
ATOM     14  H   UNL     1      51.775   7.534  16.454  0.00  0.00    +0.000 HD
ENDBRANCH   2  13
BRANCH   2  15
ATOM     15  C   UNL     1      49.195   8.665  15.135  0.00  0.00    +0.000 C 
BRANCH  15  16
ATOM     16  S   UNL     1      49.375   7.680  13.593  0.00  0.00    +0.000 S 
BRANCH  16  17
ATOM     17  C   UNL     1      47.691   7.557  13.010  0.00  0.00    +0.000 A 
ATOM     18  C   UNL     1      46.801   8.631  13.002  0.00  0.00    +0.000 A 
ATOM     19  C   UNL     1      45.478   8.440  12.596  0.00  0.00    +0.000 A 
ATOM     20  C   UNL     1      45.032   7.174  12.208  0.00  0.00    +0.000 A 
ATOM     21  C   UNL     1      45.898   6.079  12.227  0.00  0.00    +0.000 A 
ATOM     22  C   UNL     1      47.231   6.293  12.613  0.00  0.00    +0.000 A 
BRANCH  21  23
ATOM     23  N   UNL     1      45.508   4.793  11.793  0.00  0.00    +0.000 N 
ATOM     24  H   UNL     1      45.739   4.080  12.483  0.00  0.00    +0.000 HD
BRANCH  23  25
ATOM     25  C   UNL     1      44.309   4.476  11.058  0.00  0.00    +0.000 C 
ATOM     26  C   UNL     1      43.163   3.949  11.934  0.00  0.00    +0.000 C 
ATOM     27  O   UNL     1      43.132   2.690  11.218  0.00  0.00    +0.000 OA
ATOM     28  C   UNL     1      44.324   3.053  10.481  0.00  0.00    +0.000 C 
ENDBRANCH  23  25
ENDBRANCH  21  23
ENDBRANCH  16  17
ENDBRANCH  15  16
ENDBRANCH   2  15
TORSDOF 8
ENDMDL
