MODEL 1
REMARK VINA RESULT:    -8.833      0.000      0.000
REMARK INTER + INTRA:         -14.811
REMARK INTER:                 -13.480
REMARK INTRA:                  -1.331
REMARK UNBOUND:                -1.331
REMARK  Name = 
REMARK  11 active torsions:
REMARK  status: ('A' for Active; 'I' for Inactive)
REMARK    1  A    between atoms: C_1  and  C_2
REMARK    2  A    between atoms: C_2  and  O_3
REMARK    3  A    between atoms: O_3  and  C_4
REMARK    4  A    between atoms: C_8  and  C_9
REMARK    5  A    between atoms: C_11  and  C_12
REMARK    6  A    between atoms: C_12  and  C_13
REMARK    7  A    between atoms: C_13  and  N_14
REMARK    8  A    between atoms: C_18  and  C_19
REMARK    9  A    between atoms: C_25  and  O_26
REMARK   10  A    between atoms: O_26  and  C_27
REMARK   11  A    between atoms: C_27  and  C_28
REMARK                            x       y       z     vdW  Elec       q    Type
REMARK                         _______ _______ _______ _____ _____    ______ ____
ROOT
ATOM      1  C   UNL     1      47.319   6.386  12.675  0.00  0.00    +0.000 A 
ATOM      2  C   UNL     1      45.987   6.394  12.263  0.00  0.00    +0.000 A 
ATOM      3  C   UNL     1      45.093   5.392  12.650  0.00  0.00    +0.000 A 
ATOM      4  C   UNL     1      45.594   4.389  13.481  0.00  0.00    +0.000 A 
ATOM      5  C   UNL     1      46.941   4.425  13.836  0.00  0.00    +0.000 A 
ATOM      6  N   UNL     1      47.802   5.397  13.458  0.00  0.00    +0.000 NA
ENDROOT
BRANCH   1  11
ATOM      7  C   UNL     1      50.417   8.357  11.670  0.00  0.00    +0.000 A 
ATOM      8  C   UNL     1      49.868   9.609  11.417  0.00  0.00    +0.000 A 
ATOM      9  C   UNL     1      48.516   9.841  11.674  0.00  0.00    +0.000 A 
ATOM     10  C   UNL     1      47.698   8.809  12.143  0.00  0.00    +0.000 A 
ATOM     11  C   UNL     1      48.213   7.524  12.368  0.00  0.00    +0.000 A 
ATOM     12  C   UNL     1      49.599   7.344  12.176  0.00  0.00    +0.000 A 
BRANCH   7  13
ATOM     13  O   UNL     1      51.715   7.978  11.447  0.00  0.00    +0.000 OA
BRANCH  13  15
ATOM     14  C   UNL     1      52.802   8.196   9.329  0.00  0.00    +0.000 C 
ATOM     15  C   UNL     1      51.976   7.290  10.226  0.00  0.00    +0.000 C 
ENDBRANCH  13  15
ENDBRANCH   7  13
ENDBRANCH   1  11
BRANCH   3  16
ATOM     16  C   UNL     1      43.640   5.396  12.203  0.00  0.00    +0.000 C 
BRANCH  16  17
ATOM     17  C   UNL     1      43.323   4.354  11.112  0.00  0.00    +0.000 C 
BRANCH  17  18
ATOM     18  N   UNL     1      43.723   4.773   9.779  0.00  0.00    +0.000 N 
ATOM     19  C   UNL     1      44.672   3.991   9.124  0.00  0.00    +0.000 A 
ATOM     20  C   UNL     1      44.763   2.594   9.233  0.00  0.00    +0.000 A 
ATOM     21  N   UNL     1      45.653   1.825   8.554  0.00  0.00    +0.000 NA
ATOM     22  C   UNL     1      46.460   2.518   7.711  0.00  0.00    +0.000 A 
ATOM     23  C   UNL     1      46.384   3.895   7.584  0.00  0.00    +0.000 A 
ATOM     24  N   UNL     1      45.502   4.654   8.292  0.00  0.00    +0.000 NA
ATOM     25  H   UNL     1      44.008   5.745   9.674  0.00  0.00    +0.000 HD
BRANCH  22  26
ATOM     26  C   UNL     1      47.433   1.737   6.903  0.00  0.00    +0.000 C 
ATOM     27  N   UNL     1      48.512   2.432   6.436  0.00  0.00    +0.000 N 
ATOM     28  O   UNL     1      47.283   0.542   6.672  0.00  0.00    +0.000 OA
ATOM     29  H   UNL     1      48.614   3.420   6.654  0.00  0.00    +0.000 HD
ATOM     30  H   UNL     1      49.220   1.958   5.896  0.00  0.00    +0.000 HD
ENDBRANCH  22  26
ENDBRANCH  17  18
ENDBRANCH  16  17
ENDBRANCH   3  16
BRANCH   5  31
ATOM     31  O   UNL     1      47.387   3.422  14.678  0.00  0.00    +0.000 OA
BRANCH  31  32
ATOM     32  C   UNL     1      47.433   3.845  16.044  0.00  0.00    +0.000 C 
ATOM     33  C   UNL     1      48.197   2.808  16.849  0.00  0.00    +0.000 C 
ENDBRANCH  31  32
ENDBRANCH   5  31
TORSDOF 9
ENDMDL
MODEL 2
REMARK VINA RESULT:    -8.691      1.202      2.294
REMARK INTER + INTRA:         -14.594
REMARK INTER:                 -13.277
REMARK INTRA:                  -1.317
REMARK UNBOUND:                -1.331
REMARK  Name = 
REMARK  11 active torsions:
REMARK  status: ('A' for Active; 'I' for Inactive)
REMARK    1  A    between atoms: C_1  and  C_2
REMARK    2  A    between atoms: C_2  and  O_3
REMARK    3  A    between atoms: O_3  and  C_4
REMARK    4  A    between atoms: C_8  and  C_9
REMARK    5  A    between atoms: C_11  and  C_12
REMARK    6  A    between atoms: C_12  and  C_13
REMARK    7  A    between atoms: C_13  and  N_14
REMARK    8  A    between atoms: C_18  and  C_19
REMARK    9  A    between atoms: C_25  and  O_26
REMARK   10  A    between atoms: O_26  and  C_27
REMARK   11  A    between atoms: C_27  and  C_28
REMARK                            x       y       z     vdW  Elec       q    Type
REMARK                         _______ _______ _______ _____ _____    ______ ____
ROOT
ATOM      1  C   UNL     1      47.287   6.368  12.545  0.00  0.00    +0.000 A 
ATOM      2  C   UNL     1      45.940   6.370  12.185  0.00  0.00    +0.000 A 
ATOM      3  C   UNL     1      45.052   5.400  12.660  0.00  0.00    +0.000 A 
ATOM      4  C   UNL     1      45.576   4.438  13.524  0.00  0.00    +0.000 A 
ATOM      5  C   UNL     1      46.936   4.476  13.823  0.00  0.00    +0.000 A 
ATOM      6  N   UNL     1      47.791   5.418  13.360  0.00  0.00    +0.000 NA
ENDROOT
BRANCH   1  11
ATOM      7  C   UNL     1      48.531   9.882  11.773  0.00  0.00    +0.000 A 
ATOM      8  C   UNL     1      49.906   9.679  11.741  0.00  0.00    +0.000 A 
ATOM      9  C   UNL     1      50.422   8.388  11.864  0.00  0.00    +0.000 A 
ATOM     10  C   UNL     1      49.567   7.300  12.064  0.00  0.00    +0.000 A 
ATOM     11  C   UNL     1      48.178   7.478  12.143  0.00  0.00    +0.000 A 
ATOM     12  C   UNL     1      47.684   8.783  11.933  0.00  0.00    +0.000 A 
BRANCH   7  13
ATOM     13  O   UNL     1      47.885  11.087  11.687  0.00  0.00    +0.000 OA
BRANCH  13  15
ATOM     14  C   UNL     1      45.972  12.055  10.630  0.00  0.00    +0.000 C 
ATOM     15  C   UNL     1      46.460  11.044  11.652  0.00  0.00    +0.000 C 
ENDBRANCH  13  15
ENDBRANCH   7  13
ENDBRANCH   1  11
BRANCH   3  16
ATOM     16  C   UNL     1      43.583   5.397  12.270  0.00  0.00    +0.000 C 
BRANCH  16  17
ATOM     17  C   UNL     1      43.235   4.379  11.166  0.00  0.00    +0.000 C 
BRANCH  17  18
ATOM     18  N   UNL     1      43.661   4.796   9.841  0.00  0.00    +0.000 N 
ATOM     19  C   UNL     1      44.611   4.006   9.199  0.00  0.00    +0.000 A 
ATOM     20  C   UNL     1      44.686   2.607   9.306  0.00  0.00    +0.000 A 
ATOM     21  N   UNL     1      45.578   1.830   8.639  0.00  0.00    +0.000 NA
ATOM     22  C   UNL     1      46.406   2.516   7.811  0.00  0.00    +0.000 A 
ATOM     23  C   UNL     1      46.346   3.894   7.686  0.00  0.00    +0.000 A 
ATOM     24  N   UNL     1      45.462   4.661   8.381  0.00  0.00    +0.000 NA
ATOM     25  H   UNL     1      43.958   5.765   9.742  0.00  0.00    +0.000 HD
BRANCH  22  26
ATOM     26  C   UNL     1      47.383   1.726   7.016  0.00  0.00    +0.000 C 
ATOM     27  N   UNL     1      48.457   2.419   6.535  0.00  0.00    +0.000 N 
ATOM     28  O   UNL     1      47.239   0.527   6.807  0.00  0.00    +0.000 OA
ATOM     29  H   UNL     1      48.553   3.411   6.735  0.00  0.00    +0.000 HD
ATOM     30  H   UNL     1      49.167   1.939   6.004  0.00  0.00    +0.000 HD
ENDBRANCH  22  26
ENDBRANCH  17  18
ENDBRANCH  16  17
ENDBRANCH   3  16
BRANCH   5  31
ATOM     31  O   UNL     1      47.405   3.515  14.700  0.00  0.00    +0.000 OA
BRANCH  31  32
ATOM     32  C   UNL     1      47.443   3.987  16.050  0.00  0.00    +0.000 C 
ATOM     33  C   UNL     1      48.148   2.952  16.909  0.00  0.00    +0.000 C 
ENDBRANCH  31  32
ENDBRANCH   5  31
TORSDOF 9
ENDMDL
MODEL 3
REMARK VINA RESULT:    -8.226      1.634      2.202
REMARK INTER + INTRA:         -13.885
REMARK INTER:                 -12.634
REMARK INTRA:                  -1.251
REMARK UNBOUND:                -1.331
REMARK  Name = 
REMARK  11 active torsions:
REMARK  status: ('A' for Active; 'I' for Inactive)
REMARK    1  A    between atoms: C_1  and  C_2
REMARK    2  A    between atoms: C_2  and  O_3
REMARK    3  A    between atoms: O_3  and  C_4
REMARK    4  A    between atoms: C_8  and  C_9
REMARK    5  A    between atoms: C_11  and  C_12
REMARK    6  A    between atoms: C_12  and  C_13
REMARK    7  A    between atoms: C_13  and  N_14
REMARK    8  A    between atoms: C_18  and  C_19
REMARK    9  A    between atoms: C_25  and  O_26
REMARK   10  A    between atoms: O_26  and  C_27
REMARK   11  A    between atoms: C_27  and  C_28
REMARK                            x       y       z     vdW  Elec       q    Type
REMARK                         _______ _______ _______ _____ _____    ______ ____
ROOT
ATOM      1  C   UNL     1      47.756   6.360  12.915  0.00  0.00    +0.000 A 
ATOM      2  C   UNL     1      46.531   6.625  12.303  0.00  0.00    +0.000 A 
ATOM      3  C   UNL     1      45.411   5.818  12.524  0.00  0.00    +0.000 A 
ATOM      4  C   UNL     1      45.574   4.742  13.398  0.00  0.00    +0.000 A 
ATOM      5  C   UNL     1      46.830   4.517  13.955  0.00  0.00    +0.000 A 
ATOM      6  N   UNL     1      47.911   5.302  13.738  0.00  0.00    +0.000 NA
ENDROOT
BRANCH   1  11
ATOM      7  C   UNL     1      50.961   8.268  13.677  0.00  0.00    +0.000 A 
ATOM      8  C   UNL     1      51.262   8.797  12.428  0.00  0.00    +0.000 A 
ATOM      9  C   UNL     1      50.373   8.624  11.365  0.00  0.00    +0.000 A 
ATOM     10  C   UNL     1      49.200   7.883  11.539  0.00  0.00    +0.000 A 
ATOM     11  C   UNL     1      48.889   7.302  12.776  0.00  0.00    +0.000 A 
ATOM     12  C   UNL     1      49.767   7.563  13.849  0.00  0.00    +0.000 A 
BRANCH   7  13
ATOM     13  O   UNL     1      51.743   8.339  14.800  0.00  0.00    +0.000 OA
BRANCH  13  15
ATOM     14  C   UNL     1      51.202   8.947  17.048  0.00  0.00    +0.000 C 
ATOM     15  C   UNL     1      51.169   7.842  16.007  0.00  0.00    +0.000 C 
ENDBRANCH  13  15
ENDBRANCH   7  13
ENDBRANCH   1  11
BRANCH   3  16
ATOM     16  C   UNL     1      44.074   6.102  11.860  0.00  0.00    +0.000 C 
BRANCH  16  17
ATOM     17  C   UNL     1      43.524   4.919  11.038  0.00  0.00    +0.000 C 
BRANCH  17  18
ATOM     18  N   UNL     1      43.856   4.993   9.626  0.00  0.00    +0.000 N 
ATOM     19  C   UNL     1      44.695   4.005   9.116  0.00  0.00    +0.000 A 
ATOM     20  C   UNL     1      44.693   2.665   9.536  0.00  0.00    +0.000 A 
ATOM     21  N   UNL     1      45.473   1.688   9.004  0.00  0.00    +0.000 NA
ATOM     22  C   UNL     1      46.265   2.103   7.982  0.00  0.00    +0.000 A 
ATOM     23  C   UNL     1      46.280   3.418   7.548  0.00  0.00    +0.000 A 
ATOM     24  N   UNL     1      45.509   4.389   8.110  0.00  0.00    +0.000 NA
ATOM     25  H   UNL     1      44.202   5.888   9.285  0.00  0.00    +0.000 HD
BRANCH  22  26
ATOM     26  C   UNL     1      47.117   1.079   7.322  0.00  0.00    +0.000 C 
ATOM     27  N   UNL     1      46.814  -0.222   7.609  0.00  0.00    +0.000 N 
ATOM     28  O   UNL     1      48.033   1.378   6.564  0.00  0.00    +0.000 OA
ATOM     29  H   UNL     1      46.041  -0.438   8.234  0.00  0.00    +0.000 HD
ATOM     30  H   UNL     1      47.341  -0.967   7.181  0.00  0.00    +0.000 HD
ENDBRANCH  22  26
ENDBRANCH  17  18
ENDBRANCH  16  17
ENDBRANCH   3  16
BRANCH   5  31
ATOM     31  O   UNL     1      46.938   3.452  14.831  0.00  0.00    +0.000 OA
BRANCH  31  32
ATOM     32  C   UNL     1      47.242   3.877  16.163  0.00  0.00    +0.000 C 
ATOM     33  C   UNL     1      48.272   2.930  16.753  0.00  0.00    +0.000 C 
ENDBRANCH  31  32
ENDBRANCH   5  31
TORSDOF 9
ENDMDL
MODEL 4
REMARK VINA RESULT:    -7.918      1.765      5.121
REMARK INTER + INTRA:         -13.414
REMARK INTER:                 -12.217
REMARK INTRA:                  -1.197
REMARK UNBOUND:                -1.331
REMARK  Name = 
REMARK  11 active torsions:
REMARK  status: ('A' for Active; 'I' for Inactive)
REMARK    1  A    between atoms: C_1  and  C_2
REMARK    2  A    between atoms: C_2  and  O_3
REMARK    3  A    between atoms: O_3  and  C_4
REMARK    4  A    between atoms: C_8  and  C_9
REMARK    5  A    between atoms: C_11  and  C_12
REMARK    6  A    between atoms: C_12  and  C_13
REMARK    7  A    between atoms: C_13  and  N_14
REMARK    8  A    between atoms: C_18  and  C_19
REMARK    9  A    between atoms: C_25  and  O_26
REMARK   10  A    between atoms: O_26  and  C_27
REMARK   11  A    between atoms: C_27  and  C_28
REMARK                            x       y       z     vdW  Elec       q    Type
REMARK                         _______ _______ _______ _____ _____    ______ ____
ROOT
ATOM      1  C   UNL     1      47.156   5.403  14.161  0.00  0.00    +0.000 A 
ATOM      2  C   UNL     1      45.817   5.264  13.799  0.00  0.00    +0.000 A 
ATOM      3  C   UNL     1      45.322   5.792  12.603  0.00  0.00    +0.000 A 
ATOM      4  C   UNL     1      46.236   6.452  11.782  0.00  0.00    +0.000 A 
ATOM      5  C   UNL     1      47.553   6.579  12.214  0.00  0.00    +0.000 A 
ATOM      6  N   UNL     1      48.028   6.067  13.373  0.00  0.00    +0.000 NA
ENDROOT
BRANCH   1  11
ATOM      7  C   UNL     1      48.452   4.833  17.696  0.00  0.00    +0.000 A 
ATOM      8  C   UNL     1      48.357   3.450  17.796  0.00  0.00    +0.000 A 
ATOM      9  C   UNL     1      47.975   2.695  16.685  0.00  0.00    +0.000 A 
ATOM     10  C   UNL     1      47.644   3.326  15.483  0.00  0.00    +0.000 A 
ATOM     11  C   UNL     1      47.689   4.722  15.362  0.00  0.00    +0.000 A 
ATOM     12  C   UNL     1      48.157   5.449  16.477  0.00  0.00    +0.000 A 
BRANCH   7  13
ATOM     13  O   UNL     1      48.791   5.701  18.701  0.00  0.00    +0.000 OA
BRANCH  13  15
ATOM     14  C   UNL     1      47.405   6.221  20.578  0.00  0.00    +0.000 C 
ATOM     15  C   UNL     1      48.472   5.291  20.029  0.00  0.00    +0.000 C 
ENDBRANCH  13  15
ENDBRANCH   7  13
ENDBRANCH   1  11
BRANCH   3  16
ATOM     16  C   UNL     1      43.862   5.644  12.204  0.00  0.00    +0.000 C 
BRANCH  16  17
ATOM     17  C   UNL     1      43.606   4.505  11.198  0.00  0.00    +0.000 C 
BRANCH  17  18
ATOM     18  N   UNL     1      43.925   4.863   9.826  0.00  0.00    +0.000 N 
ATOM     19  C   UNL     1      44.828   4.047   9.148  0.00  0.00    +0.000 A 
ATOM     20  C   UNL     1      44.919   2.655   9.311  0.00  0.00    +0.000 A 
ATOM     21  N   UNL     1      45.762   1.851   8.612  0.00  0.00    +0.000 NA
ATOM     22  C   UNL     1      46.518   2.502   7.692  0.00  0.00    +0.000 A 
ATOM     23  C   UNL     1      46.441   3.872   7.511  0.00  0.00    +0.000 A 
ATOM     24  N   UNL     1      45.608   4.667   8.238  0.00  0.00    +0.000 NA
ATOM     25  H   UNL     1      44.207   5.827   9.661  0.00  0.00    +0.000 HD
BRANCH  22  26
ATOM     26  C   UNL     1      47.436   1.679   6.860  0.00  0.00    +0.000 C 
ATOM     27  N   UNL     1      48.456   2.356   6.253  0.00  0.00    +0.000 N 
ATOM     28  O   UNL     1      47.293   0.469   6.728  0.00  0.00    +0.000 OA
ATOM     29  H   UNL     1      48.554   3.358   6.390  0.00  0.00    +0.000 HD
ATOM     30  H   UNL     1      49.125   1.855   5.689  0.00  0.00    +0.000 HD
ENDBRANCH  22  26
ENDBRANCH  17  18
ENDBRANCH  16  17
ENDBRANCH   3  16
BRANCH   5  31
ATOM     31  O   UNL     1      48.428   7.223  11.357  0.00  0.00    +0.000 OA
BRANCH  31  32
ATOM     32  C   UNL     1      49.284   8.138  12.046  0.00  0.00    +0.000 C 
ATOM     33  C   UNL     1      48.635   9.512  12.040  0.00  0.00    +0.000 C 
ENDBRANCH  31  32
ENDBRANCH   5  31
TORSDOF 9
ENDMDL
MODEL 5
REMARK VINA RESULT:    -7.889      2.737      3.803
REMARK INTER + INTRA:         -13.371
REMARK INTER:                 -12.078
REMARK INTRA:                  -1.293
REMARK UNBOUND:                -1.331
REMARK  Name = 
REMARK  11 active torsions:
REMARK  status: ('A' for Active; 'I' for Inactive)
REMARK    1  A    between atoms: C_1  and  C_2
REMARK    2  A    between atoms: C_2  and  O_3
REMARK    3  A    between atoms: O_3  and  C_4
REMARK    4  A    between atoms: C_8  and  C_9
REMARK    5  A    between atoms: C_11  and  C_12
REMARK    6  A    between atoms: C_12  and  C_13
REMARK    7  A    between atoms: C_13  and  N_14
REMARK    8  A    between atoms: C_18  and  C_19
REMARK    9  A    between atoms: C_25  and  O_26
REMARK   10  A    between atoms: O_26  and  C_27
REMARK   11  A    between atoms: C_27  and  C_28
REMARK                            x       y       z     vdW  Elec       q    Type
REMARK                         _______ _______ _______ _____ _____    ______ ____
ROOT
ATOM      1  C   UNL     1      45.756   7.315  12.491  0.00  0.00    +0.000 A 
ATOM      2  C   UNL     1      44.635   6.525  12.238  0.00  0.00    +0.000 A 
ATOM      3  C   UNL     1      44.513   5.235  12.764  0.00  0.00    +0.000 A 
ATOM      4  C   UNL     1      45.560   4.782  13.566  0.00  0.00    +0.000 A 
ATOM      5  C   UNL     1      46.663   5.610  13.758  0.00  0.00    +0.000 A 
ATOM      6  N   UNL     1      46.777   6.858  13.247  0.00  0.00    +0.000 NA
ENDROOT
BRANCH   1  11
ATOM      7  C   UNL     1      44.631  10.751  11.299  0.00  0.00    +0.000 A 
ATOM      8  C   UNL     1      45.779  11.502  11.524  0.00  0.00    +0.000 A 
ATOM      9  C   UNL     1      46.947  10.875  11.962  0.00  0.00    +0.000 A 
ATOM     10  C   UNL     1      46.959   9.501  12.218  0.00  0.00    +0.000 A 
ATOM     11  C   UNL     1      45.805   8.723  12.040  0.00  0.00    +0.000 A 
ATOM     12  C   UNL     1      44.666   9.372  11.520  0.00  0.00    +0.000 A 
BRANCH   7  13
ATOM     13  O   UNL     1      43.414  11.229  10.892  0.00  0.00    +0.000 OA
BRANCH  13  15
ATOM     14  C   UNL     1      43.315  10.921   8.524  0.00  0.00    +0.000 C 
ATOM     15  C   UNL     1      42.751  10.492   9.867  0.00  0.00    +0.000 C 
ENDBRANCH  13  15
ENDBRANCH   7  13
ENDBRANCH   1  11
BRANCH   3  16
ATOM     16  C   UNL     1      43.293   4.370  12.490  0.00  0.00    +0.000 C 
BRANCH  16  17
ATOM     17  C   UNL     1      43.274   3.752  11.078  0.00  0.00    +0.000 C 
BRANCH  17  18
ATOM     18  N   UNL     1      44.314   2.758  10.868  0.00  0.00    +0.000 N 
ATOM     19  C   UNL     1      44.997   2.798   9.654  0.00  0.00    +0.000 A 
ATOM     20  C   UNL     1      45.314   3.975   8.958  0.00  0.00    +0.000 A 
ATOM     21  N   UNL     1      46.026   4.020   7.802  0.00  0.00    +0.000 NA
ATOM     22  C   UNL     1      46.449   2.807   7.362  0.00  0.00    +0.000 A 
ATOM     23  C   UNL     1      46.152   1.634   8.035  0.00  0.00    +0.000 A 
ATOM     24  N   UNL     1      45.416   1.606   9.180  0.00  0.00    +0.000 NA
ATOM     25  H   UNL     1      44.058   1.788  11.039  0.00  0.00    +0.000 HD
BRANCH  22  26
ATOM     26  C   UNL     1      47.270   2.782   6.122  0.00  0.00    +0.000 C 
ATOM     27  N   UNL     1      48.588   2.460   6.289  0.00  0.00    +0.000 N 
ATOM     28  O   UNL     1      46.798   3.028   5.019  0.00  0.00    +0.000 OA
ATOM     29  H   UNL     1      48.947   2.250   7.216  0.00  0.00    +0.000 HD
ATOM     30  H   UNL     1      49.196   2.407   5.487  0.00  0.00    +0.000 HD
ENDBRANCH  22  26
ENDBRANCH  17  18
ENDBRANCH  16  17
ENDBRANCH   3  16
BRANCH   5  31
ATOM     31  O   UNL     1      47.666   5.126  14.578  0.00  0.00    +0.000 OA
BRANCH  31  32
ATOM     32  C   UNL     1      47.238   4.000  15.350  0.00  0.00    +0.000 C 
ATOM     33  C   UNL     1      47.483   4.295  16.820  0.00  0.00    +0.000 C 
ENDBRANCH  31  32
ENDBRANCH   5  31
TORSDOF 9
ENDMDL
MODEL 6
REMARK VINA RESULT:    -7.177      2.255      3.354
REMARK INTER + INTRA:         -12.284
REMARK INTER:                 -11.164
REMARK INTRA:                  -1.120
REMARK UNBOUND:                -1.331
REMARK  Name = 
REMARK  11 active torsions:
REMARK  status: ('A' for Active; 'I' for Inactive)
REMARK    1  A    between atoms: C_1  and  C_2
REMARK    2  A    between atoms: C_2  and  O_3
REMARK    3  A    between atoms: O_3  and  C_4
REMARK    4  A    between atoms: C_8  and  C_9
REMARK    5  A    between atoms: C_11  and  C_12
REMARK    6  A    between atoms: C_12  and  C_13
REMARK    7  A    between atoms: C_13  and  N_14
REMARK    8  A    between atoms: C_18  and  C_19
REMARK    9  A    between atoms: C_25  and  O_26
REMARK   10  A    between atoms: O_26  and  C_27
REMARK   11  A    between atoms: C_27  and  C_28
REMARK                            x       y       z     vdW  Elec       q    Type
REMARK                         _______ _______ _______ _____ _____    ______ ____
ROOT
ATOM      1  C   UNL     1      47.491   7.753  12.555  0.00  0.00    +0.000 A 
ATOM      2  C   UNL     1      46.917   6.490  12.415  0.00  0.00    +0.000 A 
ATOM      3  C   UNL     1      45.534   6.319  12.311  0.00  0.00    +0.000 A 
ATOM      4  C   UNL     1      44.754   7.476  12.339  0.00  0.00    +0.000 A 
ATOM      5  C   UNL     1      45.387   8.705  12.508  0.00  0.00    +0.000 A 
ATOM      6  N   UNL     1      46.727   8.865  12.608  0.00  0.00    +0.000 NA
ENDROOT
BRANCH   1  11
ATOM      7  C   UNL     1      51.069   7.910  11.266  0.00  0.00    +0.000 A 
ATOM      8  C   UNL     1      51.700   8.580  12.308  0.00  0.00    +0.000 A 
ATOM      9  C   UNL     1      50.991   8.886  13.471  0.00  0.00    +0.000 A 
ATOM     10  C   UNL     1      49.635   8.562  13.578  0.00  0.00    +0.000 A 
ATOM     11  C   UNL     1      48.960   7.923  12.528  0.00  0.00    +0.000 A 
ATOM     12  C   UNL     1      49.725   7.555  11.400  0.00  0.00    +0.000 A 
BRANCH   7  13
ATOM     13  O   UNL     1      51.629   7.565  10.064  0.00  0.00    +0.000 OA
BRANCH  13  15
ATOM     14  C   UNL     1      53.322   6.224   9.039  0.00  0.00    +0.000 C 
ATOM     15  C   UNL     1      53.031   7.303  10.067  0.00  0.00    +0.000 C 
ENDBRANCH  13  15
ENDBRANCH   7  13
ENDBRANCH   1  11
BRANCH   3  16
ATOM     16  C   UNL     1      44.904   4.945  12.158  0.00  0.00    +0.000 C 
BRANCH  16  17
ATOM     17  C   UNL     1      43.749   4.900  11.138  0.00  0.00    +0.000 C 
BRANCH  17  18
ATOM     18  N   UNL     1      44.168   5.190   9.777  0.00  0.00    +0.000 N 
ATOM     19  C   UNL     1      44.975   4.247   9.145  0.00  0.00    +0.000 A 
ATOM     20  C   UNL     1      44.867   2.858   9.325  0.00  0.00    +0.000 A 
ATOM     21  N   UNL     1      45.617   1.935   8.670  0.00  0.00    +0.000 NA
ATOM     22  C   UNL     1      46.492   2.461   7.775  0.00  0.00    +0.000 A 
ATOM     23  C   UNL     1      46.612   3.826   7.578  0.00  0.00    +0.000 A 
ATOM     24  N   UNL     1      45.869   4.739   8.262  0.00  0.00    +0.000 NA
ATOM     25  H   UNL     1      44.587   6.104   9.615  0.00  0.00    +0.000 HD
BRANCH  22  26
ATOM     26  C   UNL     1      47.319   1.507   6.990  0.00  0.00    +0.000 C 
ATOM     27  N   UNL     1      48.466   2.018   6.452  0.00  0.00    +0.000 N 
ATOM     28  O   UNL     1      46.997   0.334   6.836  0.00  0.00    +0.000 OA
ATOM     29  H   UNL     1      48.711   2.992   6.607  0.00  0.00    +0.000 HD
ATOM     30  H   UNL     1      49.082   1.420   5.923  0.00  0.00    +0.000 HD
ENDBRANCH  22  26
ENDBRANCH  17  18
ENDBRANCH  16  17
ENDBRANCH   3  16
BRANCH   5  31
ATOM     31  O   UNL     1      44.575   9.825  12.508  0.00  0.00    +0.000 OA
BRANCH  31  32
ATOM     32  C   UNL     1      44.587  10.502  11.248  0.00  0.00    +0.000 C 
ATOM     33  C   UNL     1      45.073  11.925  11.462  0.00  0.00    +0.000 C 
ENDBRANCH  31  32
ENDBRANCH   5  31
TORSDOF 9
ENDMDL
MODEL 7
REMARK VINA RESULT:    -7.155      3.185      7.910
REMARK INTER + INTRA:         -12.250
REMARK INTER:                 -10.998
REMARK INTRA:                  -1.251
REMARK UNBOUND:                -1.331
REMARK  Name = 
REMARK  11 active torsions:
REMARK  status: ('A' for Active; 'I' for Inactive)
REMARK    1  A    between atoms: C_1  and  C_2
REMARK    2  A    between atoms: C_2  and  O_3
REMARK    3  A    between atoms: O_3  and  C_4
REMARK    4  A    between atoms: C_8  and  C_9
REMARK    5  A    between atoms: C_11  and  C_12
REMARK    6  A    between atoms: C_12  and  C_13
REMARK    7  A    between atoms: C_13  and  N_14
REMARK    8  A    between atoms: C_18  and  C_19
REMARK    9  A    between atoms: C_25  and  O_26
REMARK   10  A    between atoms: O_26  and  C_27
REMARK   11  A    between atoms: C_27  and  C_28
REMARK                            x       y       z     vdW  Elec       q    Type
REMARK                         _______ _______ _______ _____ _____    ______ ____
ROOT
ATOM      1  C   UNL     1      45.832   6.698  11.325  0.00  0.00    +0.000 A 
ATOM      2  C   UNL     1      47.186   6.818  11.638  0.00  0.00    +0.000 A 
ATOM      3  C   UNL     1      47.704   7.977  12.223  0.00  0.00    +0.000 A 
ATOM      4  C   UNL     1      46.798   9.004  12.491  0.00  0.00    +0.000 A 
ATOM      5  C   UNL     1      45.464   8.832  12.130  0.00  0.00    +0.000 A 
ATOM      6  N   UNL     1      44.968   7.707  11.563  0.00  0.00    +0.000 NA
ENDROOT
BRANCH   1  11
ATOM      7  C   UNL     1      45.048   3.765   9.027  0.00  0.00    +0.000 A 
ATOM      8  C   UNL     1      44.576   2.829   9.939  0.00  0.00    +0.000 A 
ATOM      9  C   UNL     1      44.413   3.183  11.280  0.00  0.00    +0.000 A 
ATOM     10  C   UNL     1      44.763   4.463  11.721  0.00  0.00    +0.000 A 
ATOM     11  C   UNL     1      45.281   5.416  10.833  0.00  0.00    +0.000 A 
ATOM     12  C   UNL     1      45.358   5.053   9.471  0.00  0.00    +0.000 A 
BRANCH   7  13
ATOM     13  O   UNL     1      45.279   3.557   7.693  0.00  0.00    +0.000 OA
BRANCH  13  15
ATOM     14  C   UNL     1      47.140   2.185   7.084  0.00  0.00    +0.000 C 
ATOM     15  C   UNL     1      46.640   3.607   7.268  0.00  0.00    +0.000 C 
ENDBRANCH  13  15
ENDBRANCH   7  13
ENDBRANCH   1  11
BRANCH   3  16
ATOM     16  C   UNL     1      49.178   8.113  12.566  0.00  0.00    +0.000 C 
BRANCH  16  17
ATOM     17  C   UNL     1      49.448   8.349  14.066  0.00  0.00    +0.000 C 
BRANCH  17  18
ATOM     18  N   UNL     1      50.225   7.290  14.687  0.00  0.00    +0.000 N 
ATOM     19  C   UNL     1      49.538   6.380  15.487  0.00  0.00    +0.000 A 
ATOM     20  C   UNL     1      48.232   5.928  15.236  0.00  0.00    +0.000 A 
ATOM     21  N   UNL     1      47.580   5.002  15.984  0.00  0.00    +0.000 NA
ATOM     22  C   UNL     1      48.311   4.502  17.013  0.00  0.00    +0.000 A 
ATOM     23  C   UNL     1      49.601   4.928  17.276  0.00  0.00    +0.000 A 
ATOM     24  N   UNL     1      50.231   5.877  16.530  0.00  0.00    +0.000 NA
ATOM     25  H   UNL     1      51.056   7.577  15.201  0.00  0.00    +0.000 HD
BRANCH  22  26
ATOM     26  C   UNL     1      47.676   3.451  17.852  0.00  0.00    +0.000 C 
ATOM     27  N   UNL     1      48.308   3.168  19.030  0.00  0.00    +0.000 N 
ATOM     28  O   UNL     1      46.647   2.876  17.514  0.00  0.00    +0.000 OA
ATOM     29  H   UNL     1      49.154   3.670  19.287  0.00  0.00    +0.000 HD
ATOM     30  H   UNL     1      47.919   2.478  19.654  0.00  0.00    +0.000 HD
ENDBRANCH  22  26
ENDBRANCH  17  18
ENDBRANCH  16  17
ENDBRANCH   3  16
BRANCH   5  31
ATOM     31  O   UNL     1      44.600   9.868  12.435  0.00  0.00    +0.000 OA
BRANCH  31  32
ATOM     32  C   UNL     1      44.823  11.017  11.612  0.00  0.00    +0.000 C 
ATOM     33  C   UNL     1      43.976  10.889  10.357  0.00  0.00    +0.000 C 
ENDBRANCH  31  32
ENDBRANCH   5  31
TORSDOF 9
ENDMDL
MODEL 8
REMARK VINA RESULT:    -7.054      3.555      8.026
REMARK INTER + INTRA:         -12.096
REMARK INTER:                 -11.074
REMARK INTRA:                  -1.022
REMARK UNBOUND:                -1.331
REMARK  Name = 
REMARK  11 active torsions:
REMARK  status: ('A' for Active; 'I' for Inactive)
REMARK    1  A    between atoms: C_1  and  C_2
REMARK    2  A    between atoms: C_2  and  O_3
REMARK    3  A    between atoms: O_3  and  C_4
REMARK    4  A    between atoms: C_8  and  C_9
REMARK    5  A    between atoms: C_11  and  C_12
REMARK    6  A    between atoms: C_12  and  C_13
REMARK    7  A    between atoms: C_13  and  N_14
REMARK    8  A    between atoms: C_18  and  C_19
REMARK    9  A    between atoms: C_25  and  O_26
REMARK   10  A    between atoms: O_26  and  C_27
REMARK   11  A    between atoms: C_27  and  C_28
REMARK                            x       y       z     vdW  Elec       q    Type
REMARK                         _______ _______ _______ _____ _____    ______ ____
ROOT
ATOM      1  C   UNL     1      45.743   6.314  11.588  0.00  0.00    +0.000 A 
ATOM      2  C   UNL     1      46.905   6.136  12.338  0.00  0.00    +0.000 A 
ATOM      3  C   UNL     1      47.384   7.130  13.197  0.00  0.00    +0.000 A 
ATOM      4  C   UNL     1      46.634   8.304  13.279  0.00  0.00    +0.000 A 
ATOM      5  C   UNL     1      45.497   8.429  12.484  0.00  0.00    +0.000 A 
ATOM      6  N   UNL     1      45.038   7.464  11.654  0.00  0.00    +0.000 NA
ENDROOT
BRANCH   1  11
ATOM      7  C   UNL     1      45.117   3.920   8.696  0.00  0.00    +0.000 A 
ATOM      8  C   UNL     1      44.429   2.897   9.338  0.00  0.00    +0.000 A 
ATOM      9  C   UNL     1      44.077   3.031  10.683  0.00  0.00    +0.000 A 
ATOM     10  C   UNL     1      44.450   4.172  11.400  0.00  0.00    +0.000 A 
ATOM     11  C   UNL     1      45.180   5.202  10.791  0.00  0.00    +0.000 A 
ATOM     12  C   UNL     1      45.449   5.072   9.412  0.00  0.00    +0.000 A 
BRANCH   7  13
ATOM     13  O   UNL     1      45.545   3.919   7.395  0.00  0.00    +0.000 OA
BRANCH  13  15
ATOM     14  C   UNL     1      47.104   2.139   7.054  0.00  0.00    +0.000 C 
ATOM     15  C   UNL     1      46.928   3.642   7.181  0.00  0.00    +0.000 C 
ENDBRANCH  13  15
ENDBRANCH   7  13
ENDBRANCH   1  11
BRANCH   3  16
ATOM     16  C   UNL     1      48.650   6.942  14.016  0.00  0.00    +0.000 C 
BRANCH  16  17
ATOM     17  C   UNL     1      48.536   7.455  15.465  0.00  0.00    +0.000 C 
BRANCH  17  18
ATOM     18  N   UNL     1      48.065   6.448  16.400  0.00  0.00    +0.000 N 
ATOM     19  C   UNL     1      48.927   5.392  16.686  0.00  0.00    +0.000 A 
ATOM     20  C   UNL     1      50.324   5.508  16.773  0.00  0.00    +0.000 A 
ATOM     21  N   UNL     1      51.163   4.491  17.104  0.00  0.00    +0.000 NA
ATOM     22  C   UNL     1      50.536   3.320  17.383  0.00  0.00    +0.000 A 
ATOM     23  C   UNL     1      49.160   3.185  17.309  0.00  0.00    +0.000 A 
ATOM     24  N   UNL     1      48.336   4.208  16.951  0.00  0.00    +0.000 NA
ATOM     25  H   UNL     1      47.148   6.046  16.213  0.00  0.00    +0.000 HD
BRANCH  22  26
ATOM     26  C   UNL     1      51.388   2.173  17.794  0.00  0.00    +0.000 C 
ATOM     27  N   UNL     1      52.379   2.460  18.690  0.00  0.00    +0.000 N 
ATOM     28  O   UNL     1      51.212   1.039  17.363  0.00  0.00    +0.000 OA
ATOM     29  H   UNL     1      52.492   3.408  19.038  0.00  0.00    +0.000 HD
ATOM     30  H   UNL     1      52.981   1.723  19.025  0.00  0.00    +0.000 HD
ENDBRANCH  22  26
ENDBRANCH  17  18
ENDBRANCH  16  17
ENDBRANCH   3  16
BRANCH   5  31
ATOM     31  O   UNL     1      44.775   9.601  12.615  0.00  0.00    +0.000 OA
BRANCH  31  32
ATOM     32  C   UNL     1      44.779  10.375  11.412  0.00  0.00    +0.000 C 
ATOM     33  C   UNL     1      45.792  11.497  11.557  0.00  0.00    +0.000 C 
ENDBRANCH  31  32
ENDBRANCH   5  31
TORSDOF 9
ENDMDL
MODEL 9
REMARK VINA RESULT:    -6.590      2.581      3.913
REMARK INTER + INTRA:         -11.389
REMARK INTER:                 -10.472
REMARK INTRA:                  -0.916
REMARK UNBOUND:                -1.331
REMARK  Name = 
REMARK  11 active torsions:
REMARK  status: ('A' for Active; 'I' for Inactive)
REMARK    1  A    between atoms: C_1  and  C_2
REMARK    2  A    between atoms: C_2  and  O_3
REMARK    3  A    between atoms: O_3  and  C_4
REMARK    4  A    between atoms: C_8  and  C_9
REMARK    5  A    between atoms: C_11  and  C_12
REMARK    6  A    between atoms: C_12  and  C_13
REMARK    7  A    between atoms: C_13  and  N_14
REMARK    8  A    between atoms: C_18  and  C_19
REMARK    9  A    between atoms: C_25  and  O_26
REMARK   10  A    between atoms: O_26  and  C_27
REMARK   11  A    between atoms: C_27  and  C_28
REMARK                            x       y       z     vdW  Elec       q    Type
REMARK                         _______ _______ _______ _____ _____    ______ ____
ROOT
ATOM      1  C   UNL     1      46.096   7.427  12.792  0.00  0.00    +0.000 A 
ATOM      2  C   UNL     1      45.296   6.289  12.883  0.00  0.00    +0.000 A 
ATOM      3  C   UNL     1      44.081   6.189  12.198  0.00  0.00    +0.000 A 
ATOM      4  C   UNL     1      43.715   7.279  11.407  0.00  0.00    +0.000 A 
ATOM      5  C   UNL     1      44.546   8.396  11.380  0.00  0.00    +0.000 A 
ATOM      6  N   UNL     1      45.721   8.487  12.045  0.00  0.00    +0.000 NA
ENDROOT
BRANCH   1  11
ATOM      7  C   UNL     1      49.459   8.717  14.025  0.00  0.00    +0.000 A 
ATOM      8  C   UNL     1      49.837   7.697  14.890  0.00  0.00    +0.000 A 
ATOM      9  C   UNL     1      49.054   6.545  14.993  0.00  0.00    +0.000 A 
ATOM     10  C   UNL     1      47.868   6.429  14.262  0.00  0.00    +0.000 A 
ATOM     11  C   UNL     1      47.438   7.459  13.413  0.00  0.00    +0.000 A 
ATOM     12  C   UNL     1      48.292   8.573  13.271  0.00  0.00    +0.000 A 
BRANCH   7  13
ATOM     13  O   UNL     1      50.111   9.907  13.838  0.00  0.00    +0.000 OA
BRANCH  13  15
ATOM     14  C   UNL     1      51.919  11.192  12.945  0.00  0.00    +0.000 C 
ATOM     15  C   UNL     1      51.059   9.952  12.773  0.00  0.00    +0.000 C 
ENDBRANCH  13  15
ENDBRANCH   7  13
ENDBRANCH   1  11
BRANCH   3  16
ATOM     16  C   UNL     1      43.205   4.951  12.294  0.00  0.00    +0.000 C 
BRANCH  16  17
ATOM     17  C   UNL     1      43.479   3.909  11.191  0.00  0.00    +0.000 C 
BRANCH  17  18
ATOM     18  N   UNL     1      43.791   4.501   9.901  0.00  0.00    +0.000 N 
ATOM     19  C   UNL     1      44.777   3.881   9.137  0.00  0.00    +0.000 A 
ATOM     20  C   UNL     1      44.992   2.494   9.089  0.00  0.00    +0.000 A 
ATOM     21  N   UNL     1      45.918   1.884   8.305  0.00  0.00    +0.000 NA
ATOM     22  C   UNL     1      46.630   2.733   7.520  0.00  0.00    +0.000 A 
ATOM     23  C   UNL     1      46.431   4.103   7.547  0.00  0.00    +0.000 A 
ATOM     24  N   UNL     1      45.516   4.700   8.358  0.00  0.00    +0.000 NA
ATOM     25  H   UNL     1      43.987   5.500   9.894  0.00  0.00    +0.000 HD
BRANCH  22  26
ATOM     26  C   UNL     1      47.634   2.131   6.604  0.00  0.00    +0.000 C 
ATOM     27  N   UNL     1      47.968   2.882   5.512  0.00  0.00    +0.000 N 
ATOM     28  O   UNL     1      48.138   1.034   6.813  0.00  0.00    +0.000 OA
ATOM     29  H   UNL     1      47.540   3.794   5.372  0.00  0.00    +0.000 HD
ATOM     30  H   UNL     1      48.657   2.541   4.860  0.00  0.00    +0.000 HD
ENDBRANCH  22  26
ENDBRANCH  17  18
ENDBRANCH  16  17
ENDBRANCH   3  16
BRANCH   5  31
ATOM     31  O   UNL     1      44.152   9.442  10.566  0.00  0.00    +0.000 OA
BRANCH  31  32
ATOM     32  C   UNL     1      42.752   9.717  10.678  0.00  0.00    +0.000 C 
ATOM     33  C   UNL     1      42.574  11.108  11.262  0.00  0.00    +0.000 C 
ENDBRANCH  31  32
ENDBRANCH   5  31
TORSDOF 9
ENDMDL
