MODEL 1
REMARK VINA RESULT:    -8.573      0.000      0.000
REMARK INTER + INTRA:         -12.226
REMARK INTER:                 -11.579
REMARK INTRA:                  -0.647
REMARK UNBOUND:                -0.647
REMARK  Name = 
REMARK  6 active torsions:
REMARK  status: ('A' for Active; 'I' for Inactive)
REMARK    1  A    between atoms: C_4  and  C_5
REMARK    2  A    between atoms: C_9  and  C_10
REMARK    3  A    between atoms: C_10  and  O_11
REMARK    4  A    between atoms: O_11  and  C_12
REMARK    5  A    between atoms: C_16  and  C_17
REMARK    6  A    between atoms: C_24  and  C_25
REMARK                            x       y       z     vdW  Elec       q    Type
REMARK                         _______ _______ _______ _____ _____    ______ ____
ROOT
ATOM      1  C   UNL     1      46.172   6.094  12.538  0.00  0.00    +0.000 A 
ATOM      2  C   UNL     1      46.964   5.235  13.321  0.00  0.00    +0.000 A 
ATOM      3  C   UNL     1      46.658   3.877  13.458  0.00  0.00    +0.000 A 
ATOM      4  C   UNL     1      45.528   3.348  12.841  0.00  0.00    +0.000 A 
ATOM      5  C   UNL     1      44.695   4.175  12.082  0.00  0.00    +0.000 A 
ATOM      6  C   UNL     1      45.045   5.526  11.910  0.00  0.00    +0.000 A 
ENDROOT
BRANCH   1  10
ATOM      7  F   UNL     1      49.361   9.788  12.616  0.00  0.00    +0.000 F 
ATOM      8  C   UNL     1      48.102   9.368  12.431  0.00  0.00    +0.000 A 
ATOM      9  C   UNL     1      47.807   8.015  12.568  0.00  0.00    +0.000 A 
ATOM     10  C   UNL     1      46.497   7.536  12.393  0.00  0.00    +0.000 A 
ATOM     11  C   UNL     1      45.508   8.487  12.067  0.00  0.00    +0.000 A 
ATOM     12  C   UNL     1      45.805   9.856  11.905  0.00  0.00    +0.000 A 
ATOM     13  C   UNL     1      47.120  10.288  12.100  0.00  0.00    +0.000 A 
BRANCH  12  14
ATOM     14  C   UNL     1      44.735  10.848  11.527  0.00  0.00    +0.000 C 
ATOM     15  F   UNL     1      43.486  10.483  11.932  0.00  0.00    +0.000 F 
ATOM     16  F   UNL     1      44.957  12.081  12.058  0.00  0.00    +0.000 F 
ATOM     17  F   UNL     1      44.651  11.028  10.180  0.00  0.00    +0.000 F 
ENDBRANCH  12  14
ENDBRANCH   1  10
BRANCH   5  18
ATOM     18  C   UNL     1      43.436   3.629  11.455  0.00  0.00    +0.000 C 
BRANCH  18  19
ATOM     19  O   UNL     1      43.786   2.619  10.514  0.00  0.00    +0.000 OA
BRANCH  19  20
ATOM     20  C   UNL     1      44.622   2.992   9.497  0.00  0.00    +0.000 A 
ATOM     21  C   UNL     1      44.805   4.289   9.016  0.00  0.00    +0.000 A 
ATOM     22  C   UNL     1      45.699   4.532   7.970  0.00  0.00    +0.000 A 
ATOM     23  C   UNL     1      46.418   3.481   7.401  0.00  0.00    +0.000 A 
ATOM     24  C   UNL     1      46.249   2.172   7.873  0.00  0.00    +0.000 A 
ATOM     25  C   UNL     1      45.339   1.942   8.917  0.00  0.00    +0.000 A 
BRANCH  24  26
ATOM     26  C   UNL     1      47.029   1.022   7.291  0.00  0.00    +0.000 C 
ATOM     27  F   UNL     1      46.826  -0.158   7.943  0.00  0.00    +0.000 F 
ATOM     28  F   UNL     1      46.712   0.784   5.988  0.00  0.00    +0.000 F 
ATOM     29  F   UNL     1      48.373   1.234   7.317  0.00  0.00    +0.000 F 
ENDBRANCH  24  26
ENDBRANCH  19  20
ENDBRANCH  18  19
ENDBRANCH   5  18
TORSDOF 6
ENDMDL
MODEL 2
REMARK VINA RESULT:    -8.459      1.906      3.569
REMARK INTER + INTRA:         -12.072
REMARK INTER:                 -10.689
REMARK INTRA:                  -1.383
REMARK UNBOUND:                -0.647
REMARK  Name = 
REMARK  6 active torsions:
REMARK  status: ('A' for Active; 'I' for Inactive)
REMARK    1  A    between atoms: C_4  and  C_5
REMARK    2  A    between atoms: C_9  and  C_10
REMARK    3  A    between atoms: C_10  and  O_11
REMARK    4  A    between atoms: O_11  and  C_12
REMARK    5  A    between atoms: C_16  and  C_17
REMARK    6  A    between atoms: C_24  and  C_25
REMARK                            x       y       z     vdW  Elec       q    Type
REMARK                         _______ _______ _______ _____ _____    ______ ____
ROOT
ATOM      1  C   UNL     1      46.663   6.621  12.453  0.00  0.00    +0.000 A 
ATOM      2  C   UNL     1      46.957   5.740  13.510  0.00  0.00    +0.000 A 
ATOM      3  C   UNL     1      46.116   4.668  13.827  0.00  0.00    +0.000 A 
ATOM      4  C   UNL     1      44.937   4.469  13.116  0.00  0.00    +0.000 A 
ATOM      5  C   UNL     1      44.589   5.342  12.081  0.00  0.00    +0.000 A 
ATOM      6  C   UNL     1      45.471   6.383  11.739  0.00  0.00    +0.000 A 
ENDROOT
BRANCH   1  10
ATOM      7  F   UNL     1      47.467  11.401  11.887  0.00  0.00    +0.000 F 
ATOM      8  C   UNL     1      47.942  10.149  11.843  0.00  0.00    +0.000 A 
ATOM      9  C   UNL     1      47.098   9.088  12.161  0.00  0.00    +0.000 A 
ATOM     10  C   UNL     1      47.555   7.759  12.116  0.00  0.00    +0.000 A 
ATOM     11  C   UNL     1      48.900   7.559  11.744  0.00  0.00    +0.000 A 
ATOM     12  C   UNL     1      49.765   8.630  11.441  0.00  0.00    +0.000 A 
ATOM     13  C   UNL     1      49.264   9.935  11.489  0.00  0.00    +0.000 A 
BRANCH  12  14
ATOM     14  C   UNL     1      51.207   8.391  11.075  0.00  0.00    +0.000 C 
ATOM     15  F   UNL     1      52.044   8.361  12.148  0.00  0.00    +0.000 F 
ATOM     16  F   UNL     1      51.389   7.210  10.422  0.00  0.00    +0.000 F 
ATOM     17  F   UNL     1      51.697   9.355  10.248  0.00  0.00    +0.000 F 
ENDBRANCH  12  14
ENDBRANCH   1  10
BRANCH   5  18
ATOM     18  C   UNL     1      43.287   5.173  11.338  0.00  0.00    +0.000 C 
BRANCH  18  19
ATOM     19  O   UNL     1      43.556   5.081   9.943  0.00  0.00    +0.000 OA
BRANCH  19  20
ATOM     20  C   UNL     1      44.223   3.964   9.520  0.00  0.00    +0.000 A 
ATOM     21  C   UNL     1      43.987   2.655   9.944  0.00  0.00    +0.000 A 
ATOM     22  C   UNL     1      44.743   1.601   9.423  0.00  0.00    +0.000 A 
ATOM     23  C   UNL     1      45.734   1.847   8.474  0.00  0.00    +0.000 A 
ATOM     24  C   UNL     1      45.982   3.155   8.035  0.00  0.00    +0.000 A 
ATOM     25  C   UNL     1      45.223   4.206   8.575  0.00  0.00    +0.000 A 
BRANCH  24  26
ATOM     26  C   UNL     1      47.032   3.447   6.994  0.00  0.00    +0.000 C 
ATOM     27  F   UNL     1      48.066   2.559   7.000  0.00  0.00    +0.000 F 
ATOM     28  F   UNL     1      46.531   3.423   5.728  0.00  0.00    +0.000 F 
ATOM     29  F   UNL     1      47.598   4.675   7.150  0.00  0.00    +0.000 F 
ENDBRANCH  24  26
ENDBRANCH  19  20
ENDBRANCH  18  19
ENDBRANCH   5  18
TORSDOF 6
ENDMDL
MODEL 3
REMARK VINA RESULT:    -8.286      3.787      5.796
REMARK INTER + INTRA:         -11.839
REMARK INTER:                 -10.688
REMARK INTRA:                  -1.151
REMARK UNBOUND:                -0.647
REMARK  Name = 
REMARK  6 active torsions:
REMARK  status: ('A' for Active; 'I' for Inactive)
REMARK    1  A    between atoms: C_4  and  C_5
REMARK    2  A    between atoms: C_9  and  C_10
REMARK    3  A    between atoms: C_10  and  O_11
REMARK    4  A    between atoms: O_11  and  C_12
REMARK    5  A    between atoms: C_16  and  C_17
REMARK    6  A    between atoms: C_24  and  C_25
REMARK                            x       y       z     vdW  Elec       q    Type
REMARK                         _______ _______ _______ _____ _____    ______ ____
ROOT
ATOM      1  C   UNL     1      47.395   5.644  14.212  0.00  0.00    +0.000 A 
ATOM      2  C   UNL     1      48.258   6.549  13.567  0.00  0.00    +0.000 A 
ATOM      3  C   UNL     1      47.928   7.129  12.338  0.00  0.00    +0.000 A 
ATOM      4  C   UNL     1      46.737   6.791  11.702  0.00  0.00    +0.000 A 
ATOM      5  C   UNL     1      45.867   5.869  12.291  0.00  0.00    +0.000 A 
ATOM      6  C   UNL     1      46.188   5.336  13.552  0.00  0.00    +0.000 A 
ENDROOT
BRANCH   1  10
ATOM      7  F   UNL     1      46.636   2.338  17.720  0.00  0.00    +0.000 F 
ATOM      8  C   UNL     1      47.356   3.368  17.257  0.00  0.00    +0.000 A 
ATOM      9  C   UNL     1      47.021   3.938  16.032  0.00  0.00    +0.000 A 
ATOM     10  C   UNL     1      47.745   5.028  15.517  0.00  0.00    +0.000 A 
ATOM     11  C   UNL     1      48.822   5.503  16.293  0.00  0.00    +0.000 A 
ATOM     12  C   UNL     1      49.180   4.916  17.524  0.00  0.00    +0.000 A 
ATOM     13  C   UNL     1      48.424   3.841  18.002  0.00  0.00    +0.000 A 
BRANCH  12  14
ATOM     14  C   UNL     1      50.354   5.424  18.320  0.00  0.00    +0.000 C 
ATOM     15  F   UNL     1      50.697   4.616  19.361  0.00  0.00    +0.000 F 
ATOM     16  F   UNL     1      51.477   5.559  17.563  0.00  0.00    +0.000 F 
ATOM     17  F   UNL     1      50.119   6.651  18.863  0.00  0.00    +0.000 F 
ENDBRANCH  12  14
ENDBRANCH   1  10
BRANCH   5  18
ATOM     18  C   UNL     1      44.600   5.450  11.587  0.00  0.00    +0.000 C 
BRANCH  18  19
ATOM     19  O   UNL     1      44.846   5.386  10.186  0.00  0.00    +0.000 OA
BRANCH  19  20
ATOM     20  C   UNL     1      44.959   4.137   9.640  0.00  0.00    +0.000 A 
ATOM     21  C   UNL     1      44.305   2.985  10.078  0.00  0.00    +0.000 A 
ATOM     22  C   UNL     1      44.509   1.768   9.423  0.00  0.00    +0.000 A 
ATOM     23  C   UNL     1      45.362   1.696   8.322  0.00  0.00    +0.000 A 
ATOM     24  C   UNL     1      46.025   2.844   7.866  0.00  0.00    +0.000 A 
ATOM     25  C   UNL     1      45.820   4.057   8.542  0.00  0.00    +0.000 A 
BRANCH  24  26
ATOM     26  C   UNL     1      46.936   2.799   6.667  0.00  0.00    +0.000 C 
ATOM     27  F   UNL     1      46.892   1.613   5.995  0.00  0.00    +0.000 F 
ATOM     28  F   UNL     1      46.634   3.756   5.747  0.00  0.00    +0.000 F 
ATOM     29  F   UNL     1      48.243   2.991   6.993  0.00  0.00    +0.000 F 
ENDBRANCH  24  26
ENDBRANCH  19  20
ENDBRANCH  18  19
ENDBRANCH   5  18
TORSDOF 6
ENDMDL
MODEL 4
REMARK VINA RESULT:    -8.218      4.124      8.073
REMARK INTER + INTRA:         -11.747
REMARK INTER:                 -10.553
REMARK INTRA:                  -1.194
REMARK UNBOUND:                -0.647
REMARK  Name = 
REMARK  6 active torsions:
REMARK  status: ('A' for Active; 'I' for Inactive)
REMARK    1  A    between atoms: C_4  and  C_5
REMARK    2  A    between atoms: C_9  and  C_10
REMARK    3  A    between atoms: C_10  and  O_11
REMARK    4  A    between atoms: O_11  and  C_12
REMARK    5  A    between atoms: C_16  and  C_17
REMARK    6  A    between atoms: C_24  and  C_25
REMARK                            x       y       z     vdW  Elec       q    Type
REMARK                         _______ _______ _______ _____ _____    ______ ____
ROOT
ATOM      1  C   UNL     1      45.489   6.673  11.611  0.00  0.00    +0.000 A 
ATOM      2  C   UNL     1      44.694   7.820  11.433  0.00  0.00    +0.000 A 
ATOM      3  C   UNL     1      45.037   9.047  12.010  0.00  0.00    +0.000 A 
ATOM      4  C   UNL     1      46.169   9.151  12.811  0.00  0.00    +0.000 A 
ATOM      5  C   UNL     1      46.968   8.027  13.043  0.00  0.00    +0.000 A 
ATOM      6  C   UNL     1      46.640   6.814  12.412  0.00  0.00    +0.000 A 
ENDROOT
BRANCH   1  10
ATOM      7  F   UNL     1      43.055   2.443  11.689  0.00  0.00    +0.000 F 
ATOM      8  C   UNL     1      43.898   3.265  11.050  0.00  0.00    +0.000 A 
ATOM      9  C   UNL     1      44.234   4.485  11.631  0.00  0.00    +0.000 A 
ATOM     10  C   UNL     1      45.125   5.370  10.998  0.00  0.00    +0.000 A 
ATOM     11  C   UNL     1      45.649   4.966   9.753  0.00  0.00    +0.000 A 
ATOM     12  C   UNL     1      45.297   3.741   9.150  0.00  0.00    +0.000 A 
ATOM     13  C   UNL     1      44.416   2.888   9.821  0.00  0.00    +0.000 A 
BRANCH  12  14
ATOM     14  C   UNL     1      45.849   3.346   7.804  0.00  0.00    +0.000 C 
ATOM     15  F   UNL     1      46.769   4.223   7.314  0.00  0.00    +0.000 F 
ATOM     16  F   UNL     1      46.464   2.132   7.830  0.00  0.00    +0.000 F 
ATOM     17  F   UNL     1      44.879   3.256   6.853  0.00  0.00    +0.000 F 
ENDBRANCH  12  14
ENDBRANCH   1  10
BRANCH   5  18
ATOM     18  C   UNL     1      48.167   8.111  13.955  0.00  0.00    +0.000 C 
BRANCH  18  19
ATOM     19  O   UNL     1      48.581   6.793  14.301  0.00  0.00    +0.000 OA
BRANCH  19  20
ATOM     20  C   UNL     1      48.568   6.476  15.632  0.00  0.00    +0.000 A 
ATOM     21  C   UNL     1      48.790   7.358  16.690  0.00  0.00    +0.000 A 
ATOM     22  C   UNL     1      48.743   6.900  18.010  0.00  0.00    +0.000 A 
ATOM     23  C   UNL     1      48.470   5.560  18.279  0.00  0.00    +0.000 A 
ATOM     24  C   UNL     1      48.242   4.660  17.229  0.00  0.00    +0.000 A 
ATOM     25  C   UNL     1      48.304   5.132  15.908  0.00  0.00    +0.000 A 
BRANCH  24  26
ATOM     26  C   UNL     1      47.923   3.212  17.493  0.00  0.00    +0.000 C 
ATOM     27  F   UNL     1      48.456   2.360  16.571  0.00  0.00    +0.000 F 
ATOM     28  F   UNL     1      48.388   2.787  18.700  0.00  0.00    +0.000 F 
ATOM     29  F   UNL     1      46.585   2.961  17.497  0.00  0.00    +0.000 F 
ENDBRANCH  24  26
ENDBRANCH  19  20
ENDBRANCH  18  19
ENDBRANCH   5  18
TORSDOF 6
ENDMDL
MODEL 5
REMARK VINA RESULT:    -8.215      1.811      2.639
REMARK INTER + INTRA:         -11.742
REMARK INTER:                 -10.458
REMARK INTRA:                  -1.284
REMARK UNBOUND:                -0.647
REMARK  Name = 
REMARK  6 active torsions:
REMARK  status: ('A' for Active; 'I' for Inactive)
REMARK    1  A    between atoms: C_4  and  C_5
REMARK    2  A    between atoms: C_9  and  C_10
REMARK    3  A    between atoms: C_10  and  O_11
REMARK    4  A    between atoms: O_11  and  C_12
REMARK    5  A    between atoms: C_16  and  C_17
REMARK    6  A    between atoms: C_24  and  C_25
REMARK                            x       y       z     vdW  Elec       q    Type
REMARK                         _______ _______ _______ _____ _____    ______ ____
ROOT
ATOM      1  C   UNL     1      47.222   6.555  12.352  0.00  0.00    +0.000 A 
ATOM      2  C   UNL     1      47.307   5.758  13.508  0.00  0.00    +0.000 A 
ATOM      3  C   UNL     1      46.362   4.766  13.787  0.00  0.00    +0.000 A 
ATOM      4  C   UNL     1      45.284   4.567  12.930  0.00  0.00    +0.000 A 
ATOM      5  C   UNL     1      45.142   5.360  11.788  0.00  0.00    +0.000 A 
ATOM      6  C   UNL     1      46.129   6.318  11.494  0.00  0.00    +0.000 A 
ENDROOT
BRANCH   1  10
ATOM      7  F   UNL     1      51.843   8.027  11.806  0.00  0.00    +0.000 F 
ATOM      8  C   UNL     1      50.537   8.327  11.782  0.00  0.00    +0.000 A 
ATOM      9  C   UNL     1      49.604   7.332  12.060  0.00  0.00    +0.000 A 
ATOM     10  C   UNL     1      48.225   7.610  12.057  0.00  0.00    +0.000 A 
ATOM     11  C   UNL     1      47.841   8.932  11.754  0.00  0.00    +0.000 A 
ATOM     12  C   UNL     1      48.780   9.938  11.451  0.00  0.00    +0.000 A 
ATOM     13  C   UNL     1      50.142   9.619  11.477  0.00  0.00    +0.000 A 
BRANCH  12  14
ATOM     14  C   UNL     1      48.341  11.337  11.101  0.00  0.00    +0.000 C 
ATOM     15  F   UNL     1      48.468  11.633   9.778  0.00  0.00    +0.000 F 
ATOM     16  F   UNL     1      47.037  11.567  11.415  0.00  0.00    +0.000 F 
ATOM     17  F   UNL     1      49.059  12.285  11.765  0.00  0.00    +0.000 F 
ENDBRANCH  12  14
ENDBRANCH   1  10
BRANCH   5  18
ATOM     18  C   UNL     1      43.948   5.194  10.880  0.00  0.00    +0.000 C 
BRANCH  18  19
ATOM     19  O   UNL     1      44.400   5.074   9.536  0.00  0.00    +0.000 OA
BRANCH  19  20
ATOM     20  C   UNL     1      44.816   3.832   9.138  0.00  0.00    +0.000 A 
ATOM     21  C   UNL     1      44.389   2.613   9.665  0.00  0.00    +0.000 A 
ATOM     22  C   UNL     1      44.893   1.412   9.159  0.00  0.00    +0.000 A 
ATOM     23  C   UNL     1      45.824   1.422   8.121  0.00  0.00    +0.000 A 
ATOM     24  C   UNL     1      46.262   2.638   7.577  0.00  0.00    +0.000 A 
ATOM     25  C   UNL     1      45.755   3.837   8.103  0.00  0.00    +0.000 A 
BRANCH  24  26
ATOM     26  C   UNL     1      47.250   2.677   6.440  0.00  0.00    +0.000 C 
ATOM     27  F   UNL     1      46.920   3.568   5.463  0.00  0.00    +0.000 F 
ATOM     28  F   UNL     1      48.502   3.023   6.849  0.00  0.00    +0.000 F 
ATOM     29  F   UNL     1      47.379   1.474   5.815  0.00  0.00    +0.000 F 
ENDBRANCH  24  26
ENDBRANCH  19  20
ENDBRANCH  18  19
ENDBRANCH   5  18
TORSDOF 6
ENDMDL
MODEL 6
REMARK VINA RESULT:    -8.016      3.905      5.581
REMARK INTER + INTRA:         -11.475
REMARK INTER:                 -10.347
REMARK INTRA:                  -1.128
REMARK UNBOUND:                -0.647
REMARK  Name = 
REMARK  6 active torsions:
REMARK  status: ('A' for Active; 'I' for Inactive)
REMARK    1  A    between atoms: C_4  and  C_5
REMARK    2  A    between atoms: C_9  and  C_10
REMARK    3  A    between atoms: C_10  and  O_11
REMARK    4  A    between atoms: O_11  and  C_12
REMARK    5  A    between atoms: C_16  and  C_17
REMARK    6  A    between atoms: C_24  and  C_25
REMARK                            x       y       z     vdW  Elec       q    Type
REMARK                         _______ _______ _______ _____ _____    ______ ____
ROOT
ATOM      1  C   UNL     1      47.908   6.447  13.944  0.00  0.00    +0.000 A 
ATOM      2  C   UNL     1      48.604   7.312  13.080  0.00  0.00    +0.000 A 
ATOM      3  C   UNL     1      48.091   7.667  11.828  0.00  0.00    +0.000 A 
ATOM      4  C   UNL     1      46.880   7.136  11.392  0.00  0.00    +0.000 A 
ATOM      5  C   UNL     1      46.174   6.246  12.205  0.00  0.00    +0.000 A 
ATOM      6  C   UNL     1      46.676   5.941  13.483  0.00  0.00    +0.000 A 
ENDROOT
BRANCH   1  10
ATOM      7  F   UNL     1      50.692   7.375  17.843  0.00  0.00    +0.000 F 
ATOM      8  C   UNL     1      49.843   6.551  17.215  0.00  0.00    +0.000 A 
ATOM      9  C   UNL     1      49.337   6.912  15.970  0.00  0.00    +0.000 A 
ATOM     10  C   UNL     1      48.453   6.070  15.273  0.00  0.00    +0.000 A 
ATOM     11  C   UNL     1      48.103   4.855  15.898  0.00  0.00    +0.000 A 
ATOM     12  C   UNL     1      48.596   4.493  17.168  0.00  0.00    +0.000 A 
ATOM     13  C   UNL     1      49.481   5.358  17.819  0.00  0.00    +0.000 A 
BRANCH  12  14
ATOM     14  C   UNL     1      48.182   3.202  17.827  0.00  0.00    +0.000 C 
ATOM     15  F   UNL     1      46.891   2.850  17.574  0.00  0.00    +0.000 F 
ATOM     16  F   UNL     1      48.945   2.147  17.430  0.00  0.00    +0.000 F 
ATOM     17  F   UNL     1      48.293   3.256  19.184  0.00  0.00    +0.000 F 
ENDBRANCH  12  14
ENDBRANCH   1  10
BRANCH   5  18
ATOM     18  C   UNL     1      44.889   5.619  11.723  0.00  0.00    +0.000 C 
BRANCH  18  19
ATOM     19  O   UNL     1      44.900   5.572  10.300  0.00  0.00    +0.000 OA
BRANCH  19  20
ATOM     20  C   UNL     1      45.018   4.334   9.729  0.00  0.00    +0.000 A 
ATOM     21  C   UNL     1      44.424   3.157  10.186  0.00  0.00    +0.000 A 
ATOM     22  C   UNL     1      44.624   1.955   9.501  0.00  0.00    +0.000 A 
ATOM     23  C   UNL     1      45.414   1.924   8.352  0.00  0.00    +0.000 A 
ATOM     24  C   UNL     1      46.015   3.098   7.876  0.00  0.00    +0.000 A 
ATOM     25  C   UNL     1      45.815   4.295   8.581  0.00  0.00    +0.000 A 
BRANCH  24  26
ATOM     26  C   UNL     1      46.855   3.096   6.625  0.00  0.00    +0.000 C 
ATOM     27  F   UNL     1      46.493   2.136   5.728  0.00  0.00    +0.000 F 
ATOM     28  F   UNL     1      46.786   4.277   5.950  0.00  0.00    +0.000 F 
ATOM     29  F   UNL     1      48.175   2.886   6.880  0.00  0.00    +0.000 F 
ENDBRANCH  24  26
ENDBRANCH  19  20
ENDBRANCH  18  19
ENDBRANCH   5  18
TORSDOF 6
ENDMDL
MODEL 7
REMARK VINA RESULT:    -7.943      4.469      7.859
REMARK INTER + INTRA:         -11.376
REMARK INTER:                 -10.101
REMARK INTRA:                  -1.275
REMARK UNBOUND:                -0.647
REMARK  Name = 
REMARK  6 active torsions:
REMARK  status: ('A' for Active; 'I' for Inactive)
REMARK    1  A    between atoms: C_4  and  C_5
REMARK    2  A    between atoms: C_9  and  C_10
REMARK    3  A    between atoms: C_10  and  O_11
REMARK    4  A    between atoms: O_11  and  C_12
REMARK    5  A    between atoms: C_16  and  C_17
REMARK    6  A    between atoms: C_24  and  C_25
REMARK                            x       y       z     vdW  Elec       q    Type
REMARK                         _______ _______ _______ _____ _____    ______ ____
ROOT
ATOM      1  C   UNL     1      46.868   7.337  12.558  0.00  0.00    +0.000 A 
ATOM      2  C   UNL     1      46.921   8.691  12.178  0.00  0.00    +0.000 A 
ATOM      3  C   UNL     1      47.926   9.545  12.644  0.00  0.00    +0.000 A 
ATOM      4  C   UNL     1      48.888   9.075  13.532  0.00  0.00    +0.000 A 
ATOM      5  C   UNL     1      48.852   7.746  13.962  0.00  0.00    +0.000 A 
ATOM      6  C   UNL     1      47.867   6.885  13.444  0.00  0.00    +0.000 A 
ENDROOT
BRANCH   1  10
ATOM      7  F   UNL     1      42.512   5.194  13.050  0.00  0.00    +0.000 F 
ATOM      8  C   UNL     1      43.622   5.373  12.322  0.00  0.00    +0.000 A 
ATOM      9  C   UNL     1      44.616   6.225  12.793  0.00  0.00    +0.000 A 
ATOM     10  C   UNL     1      45.801   6.430  12.064  0.00  0.00    +0.000 A 
ATOM     11  C   UNL     1      45.925   5.741  10.840  0.00  0.00    +0.000 A 
ATOM     12  C   UNL     1      44.913   4.893  10.348  0.00  0.00    +0.000 A 
ATOM     13  C   UNL     1      43.756   4.710  11.112  0.00  0.00    +0.000 A 
BRANCH  12  14
ATOM     14  C   UNL     1      45.058   4.190   9.022  0.00  0.00    +0.000 C 
ATOM     15  F   UNL     1      43.964   4.311   8.219  0.00  0.00    +0.000 F 
ATOM     16  F   UNL     1      46.110   4.658   8.298  0.00  0.00    +0.000 F 
ATOM     17  F   UNL     1      45.267   2.852   9.167  0.00  0.00    +0.000 F 
ENDBRANCH  12  14
ENDBRANCH   1  10
BRANCH   5  18
ATOM     18  C   UNL     1      49.854   7.236  14.969  0.00  0.00    +0.000 C 
BRANCH  18  19
ATOM     19  O   UNL     1      49.542   7.776  16.249  0.00  0.00    +0.000 OA
BRANCH  19  20
ATOM     20  C   UNL     1      48.818   6.978  17.091  0.00  0.00    +0.000 A 
ATOM     21  C   UNL     1      48.204   7.377  18.279  0.00  0.00    +0.000 A 
ATOM     22  C   UNL     1      47.486   6.454  19.045  0.00  0.00    +0.000 A 
ATOM     23  C   UNL     1      47.374   5.129  18.626  0.00  0.00    +0.000 A 
ATOM     24  C   UNL     1      47.982   4.710  17.434  0.00  0.00    +0.000 A 
ATOM     25  C   UNL     1      48.709   5.646  16.681  0.00  0.00    +0.000 A 
BRANCH  24  26
ATOM     26  C   UNL     1      47.858   3.290  16.948  0.00  0.00    +0.000 C 
ATOM     27  F   UNL     1      49.004   2.566  17.085  0.00  0.00    +0.000 F 
ATOM     28  F   UNL     1      46.898   2.593  17.615  0.00  0.00    +0.000 F 
ATOM     29  F   UNL     1      47.528   3.214  15.629  0.00  0.00    +0.000 F 
ENDBRANCH  24  26
ENDBRANCH  19  20
ENDBRANCH  18  19
ENDBRANCH   5  18
TORSDOF 6
ENDMDL
MODEL 8
REMARK VINA RESULT:    -7.922      4.241      6.192
REMARK INTER + INTRA:         -11.347
REMARK INTER:                 -10.123
REMARK INTRA:                  -1.224
REMARK UNBOUND:                -0.647
REMARK  Name = 
REMARK  6 active torsions:
REMARK  status: ('A' for Active; 'I' for Inactive)
REMARK    1  A    between atoms: C_4  and  C_5
REMARK    2  A    between atoms: C_9  and  C_10
REMARK    3  A    between atoms: C_10  and  O_11
REMARK    4  A    between atoms: O_11  and  C_12
REMARK    5  A    between atoms: C_16  and  C_17
REMARK    6  A    between atoms: C_24  and  C_25
REMARK                            x       y       z     vdW  Elec       q    Type
REMARK                         _______ _______ _______ _____ _____    ______ ____
ROOT
ATOM      1  C   UNL     1      48.685   6.869  14.457  0.00  0.00    +0.000 A 
ATOM      2  C   UNL     1      49.761   7.651  13.998  0.00  0.00    +0.000 A 
ATOM      3  C   UNL     1      49.817   8.123  12.683  0.00  0.00    +0.000 A 
ATOM      4  C   UNL     1      48.811   7.796  11.779  0.00  0.00    +0.000 A 
ATOM      5  C   UNL     1      47.741   6.993  12.184  0.00  0.00    +0.000 A 
ATOM      6  C   UNL     1      47.672   6.570  13.523  0.00  0.00    +0.000 A 
ENDROOT
BRANCH   1  10
ATOM      7  F   UNL     1      48.973   7.590  19.275  0.00  0.00    +0.000 F 
ATOM      8  C   UNL     1      48.768   6.745  18.256  0.00  0.00    +0.000 A 
ATOM      9  C   UNL     1      48.824   7.225  16.950  0.00  0.00    +0.000 A 
ATOM     10  C   UNL     1      48.626   6.367  15.853  0.00  0.00    +0.000 A 
ATOM     11  C   UNL     1      48.362   5.013  16.141  0.00  0.00    +0.000 A 
ATOM     12  C   UNL     1      48.283   4.526  17.462  0.00  0.00    +0.000 A 
ATOM     13  C   UNL     1      48.498   5.413  18.522  0.00  0.00    +0.000 A 
BRANCH  12  14
ATOM     14  C   UNL     1      47.970   3.078  17.743  0.00  0.00    +0.000 C 
ATOM     15  F   UNL     1      46.658   2.759  17.562  0.00  0.00    +0.000 F 
ATOM     16  F   UNL     1      48.676   2.229  16.949  0.00  0.00    +0.000 F 
ATOM     17  F   UNL     1      48.265   2.725  19.025  0.00  0.00    +0.000 F 
ENDBRANCH  12  14
ENDBRANCH   1  10
BRANCH   5  18
ATOM     18  C   UNL     1      46.672   6.583  11.200  0.00  0.00    +0.000 C 
BRANCH  18  19
ATOM     19  O   UNL     1      45.434   6.447  11.890  0.00  0.00    +0.000 OA
BRANCH  19  20
ATOM     20  C   UNL     1      44.818   5.228  11.807  0.00  0.00    +0.000 A 
ATOM     21  C   UNL     1      43.965   4.671  12.760  0.00  0.00    +0.000 A 
ATOM     22  C   UNL     1      43.396   3.413  12.546  0.00  0.00    +0.000 A 
ATOM     23  C   UNL     1      43.672   2.706  11.376  0.00  0.00    +0.000 A 
ATOM     24  C   UNL     1      44.524   3.252  10.405  0.00  0.00    +0.000 A 
ATOM     25  C   UNL     1      45.098   4.512  10.640  0.00  0.00    +0.000 A 
BRANCH  24  26
ATOM     26  C   UNL     1      44.822   2.520   9.123  0.00  0.00    +0.000 C 
ATOM     27  F   UNL     1      44.443   3.203   8.006  0.00  0.00    +0.000 F 
ATOM     28  F   UNL     1      46.150   2.262   8.966  0.00  0.00    +0.000 F 
ATOM     29  F   UNL     1      44.195   1.314   9.049  0.00  0.00    +0.000 F 
ENDBRANCH  24  26
ENDBRANCH  19  20
ENDBRANCH  18  19
ENDBRANCH   5  18
TORSDOF 6
ENDMDL
MODEL 9
REMARK VINA RESULT:    -7.648      3.701      7.451
REMARK INTER + INTRA:         -10.977
REMARK INTER:                  -9.761
REMARK INTRA:                  -1.216
REMARK UNBOUND:                -0.647
REMARK  Name = 
REMARK  6 active torsions:
REMARK  status: ('A' for Active; 'I' for Inactive)
REMARK    1  A    between atoms: C_4  and  C_5
REMARK    2  A    between atoms: C_9  and  C_10
REMARK    3  A    between atoms: C_10  and  O_11
REMARK    4  A    between atoms: O_11  and  C_12
REMARK    5  A    between atoms: C_16  and  C_17
REMARK    6  A    between atoms: C_24  and  C_25
REMARK                            x       y       z     vdW  Elec       q    Type
REMARK                         _______ _______ _______ _____ _____    ______ ____
ROOT
ATOM      1  C   UNL     1      45.592   6.690  11.345  0.00  0.00    +0.000 A 
ATOM      2  C   UNL     1      44.672   7.749  11.448  0.00  0.00    +0.000 A 
ATOM      3  C   UNL     1      45.028   8.979  12.012  0.00  0.00    +0.000 A 
ATOM      4  C   UNL     1      46.309   9.170  12.522  0.00  0.00    +0.000 A 
ATOM      5  C   UNL     1      47.244   8.132  12.471  0.00  0.00    +0.000 A 
ATOM      6  C   UNL     1      46.887   6.920  11.853  0.00  0.00    +0.000 A 
ENDROOT
BRANCH   1  10
ATOM      7  F   UNL     1      43.062   2.519  11.433  0.00  0.00    +0.000 F 
ATOM      8  C   UNL     1      43.940   3.310  10.802  0.00  0.00    +0.000 A 
ATOM      9  C   UNL     1      44.288   4.532  11.371  0.00  0.00    +0.000 A 
ATOM     10  C   UNL     1      45.214   5.385  10.746  0.00  0.00    +0.000 A 
ATOM     11  C   UNL     1      45.761   4.948   9.522  0.00  0.00    +0.000 A 
ATOM     12  C   UNL     1      45.396   3.721   8.931  0.00  0.00    +0.000 A 
ATOM     13  C   UNL     1      44.479   2.899   9.594  0.00  0.00    +0.000 A 
BRANCH  12  14
ATOM     14  C   UNL     1      45.974   3.290   7.607  0.00  0.00    +0.000 C 
ATOM     15  F   UNL     1      46.885   4.165   7.099  0.00  0.00    +0.000 F 
ATOM     16  F   UNL     1      46.607   2.088   7.682  0.00  0.00    +0.000 F 
ATOM     17  F   UNL     1      45.017   3.150   6.647  0.00  0.00    +0.000 F 
ENDBRANCH  12  14
ENDBRANCH   1  10
BRANCH   5  18
ATOM     18  C   UNL     1      48.618   8.305  13.071  0.00  0.00    +0.000 C 
BRANCH  18  19
ATOM     19  O   UNL     1      49.538   7.476  12.370  0.00  0.00    +0.000 OA
BRANCH  19  20
ATOM     20  C   UNL     1      50.461   8.112  11.585  0.00  0.00    +0.000 A 
ATOM     21  C   UNL     1      50.720   9.483  11.565  0.00  0.00    +0.000 A 
ATOM     22  C   UNL     1      51.699  10.002  10.713  0.00  0.00    +0.000 A 
ATOM     23  C   UNL     1      52.428   9.154   9.881  0.00  0.00    +0.000 A 
ATOM     24  C   UNL     1      52.184   7.774   9.890  0.00  0.00    +0.000 A 
ATOM     25  C   UNL     1      51.190   7.267  10.742  0.00  0.00    +0.000 A 
BRANCH  24  26
ATOM     26  C   UNL     1      52.973   6.833   9.017  0.00  0.00    +0.000 C 
ATOM     27  F   UNL     1      54.172   7.340   8.614  0.00  0.00    +0.000 F 
ATOM     28  F   UNL     1      53.260   5.658   9.643  0.00  0.00    +0.000 F 
ATOM     29  F   UNL     1      52.311   6.497   7.875  0.00  0.00    +0.000 F 
ENDBRANCH  24  26
ENDBRANCH  19  20
ENDBRANCH  18  19
ENDBRANCH   5  18
TORSDOF 6
ENDMDL
