MODEL 1
REMARK VINA RESULT:    -7.682      0.000      0.000
REMARK INTER + INTRA:         -12.637
REMARK INTER:                 -11.723
REMARK INTRA:                  -0.914
REMARK UNBOUND:                -0.914
REMARK  Name = 
REMARK  10 active torsions:
REMARK  status: ('A' for Active; 'I' for Inactive)
REMARK    1  A    between atoms: C_1  and  C_2
REMARK    2  A    between atoms: C_2  and  C_3
REMARK    3  A    between atoms: C_2  and  N_10
REMARK    4  A    between atoms: C_3  and  C_4
REMARK    5  A    between atoms: N_10  and  C_11
REMARK    6  A    between atoms: C_11  and  C_12
REMARK    7  A    between atoms: C_15  and  C_16
REMARK    8  A    between atoms: C_16  and  N_17
REMARK    9  A    between atoms: N_17  and  C_18
REMARK   10  A    between atoms: C_18  and  C_19
REMARK                            x       y       z     vdW  Elec       q    Type
REMARK                         _______ _______ _______ _____ _____    ______ ____
ROOT
ATOM      1  C   UNL     1      46.437   4.658  13.563  0.00  0.00    +0.000 A 
ATOM      2  C   UNL     1      45.810   3.462  13.188  0.00  0.00    +0.000 A 
ATOM      3  C   UNL     1      44.969   3.421  12.077  0.00  0.00    +0.000 A 
ATOM      4  C   UNL     1      44.713   4.581  11.330  0.00  0.00    +0.000 A 
ATOM      5  C   UNL     1      45.349   5.773  11.695  0.00  0.00    +0.000 A 
ATOM      6  C   UNL     1      46.205   5.810  12.799  0.00  0.00    +0.000 A 
ENDROOT
BRANCH   1   7
ATOM      7  C   UNL     1      47.324   4.715  14.786  0.00  0.00    +0.000 C 
BRANCH   7   8
ATOM      8  N   UNL     1      47.817   3.386  15.140  0.00  0.00    +0.000 NA
ATOM      9  H   UNL     1      47.081   2.704  14.967  0.00  0.00    +0.000 HD
BRANCH   8  11
ATOM     10  C   UNL     1      47.007   3.191  17.390  0.00  0.00    +0.000 C 
ATOM     11  C   UNL     1      48.279   3.252  16.532  0.00  0.00    +0.000 C 
BRANCH  11  12
ATOM     12  C   UNL     1      49.167   2.000  16.723  0.00  0.00    +0.000 C 
BRANCH  12  13
ATOM     13  C   UNL     1      50.555   2.246  17.259  0.00  0.00    +0.000 A 
ATOM     14  C   UNL     1      50.903   3.514  17.731  0.00  0.00    +0.000 A 
ATOM     15  C   UNL     1      52.172   3.706  18.259  0.00  0.00    +0.000 A 
ATOM     16  N   UNL     1      53.100   2.731  18.347  0.00  0.00    +0.000 NA
ATOM     17  C   UNL     1      52.743   1.512  17.892  0.00  0.00    +0.000 A 
ATOM     18  C   UNL     1      51.500   1.221  17.349  0.00  0.00    +0.000 A 
ENDBRANCH  12  13
ENDBRANCH  11  12
ENDBRANCH   8  11
ENDBRANCH   7   8
ENDBRANCH   1   7
BRANCH   4  19
ATOM     19  C   UNL     1      43.752   4.536  10.168  0.00  0.00    +0.000 C 
BRANCH  19  20
ATOM     20  N   UNL     1      44.180   3.526   9.202  0.00  0.00    +0.000 NA
ATOM     21  H   UNL     1      43.365   3.229   8.663  0.00  0.00    +0.000 HD
BRANCH  20  22
ATOM     22  C   UNL     1      45.180   4.061   8.275  0.00  0.00    +0.000 C 
BRANCH  22  23
ATOM     23  C   UNL     1      46.147   2.986   7.821  0.00  0.00    +0.000 A 
ATOM     24  C   UNL     1      45.961   1.670   8.207  0.00  0.00    +0.000 A 
ATOM     25  C   UNL     1      46.873   0.758   7.728  0.00  0.00    +0.000 A 
ATOM     26  N   UNL     1      47.907   1.089   6.935  0.00  0.00    +0.000 NA
ATOM     27  C   UNL     1      48.000   2.389   6.618  0.00  0.00    +0.000 A 
ATOM     28  N   UNL     1      47.169   3.364   7.020  0.00  0.00    +0.000 NA
ENDBRANCH  22  23
ENDBRANCH  20  22
ENDBRANCH  19  20
ENDBRANCH   4  19
TORSDOF 9
ENDMDL
MODEL 2
REMARK VINA RESULT:    -7.543      1.893      8.844
REMARK INTER + INTRA:         -12.426
REMARK INTER:                 -11.420
REMARK INTRA:                  -1.006
REMARK UNBOUND:                -0.914
REMARK  Name = 
REMARK  10 active torsions:
REMARK  status: ('A' for Active; 'I' for Inactive)
REMARK    1  A    between atoms: C_1  and  C_2
REMARK    2  A    between atoms: C_2  and  C_3
REMARK    3  A    between atoms: C_2  and  N_10
REMARK    4  A    between atoms: C_3  and  C_4
REMARK    5  A    between atoms: N_10  and  C_11
REMARK    6  A    between atoms: C_11  and  C_12
REMARK    7  A    between atoms: C_15  and  C_16
REMARK    8  A    between atoms: C_16  and  N_17
REMARK    9  A    between atoms: N_17  and  C_18
REMARK   10  A    between atoms: C_18  and  C_19
REMARK                            x       y       z     vdW  Elec       q    Type
REMARK                         _______ _______ _______ _____ _____    ______ ____
ROOT
ATOM      1  C   UNL     1      45.287   6.228  12.310  0.00  0.00    +0.000 A 
ATOM      2  C   UNL     1      46.173   5.306  12.881  0.00  0.00    +0.000 A 
ATOM      3  C   UNL     1      47.276   5.743  13.614  0.00  0.00    +0.000 A 
ATOM      4  C   UNL     1      47.534   7.112  13.769  0.00  0.00    +0.000 A 
ATOM      5  C   UNL     1      46.644   8.035  13.210  0.00  0.00    +0.000 A 
ATOM      6  C   UNL     1      45.529   7.597  12.490  0.00  0.00    +0.000 A 
ENDROOT
BRANCH   1   7
ATOM      7  C   UNL     1      44.108   5.760  11.487  0.00  0.00    +0.000 C 
BRANCH   7   8
ATOM      8  N   UNL     1      44.505   5.483  10.109  0.00  0.00    +0.000 NA
ATOM      9  H   UNL     1      43.752   5.768   9.485  0.00  0.00    +0.000 HD
BRANCH   8  11
ATOM     10  C   UNL     1      43.867   3.240  10.671  0.00  0.00    +0.000 C 
ATOM     11  C   UNL     1      44.849   4.077   9.838  0.00  0.00    +0.000 C 
BRANCH  11  12
ATOM     12  C   UNL     1      44.758   3.745   8.330  0.00  0.00    +0.000 C 
BRANCH  12  13
ATOM     13  C   UNL     1      45.862   2.880   7.774  0.00  0.00    +0.000 A 
ATOM     14  C   UNL     1      45.988   1.556   8.200  0.00  0.00    +0.000 A 
ATOM     15  C   UNL     1      46.984   0.767   7.641  0.00  0.00    +0.000 A 
ATOM     16  N   UNL     1      47.846   1.204   6.701  0.00  0.00    +0.000 NA
ATOM     17  C   UNL     1      47.704   2.484   6.298  0.00  0.00    +0.000 A 
ATOM     18  C   UNL     1      46.739   3.351   6.794  0.00  0.00    +0.000 A 
ENDBRANCH  12  13
ENDBRANCH  11  12
ENDBRANCH   8  11
ENDBRANCH   7   8
ENDBRANCH   1   7
BRANCH   4  19
ATOM     19  C   UNL     1      48.766   7.571  14.511  0.00  0.00    +0.000 C 
BRANCH  19  20
ATOM     20  N   UNL     1      48.579   7.397  15.949  0.00  0.00    +0.000 NA
ATOM     21  H   UNL     1      47.672   6.954  16.106  0.00  0.00    +0.000 HD
BRANCH  20  22
ATOM     22  C   UNL     1      49.620   6.542  16.525  0.00  0.00    +0.000 C 
BRANCH  22  23
ATOM     23  C   UNL     1      49.066   5.190  16.928  0.00  0.00    +0.000 A 
ATOM     24  C   UNL     1      47.707   5.022  17.129  0.00  0.00    +0.000 A 
ATOM     25  C   UNL     1      47.291   3.755  17.469  0.00  0.00    +0.000 A 
ATOM     26  N   UNL     1      48.129   2.713  17.615  0.00  0.00    +0.000 NA
ATOM     27  C   UNL     1      49.426   2.979  17.398  0.00  0.00    +0.000 A 
ATOM     28  N   UNL     1      49.944   4.169  17.057  0.00  0.00    +0.000 NA
ENDBRANCH  22  23
ENDBRANCH  20  22
ENDBRANCH  19  20
ENDBRANCH   4  19
TORSDOF 9
ENDMDL
MODEL 3
REMARK VINA RESULT:    -7.380      1.830      2.622
REMARK INTER + INTRA:         -12.177
REMARK INTER:                 -11.120
REMARK INTRA:                  -1.056
REMARK UNBOUND:                -0.914
REMARK  Name = 
REMARK  10 active torsions:
REMARK  status: ('A' for Active; 'I' for Inactive)
REMARK    1  A    between atoms: C_1  and  C_2
REMARK    2  A    between atoms: C_2  and  C_3
REMARK    3  A    between atoms: C_2  and  N_10
REMARK    4  A    between atoms: C_3  and  C_4
REMARK    5  A    between atoms: N_10  and  C_11
REMARK    6  A    between atoms: C_11  and  C_12
REMARK    7  A    between atoms: C_15  and  C_16
REMARK    8  A    between atoms: C_16  and  N_17
REMARK    9  A    between atoms: N_17  and  C_18
REMARK   10  A    between atoms: C_18  and  C_19
REMARK                            x       y       z     vdW  Elec       q    Type
REMARK                         _______ _______ _______ _____ _____    ______ ____
ROOT
ATOM      1  C   UNL     1      46.992   6.174  12.788  0.00  0.00    +0.000 A 
ATOM      2  C   UNL     1      46.054   5.313  13.372  0.00  0.00    +0.000 A 
ATOM      3  C   UNL     1      44.982   4.824  12.628  0.00  0.00    +0.000 A 
ATOM      4  C   UNL     1      44.806   5.206  11.290  0.00  0.00    +0.000 A 
ATOM      5  C   UNL     1      45.748   6.056  10.701  0.00  0.00    +0.000 A 
ATOM      6  C   UNL     1      46.833   6.533  11.442  0.00  0.00    +0.000 A 
ENDROOT
BRANCH   1   7
ATOM      7  C   UNL     1      48.139   6.733  13.600  0.00  0.00    +0.000 C 
BRANCH   7   8
ATOM      8  N   UNL     1      47.811   6.761  15.023  0.00  0.00    +0.000 NA
ATOM      9  H   UNL     1      47.186   7.544  15.202  0.00  0.00    +0.000 HD
BRANCH   8  11
ATOM     10  C   UNL     1      49.134   8.352  16.236  0.00  0.00    +0.000 C 
ATOM     11  C   UNL     1      48.975   6.858  15.921  0.00  0.00    +0.000 C 
BRANCH  11  12
ATOM     12  C   UNL     1      48.783   6.013  17.201  0.00  0.00    +0.000 C 
BRANCH  12  13
ATOM     13  C   UNL     1      49.192   4.564  17.107  0.00  0.00    +0.000 A 
ATOM     14  C   UNL     1      50.476   4.177  17.500  0.00  0.00    +0.000 A 
ATOM     15  C   UNL     1      50.814   2.833  17.445  0.00  0.00    +0.000 A 
ATOM     16  N   UNL     1      49.969   1.865  17.034  0.00  0.00    +0.000 NA
ATOM     17  C   UNL     1      48.732   2.257  16.666  0.00  0.00    +0.000 A 
ATOM     18  C   UNL     1      48.299   3.576  16.686  0.00  0.00    +0.000 A 
ENDBRANCH  12  13
ENDBRANCH  11  12
ENDBRANCH   8  11
ENDBRANCH   7   8
ENDBRANCH   1   7
BRANCH   4  19
ATOM     19  C   UNL     1      43.606   4.719  10.515  0.00  0.00    +0.000 C 
BRANCH  19  20
ATOM     20  N   UNL     1      44.028   4.174   9.227  0.00  0.00    +0.000 NA
ATOM     21  H   UNL     1      44.821   4.721   8.888  0.00  0.00    +0.000 HD
BRANCH  20  22
ATOM     22  C   UNL     1      44.449   2.776   9.351  0.00  0.00    +0.000 C 
BRANCH  22  23
ATOM     23  C   UNL     1      45.606   2.461   8.423  0.00  0.00    +0.000 A 
ATOM     24  C   UNL     1      46.211   3.469   7.693  0.00  0.00    +0.000 A 
ATOM     25  C   UNL     1      47.269   3.096   6.896  0.00  0.00    +0.000 A 
ATOM     26  N   UNL     1      47.714   1.831   6.797  0.00  0.00    +0.000 NA
ATOM     27  C   UNL     1      47.061   0.929   7.544  0.00  0.00    +0.000 A 
ATOM     28  N   UNL     1      46.024   1.176   8.360  0.00  0.00    +0.000 NA
ENDBRANCH  22  23
ENDBRANCH  20  22
ENDBRANCH  19  20
ENDBRANCH   4  19
TORSDOF 9
ENDMDL
MODEL 4
REMARK VINA RESULT:    -7.033      3.835      6.665
REMARK INTER + INTRA:         -11.647
REMARK INTER:                 -10.412
REMARK INTRA:                  -1.234
REMARK UNBOUND:                -0.914
REMARK  Name = 
REMARK  10 active torsions:
REMARK  status: ('A' for Active; 'I' for Inactive)
REMARK    1  A    between atoms: C_1  and  C_2
REMARK    2  A    between atoms: C_2  and  C_3
REMARK    3  A    between atoms: C_2  and  N_10
REMARK    4  A    between atoms: C_3  and  C_4
REMARK    5  A    between atoms: N_10  and  C_11
REMARK    6  A    between atoms: C_11  and  C_12
REMARK    7  A    between atoms: C_15  and  C_16
REMARK    8  A    between atoms: C_16  and  N_17
REMARK    9  A    between atoms: N_17  and  C_18
REMARK   10  A    between atoms: C_18  and  C_19
REMARK                            x       y       z     vdW  Elec       q    Type
REMARK                         _______ _______ _______ _____ _____    ______ ____
ROOT
ATOM      1  C   UNL     1      46.947   5.898  13.130  0.00  0.00    +0.000 A 
ATOM      2  C   UNL     1      45.930   5.016  13.519  0.00  0.00    +0.000 A 
ATOM      3  C   UNL     1      44.969   4.595  12.601  0.00  0.00    +0.000 A 
ATOM      4  C   UNL     1      44.985   5.066  11.281  0.00  0.00    +0.000 A 
ATOM      5  C   UNL     1      46.008   5.937  10.888  0.00  0.00    +0.000 A 
ATOM      6  C   UNL     1      46.981   6.346  11.803  0.00  0.00    +0.000 A 
ENDROOT
BRANCH   1   7
ATOM      7  C   UNL     1      47.973   6.383  14.130  0.00  0.00    +0.000 C 
BRANCH   7   8
ATOM      8  N   UNL     1      48.653   7.582  13.646  0.00  0.00    +0.000 NA
ATOM      9  H   UNL     1      49.556   7.660  14.110  0.00  0.00    +0.000 HD
BRANCH   8  11
ATOM     10  C   UNL     1      48.548   9.525  15.049  0.00  0.00    +0.000 C 
ATOM     11  C   UNL     1      47.902   8.835  13.839  0.00  0.00    +0.000 C 
BRANCH  11  12
ATOM     12  C   UNL     1      47.940   9.725  12.575  0.00  0.00    +0.000 C 
BRANCH  12  13
ATOM     13  C   UNL     1      46.635  10.370  12.179  0.00  0.00    +0.000 A 
ATOM     14  C   UNL     1      45.460   9.615  12.178  0.00  0.00    +0.000 A 
ATOM     15  C   UNL     1      44.265  10.241  11.851  0.00  0.00    +0.000 A 
ATOM     16  N   UNL     1      44.167  11.548  11.534  0.00  0.00    +0.000 NA
ATOM     17  C   UNL     1      45.312  12.262  11.547  0.00  0.00    +0.000 A 
ATOM     18  C   UNL     1      46.555  11.728  11.861  0.00  0.00    +0.000 A 
ENDBRANCH  12  13
ENDBRANCH  11  12
ENDBRANCH   8  11
ENDBRANCH   7   8
ENDBRANCH   1   7
BRANCH   4  19
ATOM     19  C   UNL     1      43.902   4.651  10.316  0.00  0.00    +0.000 C 
BRANCH  19  20
ATOM     20  N   UNL     1      44.488   4.307   9.022  0.00  0.00    +0.000 NA
ATOM     21  H   UNL     1      45.458   4.626   9.012  0.00  0.00    +0.000 HD
BRANCH  20  22
ATOM     22  C   UNL     1      44.474   2.859   8.797  0.00  0.00    +0.000 C 
BRANCH  22  23
ATOM     23  C   UNL     1      45.724   2.398   8.075  0.00  0.00    +0.000 A 
ATOM     24  C   UNL     1      46.480   3.296   7.340  0.00  0.00    +0.000 A 
ATOM     25  C   UNL     1      47.611   2.795   6.739  0.00  0.00    +0.000 A 
ATOM     26  N   UNL     1      47.992   1.508   6.828  0.00  0.00    +0.000 NA
ATOM     27  C   UNL     1      47.193   0.719   7.563  0.00  0.00    +0.000 A 
ATOM     28  N   UNL     1      46.073   1.097   8.198  0.00  0.00    +0.000 NA
ENDBRANCH  22  23
ENDBRANCH  20  22
ENDBRANCH  19  20
ENDBRANCH   4  19
TORSDOF 9
ENDMDL
MODEL 5
REMARK VINA RESULT:    -6.839      2.830      3.951
REMARK INTER + INTRA:         -11.350
REMARK INTER:                 -10.071
REMARK INTRA:                  -1.280
REMARK UNBOUND:                -0.914
REMARK  Name = 
REMARK  10 active torsions:
REMARK  status: ('A' for Active; 'I' for Inactive)
REMARK    1  A    between atoms: C_1  and  C_2
REMARK    2  A    between atoms: C_2  and  C_3
REMARK    3  A    between atoms: C_2  and  N_10
REMARK    4  A    between atoms: C_3  and  C_4
REMARK    5  A    between atoms: N_10  and  C_11
REMARK    6  A    between atoms: C_11  and  C_12
REMARK    7  A    between atoms: C_15  and  C_16
REMARK    8  A    between atoms: C_16  and  N_17
REMARK    9  A    between atoms: N_17  and  C_18
REMARK   10  A    between atoms: C_18  and  C_19
REMARK                            x       y       z     vdW  Elec       q    Type
REMARK                         _______ _______ _______ _____ _____    ______ ____
ROOT
ATOM      1  C   UNL     1      46.991   6.625  13.083  0.00  0.00    +0.000 A 
ATOM      2  C   UNL     1      46.842   5.335  13.608  0.00  0.00    +0.000 A 
ATOM      3  C   UNL     1      45.620   4.669  13.516  0.00  0.00    +0.000 A 
ATOM      4  C   UNL     1      44.512   5.288  12.921  0.00  0.00    +0.000 A 
ATOM      5  C   UNL     1      44.662   6.572  12.385  0.00  0.00    +0.000 A 
ATOM      6  C   UNL     1      45.891   7.232  12.462  0.00  0.00    +0.000 A 
ENDROOT
BRANCH   1   7
ATOM      7  C   UNL     1      48.305   7.364  13.209  0.00  0.00    +0.000 C 
BRANCH   7   8
ATOM      8  N   UNL     1      49.263   6.599  14.003  0.00  0.00    +0.000 NA
ATOM      9  H   UNL     1      48.787   5.799  14.415  0.00  0.00    +0.000 HD
BRANCH   8  11
ATOM     10  C   UNL     1      48.999   8.551  15.373  0.00  0.00    +0.000 C 
ATOM     11  C   UNL     1      49.928   7.366  15.071  0.00  0.00    +0.000 C 
BRANCH  11  12
ATOM     12  C   UNL     1      50.186   6.498  16.324  0.00  0.00    +0.000 C 
BRANCH  12  13
ATOM     13  C   UNL     1      48.963   6.046  17.081  0.00  0.00    +0.000 A 
ATOM     14  C   UNL     1      48.318   4.861  16.717  0.00  0.00    +0.000 A 
ATOM     15  C   UNL     1      47.221   4.443  17.455  0.00  0.00    +0.000 A 
ATOM     16  N   UNL     1      46.733   5.117  18.517  0.00  0.00    +0.000 NA
ATOM     17  C   UNL     1      47.372   6.255  18.858  0.00  0.00    +0.000 A 
ATOM     18  C   UNL     1      48.478   6.754  18.183  0.00  0.00    +0.000 A 
ENDBRANCH  12  13
ENDBRANCH  11  12
ENDBRANCH   8  11
ENDBRANCH   7   8
ENDBRANCH   1   7
BRANCH   4  19
ATOM     19  C   UNL     1      43.179   4.581  12.885  0.00  0.00    +0.000 C 
BRANCH  19  20
ATOM     20  N   UNL     1      42.867   4.169  11.518  0.00  0.00    +0.000 NA
ATOM     21  H   UNL     1      43.204   4.890  10.878  0.00  0.00    +0.000 HD
BRANCH  20  22
ATOM     22  C   UNL     1      43.522   2.903  11.178  0.00  0.00    +0.000 C 
BRANCH  22  23
ATOM     23  C   UNL     1      44.426   3.054   9.971  0.00  0.00    +0.000 A 
ATOM     24  C   UNL     1      44.728   4.310   9.475  0.00  0.00    +0.000 A 
ATOM     25  C   UNL     1      45.575   4.352   8.391  0.00  0.00    +0.000 A 
ATOM     26  N   UNL     1      46.093   3.256   7.811  0.00  0.00    +0.000 NA
ATOM     27  C   UNL     1      45.740   2.086   8.366  0.00  0.00    +0.000 A 
ATOM     28  N   UNL     1      44.929   1.924   9.423  0.00  0.00    +0.000 NA
ENDBRANCH  22  23
ENDBRANCH  20  22
ENDBRANCH  19  20
ENDBRANCH   4  19
TORSDOF 9
ENDMDL
MODEL 6
REMARK VINA RESULT:    -6.800      3.762      8.516
REMARK INTER + INTRA:         -11.292
REMARK INTER:                 -10.820
REMARK INTRA:                  -0.472
REMARK UNBOUND:                -0.914
REMARK  Name = 
REMARK  10 active torsions:
REMARK  status: ('A' for Active; 'I' for Inactive)
REMARK    1  A    between atoms: C_1  and  C_2
REMARK    2  A    between atoms: C_2  and  C_3
REMARK    3  A    between atoms: C_2  and  N_10
REMARK    4  A    between atoms: C_3  and  C_4
REMARK    5  A    between atoms: N_10  and  C_11
REMARK    6  A    between atoms: C_11  and  C_12
REMARK    7  A    between atoms: C_15  and  C_16
REMARK    8  A    between atoms: C_16  and  N_17
REMARK    9  A    between atoms: N_17  and  C_18
REMARK   10  A    between atoms: C_18  and  C_19
REMARK                            x       y       z     vdW  Elec       q    Type
REMARK                         _______ _______ _______ _____ _____    ______ ____
ROOT
ATOM      1  C   UNL     1      44.730   5.616  12.058  0.00  0.00    +0.000 A 
ATOM      2  C   UNL     1      45.456   6.757  11.691  0.00  0.00    +0.000 A 
ATOM      3  C   UNL     1      46.654   7.070  12.331  0.00  0.00    +0.000 A 
ATOM      4  C   UNL     1      47.141   6.266  13.372  0.00  0.00    +0.000 A 
ATOM      5  C   UNL     1      46.424   5.120  13.731  0.00  0.00    +0.000 A 
ATOM      6  C   UNL     1      45.231   4.796  13.078  0.00  0.00    +0.000 A 
ENDROOT
BRANCH   1   7
ATOM      7  C   UNL     1      43.414   5.290  11.388  0.00  0.00    +0.000 C 
BRANCH   7   8
ATOM      8  N   UNL     1      43.597   5.042   9.961  0.00  0.00    +0.000 NA
ATOM      9  H   UNL     1      42.694   4.821   9.545  0.00  0.00    +0.000 HD
BRANCH   8  11
ATOM     10  C   UNL     1      44.004   2.706  10.328  0.00  0.00    +0.000 C 
ATOM     11  C   UNL     1      44.551   3.966   9.641  0.00  0.00    +0.000 C 
BRANCH  11  12
ATOM     12  C   UNL     1      44.705   3.772   8.114  0.00  0.00    +0.000 C 
BRANCH  12  13
ATOM     13  C   UNL     1      45.851   2.899   7.668  0.00  0.00    +0.000 A 
ATOM     14  C   UNL     1      46.871   3.439   6.882  0.00  0.00    +0.000 A 
ATOM     15  C   UNL     1      47.937   2.626   6.520  0.00  0.00    +0.000 A 
ATOM     16  N   UNL     1      48.050   1.333   6.887  0.00  0.00    +0.000 NA
ATOM     17  C   UNL     1      47.058   0.832   7.652  0.00  0.00    +0.000 A 
ATOM     18  C   UNL     1      45.953   1.564   8.066  0.00  0.00    +0.000 A 
ENDBRANCH  12  13
ENDBRANCH  11  12
ENDBRANCH   8  11
ENDBRANCH   7   8
ENDBRANCH   1   7
BRANCH   4  19
ATOM     19  C   UNL     1      48.406   6.652  14.098  0.00  0.00    +0.000 C 
BRANCH  19  20
ATOM     20  N   UNL     1      49.493   6.849  13.142  0.00  0.00    +0.000 NA
ATOM     21  H   UNL     1      49.087   7.082  12.234  0.00  0.00    +0.000 HD
BRANCH  20  22
ATOM     22  C   UNL     1      50.375   7.945  13.552  0.00  0.00    +0.000 C 
BRANCH  22  23
ATOM     23  C   UNL     1      50.851   8.749  12.358  0.00  0.00    +0.000 A 
ATOM     24  C   UNL     1      51.980   8.361  11.659  0.00  0.00    +0.000 A 
ATOM     25  C   UNL     1      52.325   9.136  10.575  0.00  0.00    +0.000 A 
ATOM     26  N   UNL     1      51.634  10.223  10.190  0.00  0.00    +0.000 NA
ATOM     27  C   UNL     1      50.555  10.515  10.933  0.00  0.00    +0.000 A 
ATOM     28  N   UNL     1      50.121   9.831  12.003  0.00  0.00    +0.000 NA
ENDBRANCH  22  23
ENDBRANCH  20  22
ENDBRANCH  19  20
ENDBRANCH   4  19
TORSDOF 9
ENDMDL
MODEL 7
REMARK VINA RESULT:    -6.788      3.238      9.620
REMARK INTER + INTRA:         -11.273
REMARK INTER:                 -10.836
REMARK INTRA:                  -0.436
REMARK UNBOUND:                -0.914
REMARK  Name = 
REMARK  10 active torsions:
REMARK  status: ('A' for Active; 'I' for Inactive)
REMARK    1  A    between atoms: C_1  and  C_2
REMARK    2  A    between atoms: C_2  and  C_3
REMARK    3  A    between atoms: C_2  and  N_10
REMARK    4  A    between atoms: C_3  and  C_4
REMARK    5  A    between atoms: N_10  and  C_11
REMARK    6  A    between atoms: C_11  and  C_12
REMARK    7  A    between atoms: C_15  and  C_16
REMARK    8  A    between atoms: C_16  and  N_17
REMARK    9  A    between atoms: N_17  and  C_18
REMARK   10  A    between atoms: C_18  and  C_19
REMARK                            x       y       z     vdW  Elec       q    Type
REMARK                         _______ _______ _______ _____ _____    ______ ____
ROOT
ATOM      1  C   UNL     1      44.761   5.769  12.032  0.00  0.00    +0.000 A 
ATOM      2  C   UNL     1      45.265   7.054  11.789  0.00  0.00    +0.000 A 
ATOM      3  C   UNL     1      46.468   7.464  12.363  0.00  0.00    +0.000 A 
ATOM      4  C   UNL     1      47.182   6.609  13.215  0.00  0.00    +0.000 A 
ATOM      5  C   UNL     1      46.687   5.321  13.448  0.00  0.00    +0.000 A 
ATOM      6  C   UNL     1      45.490   4.904  12.860  0.00  0.00    +0.000 A 
ENDROOT
BRANCH   1   7
ATOM      7  C   UNL     1      43.441   5.331  11.439  0.00  0.00    +0.000 C 
BRANCH   7   8
ATOM      8  N   UNL     1      43.581   5.022  10.018  0.00  0.00    +0.000 NA
ATOM      9  H   UNL     1      42.669   4.759   9.646  0.00  0.00    +0.000 HD
BRANCH   8  11
ATOM     10  C   UNL     1      44.020   2.697  10.414  0.00  0.00    +0.000 C 
ATOM     11  C   UNL     1      44.551   3.956   9.713  0.00  0.00    +0.000 C 
BRANCH  11  12
ATOM     12  C   UNL     1      44.712   3.746   8.189  0.00  0.00    +0.000 C 
BRANCH  12  13
ATOM     13  C   UNL     1      45.888   2.908   7.755  0.00  0.00    +0.000 A 
ATOM     14  C   UNL     1      45.940   1.554   8.096  0.00  0.00    +0.000 A 
ATOM     15  C   UNL     1      47.011   0.794   7.649  0.00  0.00    +0.000 A 
ATOM     16  N   UNL     1      48.015   1.287   6.895  0.00  0.00    +0.000 NA
ATOM     17  C   UNL     1      47.944   2.595   6.571  0.00  0.00    +0.000 A 
ATOM     18  C   UNL     1      46.914   3.436   6.968  0.00  0.00    +0.000 A 
ENDBRANCH  12  13
ENDBRANCH  11  12
ENDBRANCH   8  11
ENDBRANCH   7   8
ENDBRANCH   1   7
BRANCH   4  19
ATOM     19  C   UNL     1      48.450   7.088  13.879  0.00  0.00    +0.000 C 
BRANCH  19  20
ATOM     20  N   UNL     1      48.167   7.521  15.245  0.00  0.00    +0.000 NA
ATOM     21  H   UNL     1      47.186   7.325  15.450  0.00  0.00    +0.000 HD
BRANCH  20  22
ATOM     22  C   UNL     1      48.997   6.803  16.216  0.00  0.00    +0.000 C 
BRANCH  22  23
ATOM     23  C   UNL     1      48.747   7.293  17.629  0.00  0.00    +0.000 A 
ATOM     24  C   UNL     1      48.166   8.530  17.848  0.00  0.00    +0.000 A 
ATOM     25  C   UNL     1      47.955   8.883  19.161  0.00  0.00    +0.000 A 
ATOM     26  N   UNL     1      48.287   8.100  20.202  0.00  0.00    +0.000 NA
ATOM     27  C   UNL     1      48.843   6.921  19.885  0.00  0.00    +0.000 A 
ATOM     28  N   UNL     1      49.091   6.470  18.645  0.00  0.00    +0.000 NA
ENDBRANCH  22  23
ENDBRANCH  20  22
ENDBRANCH  19  20
ENDBRANCH   4  19
TORSDOF 9
ENDMDL
MODEL 8
REMARK VINA RESULT:    -6.544      2.391      3.321
REMARK INTER + INTRA:         -10.901
REMARK INTER:                  -9.947
REMARK INTRA:                  -0.954
REMARK UNBOUND:                -0.914
REMARK  Name = 
REMARK  10 active torsions:
REMARK  status: ('A' for Active; 'I' for Inactive)
REMARK    1  A    between atoms: C_1  and  C_2
REMARK    2  A    between atoms: C_2  and  C_3
REMARK    3  A    between atoms: C_2  and  N_10
REMARK    4  A    between atoms: C_3  and  C_4
REMARK    5  A    between atoms: N_10  and  C_11
REMARK    6  A    between atoms: C_11  and  C_12
REMARK    7  A    between atoms: C_15  and  C_16
REMARK    8  A    between atoms: C_16  and  N_17
REMARK    9  A    between atoms: N_17  and  C_18
REMARK   10  A    between atoms: C_18  and  C_19
REMARK                            x       y       z     vdW  Elec       q    Type
REMARK                         _______ _______ _______ _____ _____    ______ ____
ROOT
ATOM      1  C   UNL     1      47.490   7.765  13.652  0.00  0.00    +0.000 A 
ATOM      2  C   UNL     1      47.598   6.407  13.326  0.00  0.00    +0.000 A 
ATOM      3  C   UNL     1      46.662   5.803  12.487  0.00  0.00    +0.000 A 
ATOM      4  C   UNL     1      45.581   6.536  11.977  0.00  0.00    +0.000 A 
ATOM      5  C   UNL     1      45.478   7.896  12.291  0.00  0.00    +0.000 A 
ATOM      6  C   UNL     1      46.426   8.505  13.118  0.00  0.00    +0.000 A 
ENDROOT
BRANCH   1   7
ATOM      7  C   UNL     1      48.484   8.417  14.587  0.00  0.00    +0.000 C 
BRANCH   7   8
ATOM      8  N   UNL     1      48.045   8.314  15.976  0.00  0.00    +0.000 NA
ATOM      9  H   UNL     1      47.725   9.229  16.290  0.00  0.00    +0.000 HD
BRANCH   8  11
ATOM     10  C   UNL     1      48.374   7.710  18.274  0.00  0.00    +0.000 C 
ATOM     11  C   UNL     1      49.069   7.816  16.910  0.00  0.00    +0.000 C 
BRANCH  11  12
ATOM     12  C   UNL     1      49.652   6.459  16.450  0.00  0.00    +0.000 C 
BRANCH  12  13
ATOM     13  C   UNL     1      48.952   5.227  16.966  0.00  0.00    +0.000 A 
ATOM     14  C   UNL     1      47.740   4.827  16.398  0.00  0.00    +0.000 A 
ATOM     15  C   UNL     1      47.137   3.666  16.860  0.00  0.00    +0.000 A 
ATOM     16  N   UNL     1      47.656   2.890  17.835  0.00  0.00    +0.000 NA
ATOM     17  C   UNL     1      48.830   3.290  18.366  0.00  0.00    +0.000 A 
ATOM     18  C   UNL     1      49.510   4.433  17.971  0.00  0.00    +0.000 A 
ENDBRANCH  12  13
ENDBRANCH  11  12
ENDBRANCH   8  11
ENDBRANCH   7   8
ENDBRANCH   1   7
BRANCH   4  19
ATOM     19  C   UNL     1      44.540   5.854  11.122  0.00  0.00    +0.000 C 
BRANCH  19  20
ATOM     20  N   UNL     1      45.127   5.448   9.847  0.00  0.00    +0.000 NA
ATOM     21  H   UNL     1      46.112   5.225  10.001  0.00  0.00    +0.000 HD
BRANCH  20  22
ATOM     22  C   UNL     1      44.461   4.260   9.306  0.00  0.00    +0.000 C 
BRANCH  22  23
ATOM     23  C   UNL     1      45.413   3.420   8.478  0.00  0.00    +0.000 A 
ATOM     24  C   UNL     1      45.563   2.069   8.741  0.00  0.00    +0.000 A 
ATOM     25  C   UNL     1      46.430   1.380   7.925  0.00  0.00    +0.000 A 
ATOM     26  N   UNL     1      47.119   1.952   6.922  0.00  0.00    +0.000 NA
ATOM     27  C   UNL     1      46.903   3.265   6.749  0.00  0.00    +0.000 A 
ATOM     28  N   UNL     1      46.080   4.036   7.477  0.00  0.00    +0.000 NA
ENDBRANCH  22  23
ENDBRANCH  20  22
ENDBRANCH  19  20
ENDBRANCH   4  19
TORSDOF 9
ENDMDL
MODEL 9
REMARK VINA RESULT:    -6.473      2.771      9.089
REMARK INTER + INTRA:         -10.793
REMARK INTER:                  -9.713
REMARK INTRA:                  -1.080
REMARK UNBOUND:                -0.914
REMARK  Name = 
REMARK  10 active torsions:
REMARK  status: ('A' for Active; 'I' for Inactive)
REMARK    1  A    between atoms: C_1  and  C_2
REMARK    2  A    between atoms: C_2  and  C_3
REMARK    3  A    between atoms: C_2  and  N_10
REMARK    4  A    between atoms: C_3  and  C_4
REMARK    5  A    between atoms: N_10  and  C_11
REMARK    6  A    between atoms: C_11  and  C_12
REMARK    7  A    between atoms: C_15  and  C_16
REMARK    8  A    between atoms: C_16  and  N_17
REMARK    9  A    between atoms: N_17  and  C_18
REMARK   10  A    between atoms: C_18  and  C_19
REMARK                            x       y       z     vdW  Elec       q    Type
REMARK                         _______ _______ _______ _____ _____    ______ ____
ROOT
ATOM      1  C   UNL     1      45.801   6.924  11.856  0.00  0.00    +0.000 A 
ATOM      2  C   UNL     1      45.440   8.194  12.324  0.00  0.00    +0.000 A 
ATOM      3  C   UNL     1      46.274   8.891  13.197  0.00  0.00    +0.000 A 
ATOM      4  C   UNL     1      47.476   8.323  13.644  0.00  0.00    +0.000 A 
ATOM      5  C   UNL     1      47.844   7.060  13.168  0.00  0.00    +0.000 A 
ATOM      6  C   UNL     1      47.016   6.369  12.280  0.00  0.00    +0.000 A 
ENDROOT
BRANCH   1   7
ATOM      7  C   UNL     1      44.884   6.150  10.935  0.00  0.00    +0.000 C 
BRANCH   7   8
ATOM      8  N   UNL     1      44.158   5.115  11.665  0.00  0.00    +0.000 NA
ATOM      9  H   UNL     1      44.376   5.194  12.657  0.00  0.00    +0.000 HD
BRANCH   8  11
ATOM     10  C   UNL     1      43.655   2.825  12.175  0.00  0.00    +0.000 C 
ATOM     11  C   UNL     1      44.436   3.738  11.220  0.00  0.00    +0.000 C 
BRANCH  11  12
ATOM     12  C   UNL     1      44.027   3.519   9.745  0.00  0.00    +0.000 C 
BRANCH  12  13
ATOM     13  C   UNL     1      45.118   3.047   8.816  0.00  0.00    +0.000 A 
ATOM     14  C   UNL     1      45.809   3.972   8.030  0.00  0.00    +0.000 A 
ATOM     15  C   UNL     1      46.838   3.520   7.216  0.00  0.00    +0.000 A 
ATOM     16  N   UNL     1      47.217   2.227   7.137  0.00  0.00    +0.000 NA
ATOM     17  C   UNL     1      46.541   1.350   7.909  0.00  0.00    +0.000 A 
ATOM     18  C   UNL     1      45.500   1.705   8.756  0.00  0.00    +0.000 A 
ENDBRANCH  12  13
ENDBRANCH  11  12
ENDBRANCH   8  11
ENDBRANCH   7   8
ENDBRANCH   1   7
BRANCH   4  19
ATOM     19  C   UNL     1      48.339   9.062  14.638  0.00  0.00    +0.000 C 
BRANCH  19  20
ATOM     20  N   UNL     1      47.725   9.019  15.963  0.00  0.00    +0.000 NA
ATOM     21  H   UNL     1      46.975   8.326  15.950  0.00  0.00    +0.000 HD
BRANCH  20  22
ATOM     22  C   UNL     1      48.696   8.633  16.990  0.00  0.00    +0.000 C 
BRANCH  22  23
ATOM     23  C   UNL     1      48.443   7.225  17.490  0.00  0.00    +0.000 A 
ATOM     24  C   UNL     1      48.854   6.133  16.745  0.00  0.00    +0.000 A 
ATOM     25  C   UNL     1      48.604   4.893  17.288  0.00  0.00    +0.000 A 
ATOM     26  N   UNL     1      47.989   4.710  18.469  0.00  0.00    +0.000 NA
ATOM     27  C   UNL     1      47.631   5.831  19.114  0.00  0.00    +0.000 A 
ATOM     28  N   UNL     1      47.827   7.088  18.687  0.00  0.00    +0.000 NA
ENDBRANCH  22  23
ENDBRANCH  20  22
ENDBRANCH  19  20
ENDBRANCH   4  19
TORSDOF 9
ENDMDL
