MODEL 1
REMARK VINA RESULT:    -6.587      0.000      0.000
REMARK INTER + INTRA:         -10.116
REMARK INTER:                  -9.282
REMARK INTRA:                  -0.834
REMARK UNBOUND:                -0.834
REMARK  Name = 
REMARK  10 active torsions:
REMARK  status: ('A' for Active; 'I' for Inactive)
REMARK    1  A    between atoms: C_1  and  O_2
REMARK    2  A    between atoms: O_2  and  C_3
REMARK    3  A    between atoms: C_8  and  C_9
REMARK    4  A    between atoms: N_11  and  C_12
REMARK    5  A    between atoms: C_12  and  C_13
REMARK    6  A    between atoms: C_16  and  C_17
REMARK    7  A    between atoms: C_17  and  S_18
REMARK    8  A    between atoms: S_18  and  C_19
REMARK    9  A    between atoms: C_19  and  C_20
REMARK   10  A    between atoms: C_19  and  C_21
REMARK                            x       y       z     vdW  Elec       q    Type
REMARK                         _______ _______ _______ _____ _____    ______ ____
ROOT
ATOM      1  C   UNL     1      48.250   6.559  14.199  0.00  0.00    +0.000 C 
ATOM      2  O   UNL     1      49.041   6.469  13.263  0.00  0.00    +0.000 OA
ATOM      3  N   UNL     1      46.951   6.964  14.024  0.00  0.00    +0.000 N 
ATOM      4  H   UNL     1      46.316   6.942  14.809  0.00  0.00    +0.000 HD
ENDROOT
BRANCH   1  10
ATOM      5  C   UNL     1      48.834   4.339  18.681  0.00  0.00    +0.000 A 
ATOM      6  N   UNL     1      48.086   3.225  18.522  0.00  0.00    +0.000 NA
ATOM      7  C   UNL     1      47.445   3.038  17.352  0.00  0.00    +0.000 A 
ATOM      8  C   UNL     1      47.498   3.902  16.263  0.00  0.00    +0.000 A 
ATOM      9  C   UNL     1      48.297   5.054  16.394  0.00  0.00    +0.000 A 
ATOM     10  C   UNL     1      48.630   6.187  15.563  0.00  0.00    +0.000 A 
ATOM     11  C   UNL     1      49.440   7.006  16.338  0.00  0.00    +0.000 A 
ATOM     12  N   UNL     1      49.623   6.427  17.559  0.00  0.00    +0.000 N 
ATOM     13  C   UNL     1      48.938   5.239  17.624  0.00  0.00    +0.000 A 
ATOM     14  H   UNL     1      50.167   6.809  18.322  0.00  0.00    +0.000 HD
BRANCH   5  16
ATOM     15  C   UNL     1      48.573   4.970  20.913  0.00  0.00    +0.000 C 
ATOM     16  O   UNL     1      49.475   4.598  19.875  0.00  0.00    +0.000 OA
ENDBRANCH   5  16
ENDBRANCH   1  10
BRANCH   3  17
ATOM     17  C   UNL     1      46.435   7.351  12.724  0.00  0.00    +0.000 C 
BRANCH  17  18
ATOM     18  C   UNL     1      45.868   6.157  12.014  0.00  0.00    +0.000 A 
ATOM     19  C   UNL     1      45.359   5.077  12.738  0.00  0.00    +0.000 A 
ATOM     20  C   UNL     1      44.905   3.946  12.072  0.00  0.00    +0.000 A 
ATOM     21  C   UNL     1      44.944   3.921  10.678  0.00  0.00    +0.000 A 
ATOM     22  N   UNL     1      45.396   4.977   9.953  0.00  0.00    +0.000 NA
ATOM     23  C   UNL     1      45.837   6.064  10.628  0.00  0.00    +0.000 A 
BRANCH  21  24
ATOM     24  C   UNL     1      44.577   2.671   9.916  0.00  0.00    +0.000 C 
BRANCH  24  25
ATOM     25  S   UNL     1      44.798   2.747   8.112  0.00  0.00    +0.000 S 
BRANCH  25  26
ATOM     26  C   UNL     1      46.546   2.219   7.913  0.00  0.00    +0.000 C 
ATOM     27  C   UNL     1      46.688   0.729   7.624  0.00  0.00    +0.000 C 
ATOM     28  C   UNL     1      47.107   3.032   6.745  0.00  0.00    +0.000 C 
ENDBRANCH  25  26
ENDBRANCH  24  25
ENDBRANCH  21  24
ENDBRANCH  17  18
ENDBRANCH   3  17
TORSDOF 7
ENDMDL
MODEL 2
REMARK VINA RESULT:    -6.540      2.517      3.946
REMARK INTER + INTRA:         -10.050
REMARK INTER:                  -9.204
REMARK INTRA:                  -0.847
REMARK UNBOUND:                -0.834
REMARK  Name = 
REMARK  10 active torsions:
REMARK  status: ('A' for Active; 'I' for Inactive)
REMARK    1  A    between atoms: C_1  and  O_2
REMARK    2  A    between atoms: O_2  and  C_3
REMARK    3  A    between atoms: C_8  and  C_9
REMARK    4  A    between atoms: N_11  and  C_12
REMARK    5  A    between atoms: C_12  and  C_13
REMARK    6  A    between atoms: C_16  and  C_17
REMARK    7  A    between atoms: C_17  and  S_18
REMARK    8  A    between atoms: S_18  and  C_19
REMARK    9  A    between atoms: C_19  and  C_20
REMARK   10  A    between atoms: C_19  and  C_21
REMARK                            x       y       z     vdW  Elec       q    Type
REMARK                         _______ _______ _______ _____ _____    ______ ____
ROOT
ATOM      1  C   UNL     1      46.934   5.076  14.237  0.00  0.00    +0.000 C 
ATOM      2  O   UNL     1      46.959   3.881  14.521  0.00  0.00    +0.000 OA
ATOM      3  N   UNL     1      45.839   5.667  13.660  0.00  0.00    +0.000 N 
ATOM      4  H   UNL     1      45.833   6.668  13.521  0.00  0.00    +0.000 HD
ENDROOT
BRANCH   1  10
ATOM      5  C   UNL     1      50.796   8.303  14.102  0.00  0.00    +0.000 A 
ATOM      6  N   UNL     1      50.839   8.607  12.786  0.00  0.00    +0.000 NA
ATOM      7  C   UNL     1      49.953   8.020  11.958  0.00  0.00    +0.000 A 
ATOM      8  C   UNL     1      48.967   7.120  12.348  0.00  0.00    +0.000 A 
ATOM      9  C   UNL     1      48.883   6.812  13.719  0.00  0.00    +0.000 A 
ATOM     10  C   UNL     1      48.058   5.962  14.545  0.00  0.00    +0.000 A 
ATOM     11  C   UNL     1      48.552   6.083  15.836  0.00  0.00    +0.000 A 
ATOM     12  N   UNL     1      49.599   6.958  15.833  0.00  0.00    +0.000 N 
ATOM     13  C   UNL     1      49.824   7.418  14.559  0.00  0.00    +0.000 A 
ATOM     14  H   UNL     1      50.148   7.229  16.638  0.00  0.00    +0.000 HD
BRANCH   5  16
ATOM     15  C   UNL     1      52.902   8.072  15.082  0.00  0.00    +0.000 C 
ATOM     16  O   UNL     1      51.709   8.844  14.985  0.00  0.00    +0.000 OA
ENDBRANCH   5  16
ENDBRANCH   1  10
BRANCH   3  17
ATOM     17  C   UNL     1      44.650   4.912  13.311  0.00  0.00    +0.000 C 
BRANCH  17  18
ATOM     18  C   UNL     1      44.702   4.501  11.869  0.00  0.00    +0.000 A 
ATOM     19  C   UNL     1      44.260   3.236  11.476  0.00  0.00    +0.000 A 
ATOM     20  C   UNL     1      44.381   2.838  10.151  0.00  0.00    +0.000 A 
ATOM     21  C   UNL     1      44.924   3.727   9.224  0.00  0.00    +0.000 A 
ATOM     22  N   UNL     1      45.321   4.978   9.577  0.00  0.00    +0.000 NA
ATOM     23  C   UNL     1      45.197   5.338  10.876  0.00  0.00    +0.000 A 
BRANCH  21  24
ATOM     24  C   UNL     1      45.188   3.298   7.802  0.00  0.00    +0.000 C 
BRANCH  24  25
ATOM     25  S   UNL     1      46.753   3.876   7.075  0.00  0.00    +0.000 S 
BRANCH  25  26
ATOM     26  C   UNL     1      47.659   2.301   6.805  0.00  0.00    +0.000 C 
ATOM     27  C   UNL     1      46.975   1.103   7.455  0.00  0.00    +0.000 C 
ATOM     28  C   UNL     1      47.728   2.103   5.289  0.00  0.00    +0.000 C 
ENDBRANCH  25  26
ENDBRANCH  24  25
ENDBRANCH  21  24
ENDBRANCH  17  18
ENDBRANCH   3  17
TORSDOF 7
ENDMDL
MODEL 3
REMARK VINA RESULT:    -6.466      5.118      8.419
REMARK INTER + INTRA:          -9.947
REMARK INTER:                  -9.160
REMARK INTRA:                  -0.787
REMARK UNBOUND:                -0.834
REMARK  Name = 
REMARK  10 active torsions:
REMARK  status: ('A' for Active; 'I' for Inactive)
REMARK    1  A    between atoms: C_1  and  O_2
REMARK    2  A    between atoms: O_2  and  C_3
REMARK    3  A    between atoms: C_8  and  C_9
REMARK    4  A    between atoms: N_11  and  C_12
REMARK    5  A    between atoms: C_12  and  C_13
REMARK    6  A    between atoms: C_16  and  C_17
REMARK    7  A    between atoms: C_17  and  S_18
REMARK    8  A    between atoms: S_18  and  C_19
REMARK    9  A    between atoms: C_19  and  C_20
REMARK   10  A    between atoms: C_19  and  C_21
REMARK                            x       y       z     vdW  Elec       q    Type
REMARK                         _______ _______ _______ _____ _____    ______ ____
ROOT
ATOM      1  C   UNL     1      43.643   5.665  11.044  0.00  0.00    +0.000 C 
ATOM      2  O   UNL     1      42.517   5.777  11.522  0.00  0.00    +0.000 OA
ATOM      3  N   UNL     1      44.538   6.704  11.025  0.00  0.00    +0.000 N 
ATOM      4  H   UNL     1      45.479   6.541  10.698  0.00  0.00    +0.000 HD
ENDROOT
BRANCH   1  10
ATOM      5  C   UNL     1      45.862   1.998   8.401  0.00  0.00    +0.000 A 
ATOM      6  N   UNL     1      46.572   2.714   7.502  0.00  0.00    +0.000 NA
ATOM      7  C   UNL     1      46.491   4.059   7.538  0.00  0.00    +0.000 A 
ATOM      8  C   UNL     1      45.736   4.792   8.448  0.00  0.00    +0.000 A 
ATOM      9  C   UNL     1      45.012   4.067   9.414  0.00  0.00    +0.000 A 
ATOM     10  C   UNL     1      44.124   4.391  10.506  0.00  0.00    +0.000 A 
ATOM     11  C   UNL     1      43.703   3.177  11.031  0.00  0.00    +0.000 A 
ATOM     12  N   UNL     1      44.293   2.162  10.338  0.00  0.00    +0.000 N 
ATOM     13  C   UNL     1      45.095   2.672   9.348  0.00  0.00    +0.000 A 
ATOM     14  H   UNL     1      44.161   1.173  10.506  0.00  0.00    +0.000 HD
BRANCH   5  16
ATOM     15  C   UNL     1      46.911   0.094   7.551  0.00  0.00    +0.000 C 
ATOM     16  O   UNL     1      45.877   0.618   8.379  0.00  0.00    +0.000 OA
ENDBRANCH   5  16
ENDBRANCH   1  10
BRANCH   3  17
ATOM     17  C   UNL     1      44.200   8.020  11.535  0.00  0.00    +0.000 C 
BRANCH  17  18
ATOM     18  C   UNL     1      45.410   8.670  12.137  0.00  0.00    +0.000 A 
ATOM     19  C   UNL     1      45.824   9.933  11.710  0.00  0.00    +0.000 A 
ATOM     20  C   UNL     1      46.987  10.493  12.221  0.00  0.00    +0.000 A 
ATOM     21  C   UNL     1      47.714   9.787  13.179  0.00  0.00    +0.000 A 
ATOM     22  N   UNL     1      47.307   8.576  13.640  0.00  0.00    +0.000 NA
ATOM     23  C   UNL     1      46.172   8.051  13.121  0.00  0.00    +0.000 A 
BRANCH  21  24
ATOM     24  C   UNL     1      49.046  10.299  13.672  0.00  0.00    +0.000 C 
BRANCH  24  25
ATOM     25  S   UNL     1      50.461   9.179  13.442  0.00  0.00    +0.000 S 
BRANCH  25  26
ATOM     26  C   UNL     1      50.517   8.996  11.616  0.00  0.00    +0.000 C 
ATOM     27  C   UNL     1      51.930   9.096  11.051  0.00  0.00    +0.000 C 
ATOM     28  C   UNL     1      49.929   7.618  11.307  0.00  0.00    +0.000 C 
ENDBRANCH  25  26
ENDBRANCH  24  25
ENDBRANCH  21  24
ENDBRANCH  17  18
ENDBRANCH   3  17
TORSDOF 7
ENDMDL
MODEL 4
REMARK VINA RESULT:    -6.374      2.058      2.928
REMARK INTER + INTRA:          -9.816
REMARK INTER:                  -9.058
REMARK INTRA:                  -0.758
REMARK UNBOUND:                -0.834
REMARK  Name = 
REMARK  10 active torsions:
REMARK  status: ('A' for Active; 'I' for Inactive)
REMARK    1  A    between atoms: C_1  and  O_2
REMARK    2  A    between atoms: O_2  and  C_3
REMARK    3  A    between atoms: C_8  and  C_9
REMARK    4  A    between atoms: N_11  and  C_12
REMARK    5  A    between atoms: C_12  and  C_13
REMARK    6  A    between atoms: C_16  and  C_17
REMARK    7  A    between atoms: C_17  and  S_18
REMARK    8  A    between atoms: S_18  and  C_19
REMARK    9  A    between atoms: C_19  and  C_20
REMARK   10  A    between atoms: C_19  and  C_21
REMARK                            x       y       z     vdW  Elec       q    Type
REMARK                         _______ _______ _______ _____ _____    ______ ____
ROOT
ATOM      1  C   UNL     1      46.619   4.990  14.213  0.00  0.00    +0.000 C 
ATOM      2  O   UNL     1      46.582   3.778  14.408  0.00  0.00    +0.000 OA
ATOM      3  N   UNL     1      45.568   5.674  13.657  0.00  0.00    +0.000 N 
ATOM      4  H   UNL     1      45.612   6.681  13.593  0.00  0.00    +0.000 HD
ENDROOT
BRANCH   1  10
ATOM      5  C   UNL     1      50.490   7.143  16.608  0.00  0.00    +0.000 A 
ATOM      6  N   UNL     1      50.486   6.466  17.777  0.00  0.00    +0.000 NA
ATOM      7  C   UNL     1      49.546   5.519  17.973  0.00  0.00    +0.000 A 
ATOM      8  C   UNL     1      48.567   5.160  17.052  0.00  0.00    +0.000 A 
ATOM      9  C   UNL     1      48.572   5.832  15.814  0.00  0.00    +0.000 A 
ATOM     10  C   UNL     1      47.775   5.796  14.610  0.00  0.00    +0.000 A 
ATOM     11  C   UNL     1      48.294   6.778  13.777  0.00  0.00    +0.000 A 
ATOM     12  N   UNL     1      49.350   7.377  14.397  0.00  0.00    +0.000 N 
ATOM     13  C   UNL     1      49.543   6.823  15.639  0.00  0.00    +0.000 A 
ATOM     14  H   UNL     1      49.911   8.130  14.020  0.00  0.00    +0.000 HD
BRANCH   5  16
ATOM     15  C   UNL     1      52.673   7.655  15.963  0.00  0.00    +0.000 C 
ATOM     16  O   UNL     1      51.403   8.151  16.376  0.00  0.00    +0.000 OA
ENDBRANCH   5  16
ENDBRANCH   1  10
BRANCH   3  17
ATOM     17  C   UNL     1      44.355   5.004  13.227  0.00  0.00    +0.000 C 
BRANCH  17  18
ATOM     18  C   UNL     1      44.494   4.540  11.808  0.00  0.00    +0.000 A 
ATOM     19  C   UNL     1      44.138   3.239  11.448  0.00  0.00    +0.000 A 
ATOM     20  C   UNL     1      44.341   2.797  10.148  0.00  0.00    +0.000 A 
ATOM     21  C   UNL     1      44.877   3.677   9.210  0.00  0.00    +0.000 A 
ATOM     22  N   UNL     1      45.190   4.961   9.527  0.00  0.00    +0.000 NA
ATOM     23  C   UNL     1      44.989   5.364  10.803  0.00  0.00    +0.000 A 
BRANCH  21  24
ATOM     24  C   UNL     1      45.228   3.208   7.819  0.00  0.00    +0.000 C 
BRANCH  24  25
ATOM     25  S   UNL     1      46.790   3.843   7.136  0.00  0.00    +0.000 S 
BRANCH  25  26
ATOM     26  C   UNL     1      47.723   2.298   6.800  0.00  0.00    +0.000 C 
ATOM     27  C   UNL     1      47.021   1.052   7.330  0.00  0.00    +0.000 C 
ATOM     28  C   UNL     1      47.867   2.207   5.279  0.00  0.00    +0.000 C 
ENDBRANCH  25  26
ENDBRANCH  24  25
ENDBRANCH  21  24
ENDBRANCH  17  18
ENDBRANCH   3  17
TORSDOF 7
ENDMDL
MODEL 5
REMARK VINA RESULT:    -5.966      4.286      9.145
REMARK INTER + INTRA:          -9.241
REMARK INTER:                  -8.582
REMARK INTRA:                  -0.658
REMARK UNBOUND:                -0.834
REMARK  Name = 
REMARK  10 active torsions:
REMARK  status: ('A' for Active; 'I' for Inactive)
REMARK    1  A    between atoms: C_1  and  O_2
REMARK    2  A    between atoms: O_2  and  C_3
REMARK    3  A    between atoms: C_8  and  C_9
REMARK    4  A    between atoms: N_11  and  C_12
REMARK    5  A    between atoms: C_12  and  C_13
REMARK    6  A    between atoms: C_16  and  C_17
REMARK    7  A    between atoms: C_17  and  S_18
REMARK    8  A    between atoms: S_18  and  C_19
REMARK    9  A    between atoms: C_19  and  C_20
REMARK   10  A    between atoms: C_19  and  C_21
REMARK                            x       y       z     vdW  Elec       q    Type
REMARK                         _______ _______ _______ _____ _____    ______ ____
ROOT
ATOM      1  C   UNL     1      46.978   4.192  14.684  0.00  0.00    +0.000 C 
ATOM      2  O   UNL     1      47.401   3.148  14.196  0.00  0.00    +0.000 OA
ATOM      3  N   UNL     1      46.972   4.418  16.037  0.00  0.00    +0.000 N 
ATOM      4  H   UNL     1      46.692   5.323  16.387  0.00  0.00    +0.000 HD
ENDROOT
BRANCH   1  10
ATOM      5  C   UNL     1      44.371   7.245  11.645  0.00  0.00    +0.000 A 
ATOM      6  N   UNL     1      43.244   6.525  11.452  0.00  0.00    +0.000 NA
ATOM      7  C   UNL     1      43.140   5.316  12.040  0.00  0.00    +0.000 A 
ATOM      8  C   UNL     1      44.106   4.739  12.858  0.00  0.00    +0.000 A 
ATOM      9  C   UNL     1      45.275   5.485  13.099  0.00  0.00    +0.000 A 
ATOM     10  C   UNL     1      46.496   5.292  13.846  0.00  0.00    +0.000 A 
ATOM     11  C   UNL     1      47.273   6.417  13.610  0.00  0.00    +0.000 A 
ATOM     12  N   UNL     1      46.589   7.269  12.793  0.00  0.00    +0.000 N 
ATOM     13  C   UNL     1      45.370   6.729  12.465  0.00  0.00    +0.000 A 
ATOM     14  H   UNL     1      46.921   8.163  12.457  0.00  0.00    +0.000 HD
BRANCH   5  16
ATOM     15  C   UNL     1      43.311   9.141  10.790  0.00  0.00    +0.000 C 
ATOM     16  O   UNL     1      44.544   8.469  11.031  0.00  0.00    +0.000 OA
ENDBRANCH   5  16
ENDBRANCH   1  10
BRANCH   3  17
ATOM     17  C   UNL     1      47.432   3.420  16.986  0.00  0.00    +0.000 C 
BRANCH  17  18
ATOM     18  C   UNL     1      48.914   3.537  17.184  0.00  0.00    +0.000 A 
ATOM     19  C   UNL     1      49.725   2.401  17.159  0.00  0.00    +0.000 A 
ATOM     20  C   UNL     1      51.085   2.511  17.417  0.00  0.00    +0.000 A 
ATOM     21  C   UNL     1      51.625   3.771  17.674  0.00  0.00    +0.000 A 
ATOM     22  N   UNL     1      50.862   4.895  17.661  0.00  0.00    +0.000 NA
ATOM     23  C   UNL     1      49.538   4.758  17.412  0.00  0.00    +0.000 A 
BRANCH  21  24
ATOM     24  C   UNL     1      53.070   3.926  18.078  0.00  0.00    +0.000 C 
BRANCH  24  25
ATOM     25  S   UNL     1      53.696   2.705  19.274  0.00  0.00    +0.000 S 
BRANCH  25  26
ATOM     26  C   UNL     1      53.964   3.733  20.772  0.00  0.00    +0.000 C 
ATOM     27  C   UNL     1      52.667   4.278  21.359  0.00  0.00    +0.000 C 
ATOM     28  C   UNL     1      54.659   2.828  21.792  0.00  0.00    +0.000 C 
ENDBRANCH  25  26
ENDBRANCH  24  25
ENDBRANCH  21  24
ENDBRANCH  17  18
ENDBRANCH   3  17
TORSDOF 7
ENDMDL
MODEL 6
REMARK VINA RESULT:    -5.866      3.347      5.100
REMARK INTER + INTRA:          -9.101
REMARK INTER:                  -8.370
REMARK INTRA:                  -0.731
REMARK UNBOUND:                -0.834
REMARK  Name = 
REMARK  10 active torsions:
REMARK  status: ('A' for Active; 'I' for Inactive)
REMARK    1  A    between atoms: C_1  and  O_2
REMARK    2  A    between atoms: O_2  and  C_3
REMARK    3  A    between atoms: C_8  and  C_9
REMARK    4  A    between atoms: N_11  and  C_12
REMARK    5  A    between atoms: C_12  and  C_13
REMARK    6  A    between atoms: C_16  and  C_17
REMARK    7  A    between atoms: C_17  and  S_18
REMARK    8  A    between atoms: S_18  and  C_19
REMARK    9  A    between atoms: C_19  and  C_20
REMARK   10  A    between atoms: C_19  and  C_21
REMARK                            x       y       z     vdW  Elec       q    Type
REMARK                         _______ _______ _______ _____ _____    ______ ____
ROOT
ATOM      1  C   UNL     1      47.137   4.178  14.959  0.00  0.00    +0.000 C 
ATOM      2  O   UNL     1      47.369   3.146  14.334  0.00  0.00    +0.000 OA
ATOM      3  N   UNL     1      46.447   5.227  14.409  0.00  0.00    +0.000 N 
ATOM      4  H   UNL     1      46.208   6.020  14.987  0.00  0.00    +0.000 HD
ENDROOT
BRANCH   1  10
ATOM      5  C   UNL     1      49.048   5.723  19.354  0.00  0.00    +0.000 A 
ATOM      6  N   UNL     1      49.620   6.893  18.996  0.00  0.00    +0.000 NA
ATOM      7  C   UNL     1      49.550   7.279  17.706  0.00  0.00    +0.000 A 
ATOM      8  C   UNL     1      48.915   6.569  16.691  0.00  0.00    +0.000 A 
ATOM      9  C   UNL     1      48.284   5.363  17.049  0.00  0.00    +0.000 A 
ATOM     10  C   UNL     1      47.541   4.335  16.358  0.00  0.00    +0.000 A 
ATOM     11  C   UNL     1      47.246   3.368  17.310  0.00  0.00    +0.000 A 
ATOM     12  N   UNL     1      47.747   3.762  18.516  0.00  0.00    +0.000 N 
ATOM     13  C   UNL     1      48.384   4.972  18.388  0.00  0.00    +0.000 A 
ATOM     14  H   UNL     1      47.680   3.246  19.383  0.00  0.00    +0.000 HD
BRANCH   5  16
ATOM     15  C   UNL     1      50.472   5.066  21.083  0.00  0.00    +0.000 C 
ATOM     16  O   UNL     1      49.128   5.263  20.653  0.00  0.00    +0.000 OA
ENDBRANCH   5  16
ENDBRANCH   1  10
BRANCH   3  17
ATOM     17  C   UNL     1      45.976   5.204  13.036  0.00  0.00    +0.000 C 
BRANCH  17  18
ATOM     18  C   UNL     1      45.687   6.598  12.564  0.00  0.00    +0.000 A 
ATOM     19  C   UNL     1      46.391   7.685  13.086  0.00  0.00    +0.000 A 
ATOM     20  C   UNL     1      46.064   8.977  12.696  0.00  0.00    +0.000 A 
ATOM     21  C   UNL     1      45.046   9.165  11.763  0.00  0.00    +0.000 A 
ATOM     22  N   UNL     1      44.377   8.120  11.210  0.00  0.00    +0.000 NA
ATOM     23  C   UNL     1      44.712   6.871  11.612  0.00  0.00    +0.000 A 
BRANCH  21  24
ATOM     24  C   UNL     1      44.574  10.552  11.400  0.00  0.00    +0.000 C 
BRANCH  24  25
ATOM     25  S   UNL     1      42.771  10.789  11.348  0.00  0.00    +0.000 S 
BRANCH  25  26
ATOM     26  C   UNL     1      42.445  10.885   9.543  0.00  0.00    +0.000 C 
ATOM     27  C   UNL     1      41.632  12.114   9.151  0.00  0.00    +0.000 C 
ATOM     28  C   UNL     1      43.815  10.928   8.863  0.00  0.00    +0.000 C 
ENDBRANCH  25  26
ENDBRANCH  24  25
ENDBRANCH  21  24
ENDBRANCH  17  18
ENDBRANCH   3  17
TORSDOF 7
ENDMDL
MODEL 7
REMARK VINA RESULT:    -5.812      3.706      8.336
REMARK INTER + INTRA:          -9.025
REMARK INTER:                  -8.391
REMARK INTRA:                  -0.634
REMARK UNBOUND:                -0.834
REMARK  Name = 
REMARK  10 active torsions:
REMARK  status: ('A' for Active; 'I' for Inactive)
REMARK    1  A    between atoms: C_1  and  O_2
REMARK    2  A    between atoms: O_2  and  C_3
REMARK    3  A    between atoms: C_8  and  C_9
REMARK    4  A    between atoms: N_11  and  C_12
REMARK    5  A    between atoms: C_12  and  C_13
REMARK    6  A    between atoms: C_16  and  C_17
REMARK    7  A    between atoms: C_17  and  S_18
REMARK    8  A    between atoms: S_18  and  C_19
REMARK    9  A    between atoms: C_19  and  C_20
REMARK   10  A    between atoms: C_19  and  C_21
REMARK                            x       y       z     vdW  Elec       q    Type
REMARK                         _______ _______ _______ _____ _____    ______ ____
ROOT
ATOM      1  C   UNL     1      46.180   7.260  12.561  0.00  0.00    +0.000 C 
ATOM      2  O   UNL     1      45.421   8.150  12.938  0.00  0.00    +0.000 OA
ATOM      3  N   UNL     1      47.453   7.126  13.056  0.00  0.00    +0.000 N 
ATOM      4  H   UNL     1      48.011   6.331  12.779  0.00  0.00    +0.000 HD
ENDROOT
BRANCH   1  10
ATOM      5  C   UNL     1      44.174   3.299  10.188  0.00  0.00    +0.000 A 
ATOM      6  N   UNL     1      43.483   2.713  11.191  0.00  0.00    +0.000 NA
ATOM      7  C   UNL     1      43.527   3.271  12.418  0.00  0.00    +0.000 A 
ATOM      8  C   UNL     1      44.223   4.429  12.746  0.00  0.00    +0.000 A 
ATOM      9  C   UNL     1      44.924   5.074  11.710  0.00  0.00    +0.000 A 
ATOM     10  C   UNL     1      45.756   6.248  11.592  0.00  0.00    +0.000 A 
ATOM     11  C   UNL     1      46.188   6.283  10.273  0.00  0.00    +0.000 A 
ATOM     12  N   UNL     1      45.655   5.223   9.601  0.00  0.00    +0.000 N 
ATOM     13  C   UNL     1      44.882   4.469  10.449  0.00  0.00    +0.000 A 
ATOM     14  H   UNL     1      45.806   5.001   8.626  0.00  0.00    +0.000 HD
BRANCH   5  16
ATOM     15  C   UNL     1      45.203   1.747   8.782  0.00  0.00    +0.000 C 
ATOM     16  O   UNL     1      44.196   2.744   8.925  0.00  0.00    +0.000 OA
ENDBRANCH   5  16
ENDBRANCH   1  10
BRANCH   3  17
ATOM     17  C   UNL     1      48.001   8.051  14.031  0.00  0.00    +0.000 C 
BRANCH  17  18
ATOM     18  C   UNL     1      48.973   7.344  14.928  0.00  0.00    +0.000 A 
ATOM     19  C   UNL     1      48.536   6.344  15.799  0.00  0.00    +0.000 A 
ATOM     20  C   UNL     1      49.431   5.747  16.677  0.00  0.00    +0.000 A 
ATOM     21  C   UNL     1      50.767   6.144  16.655  0.00  0.00    +0.000 A 
ATOM     22  N   UNL     1      51.222   7.084  15.786  0.00  0.00    +0.000 NA
ATOM     23  C   UNL     1      50.328   7.653  14.945  0.00  0.00    +0.000 A 
BRANCH  21  24
ATOM     24  C   UNL     1      51.750   5.613  17.670  0.00  0.00    +0.000 C 
BRANCH  24  25
ATOM     25  S   UNL     1      51.251   4.095  18.540  0.00  0.00    +0.000 S 
BRANCH  25  26
ATOM     26  C   UNL     1      52.214   2.807  17.654  0.00  0.00    +0.000 C 
ATOM     27  C   UNL     1      53.381   2.267  18.474  0.00  0.00    +0.000 C 
ATOM     28  C   UNL     1      51.231   1.677  17.341  0.00  0.00    +0.000 C 
ENDBRANCH  25  26
ENDBRANCH  24  25
ENDBRANCH  21  24
ENDBRANCH  17  18
ENDBRANCH   3  17
TORSDOF 7
ENDMDL
MODEL 8
REMARK VINA RESULT:    -5.762      3.568      8.778
REMARK INTER + INTRA:          -8.954
REMARK INTER:                  -8.055
REMARK INTRA:                  -0.899
REMARK UNBOUND:                -0.834
REMARK  Name = 
REMARK  10 active torsions:
REMARK  status: ('A' for Active; 'I' for Inactive)
REMARK    1  A    between atoms: C_1  and  O_2
REMARK    2  A    between atoms: O_2  and  C_3
REMARK    3  A    between atoms: C_8  and  C_9
REMARK    4  A    between atoms: N_11  and  C_12
REMARK    5  A    between atoms: C_12  and  C_13
REMARK    6  A    between atoms: C_16  and  C_17
REMARK    7  A    between atoms: C_17  and  S_18
REMARK    8  A    between atoms: S_18  and  C_19
REMARK    9  A    between atoms: C_19  and  C_20
REMARK   10  A    between atoms: C_19  and  C_21
REMARK                            x       y       z     vdW  Elec       q    Type
REMARK                         _______ _______ _______ _____ _____    ______ ____
ROOT
ATOM      1  C   UNL     1      46.438   7.101  12.818  0.00  0.00    +0.000 C 
ATOM      2  O   UNL     1      45.816   8.092  13.191  0.00  0.00    +0.000 OA
ATOM      3  N   UNL     1      47.657   6.760  13.346  0.00  0.00    +0.000 N 
ATOM      4  H   UNL     1      48.093   5.892  13.068  0.00  0.00    +0.000 HD
ENDROOT
BRANCH   1  10
ATOM      5  C   UNL     1      44.048   3.431  10.333  0.00  0.00    +0.000 A 
ATOM      6  N   UNL     1      43.390   2.816  11.340  0.00  0.00    +0.000 NA
ATOM      7  C   UNL     1      43.547   3.283  12.595  0.00  0.00    +0.000 A 
ATOM      8  C   UNL     1      44.331   4.376  12.950  0.00  0.00    +0.000 A 
ATOM      9  C   UNL     1      45.001   5.052  11.913  0.00  0.00    +0.000 A 
ATOM     10  C   UNL     1      45.892   6.184  11.815  0.00  0.00    +0.000 A 
ATOM     11  C   UNL     1      46.238   6.287  10.475  0.00  0.00    +0.000 A 
ATOM     12  N   UNL     1      45.599   5.307   9.773  0.00  0.00    +0.000 N 
ATOM     13  C   UNL     1      44.840   4.539  10.621  0.00  0.00    +0.000 A 
ATOM     14  H   UNL     1      45.673   5.146   8.777  0.00  0.00    +0.000 HD
BRANCH   5  16
ATOM     15  C   UNL     1      44.862   1.900   8.771  0.00  0.00    +0.000 C 
ATOM     16  O   UNL     1      43.955   2.965   9.037  0.00  0.00    +0.000 OA
ENDBRANCH   5  16
ENDBRANCH   1  10
BRANCH   3  17
ATOM     17  C   UNL     1      48.312   7.572  14.355  0.00  0.00    +0.000 C 
BRANCH  17  18
ATOM     18  C   UNL     1      48.890   6.698  15.428  0.00  0.00    +0.000 A 
ATOM     19  C   UNL     1      48.184   5.588  15.897  0.00  0.00    +0.000 A 
ATOM     20  C   UNL     1      48.695   4.829  16.942  0.00  0.00    +0.000 A 
ATOM     21  C   UNL     1      49.927   5.178  17.492  0.00  0.00    +0.000 A 
ATOM     22  N   UNL     1      50.651   6.227  17.023  0.00  0.00    +0.000 NA
ATOM     23  C   UNL     1      50.127   6.954  16.008  0.00  0.00    +0.000 A 
BRANCH  21  24
ATOM     24  C   UNL     1      50.465   4.459  18.705  0.00  0.00    +0.000 C 
BRANCH  24  25
ATOM     25  S   UNL     1      51.041   5.520  20.066  0.00  0.00    +0.000 S 
BRANCH  25  26
ATOM     26  C   UNL     1      49.486   5.843  20.990  0.00  0.00    +0.000 C 
ATOM     27  C   UNL     1      48.658   6.971  20.384  0.00  0.00    +0.000 C 
ATOM     28  C   UNL     1      48.690   4.536  20.956  0.00  0.00    +0.000 C 
ENDBRANCH  25  26
ENDBRANCH  24  25
ENDBRANCH  21  24
ENDBRANCH  17  18
ENDBRANCH   3  17
TORSDOF 7
ENDMDL
MODEL 9
REMARK VINA RESULT:    -5.537      1.714      2.198
REMARK INTER + INTRA:          -8.637
REMARK INTER:                  -7.931
REMARK INTRA:                  -0.706
REMARK UNBOUND:                -0.834
REMARK  Name = 
REMARK  10 active torsions:
REMARK  status: ('A' for Active; 'I' for Inactive)
REMARK    1  A    between atoms: C_1  and  O_2
REMARK    2  A    between atoms: O_2  and  C_3
REMARK    3  A    between atoms: C_8  and  C_9
REMARK    4  A    between atoms: N_11  and  C_12
REMARK    5  A    between atoms: C_12  and  C_13
REMARK    6  A    between atoms: C_16  and  C_17
REMARK    7  A    between atoms: C_17  and  S_18
REMARK    8  A    between atoms: S_18  and  C_19
REMARK    9  A    between atoms: C_19  and  C_20
REMARK   10  A    between atoms: C_19  and  C_21
REMARK                            x       y       z     vdW  Elec       q    Type
REMARK                         _______ _______ _______ _____ _____    ______ ____
ROOT
ATOM      1  C   UNL     1      48.973   8.003  15.730  0.00  0.00    +0.000 C 
ATOM      2  O   UNL     1      49.920   8.627  15.258  0.00  0.00    +0.000 OA
ATOM      3  N   UNL     1      47.899   7.615  14.969  0.00  0.00    +0.000 N 
ATOM      4  H   UNL     1      47.185   7.033  15.382  0.00  0.00    +0.000 HD
ENDROOT
BRANCH   1  10
ATOM      5  C   UNL     1      48.797   5.463  20.074  0.00  0.00    +0.000 A 
ATOM      6  N   UNL     1      48.728   4.188  19.631  0.00  0.00    +0.000 NA
ATOM      7  C   UNL     1      48.709   3.966  18.302  0.00  0.00    +0.000 A 
ATOM      8  C   UNL     1      48.769   4.953  17.324  0.00  0.00    +0.000 A 
ATOM      9  C   UNL     1      48.873   6.287  17.762  0.00  0.00    +0.000 A 
ATOM     10  C   UNL     1      48.953   7.584  17.133  0.00  0.00    +0.000 A 
ATOM     11  C   UNL     1      48.978   8.512  18.166  0.00  0.00    +0.000 A 
ATOM     12  N   UNL     1      48.938   7.852  19.359  0.00  0.00    +0.000 N 
ATOM     13  C   UNL     1      48.873   6.497  19.146  0.00  0.00    +0.000 A 
ATOM     14  H   UNL     1      48.941   8.281  20.275  0.00  0.00    +0.000 HD
BRANCH   5  16
ATOM     15  C   UNL     1      47.478   5.610  21.994  0.00  0.00    +0.000 C 
ATOM     16  O   UNL     1      48.777   5.746  21.425  0.00  0.00    +0.000 OA
ENDBRANCH   5  16
ENDBRANCH   1  10
BRANCH   3  17
ATOM     17  C   UNL     1      47.792   7.951  13.562  0.00  0.00    +0.000 C 
BRANCH  17  18
ATOM     18  C   UNL     1      46.711   7.137  12.915  0.00  0.00    +0.000 A 
ATOM     19  C   UNL     1      46.688   5.748  13.057  0.00  0.00    +0.000 A 
ATOM     20  C   UNL     1      45.726   4.998  12.394  0.00  0.00    +0.000 A 
ATOM     21  C   UNL     1      44.777   5.654  11.611  0.00  0.00    +0.000 A 
ATOM     22  N   UNL     1      44.755   7.007  11.494  0.00  0.00    +0.000 NA
ATOM     23  C   UNL     1      45.707   7.714  12.146  0.00  0.00    +0.000 A 
BRANCH  21  24
ATOM     24  C   UNL     1      43.789   4.875  10.776  0.00  0.00    +0.000 C 
BRANCH  24  25
ATOM     25  S   UNL     1      44.148   3.104  10.568  0.00  0.00    +0.000 S 
BRANCH  25  26
ATOM     26  C   UNL     1      44.705   3.025   8.820  0.00  0.00    +0.000 C 
ATOM     27  C   UNL     1      45.475   4.267   8.384  0.00  0.00    +0.000 C 
ATOM     28  C   UNL     1      45.603   1.790   8.712  0.00  0.00    +0.000 C 
ENDBRANCH  25  26
ENDBRANCH  24  25
ENDBRANCH  21  24
ENDBRANCH  17  18
ENDBRANCH   3  17
TORSDOF 7
ENDMDL
