MODEL 1
REMARK VINA RESULT:    -7.729      0.000      0.000
REMARK INTER + INTRA:         -12.031
REMARK INTER:                 -10.892
REMARK INTRA:                  -1.139
REMARK UNBOUND:                -1.139
REMARK  Name = 
REMARK  9 active torsions:
REMARK  status: ('A' for Active; 'I' for Inactive)
REMARK    1  A    between atoms: C_1  and  C_2
REMARK    2  A    between atoms: C_2  and  C_3
REMARK    3  A    between atoms: C_2  and  O_4
REMARK    4  A    between atoms: O_4  and  C_5
REMARK    5  A    between atoms: C_9  and  C_10
REMARK    6  A    between atoms: C_10  and  C_11
REMARK    7  A    between atoms: C_14  and  C_15
REMARK    8  A    between atoms: C_15  and  N_16
REMARK    9  A    between atoms: C_17  and  C_19
REMARK                            x       y       z     vdW  Elec       q    Type
REMARK                         _______ _______ _______ _____ _____    ______ ____
ROOT
ATOM      1  C   UNL     1      47.342   5.481  13.601  0.00  0.00    +0.000 A 
ATOM      2  C   UNL     1      46.864   4.178  13.711  0.00  0.00    +0.000 A 
ATOM      3  C   UNL     1      47.047   3.486  14.907  0.00  0.00    +0.000 A 
ATOM      4  C   UNL     1      47.700   4.101  15.977  0.00  0.00    +0.000 A 
ATOM      5  C   UNL     1      48.156   5.399  15.775  0.00  0.00    +0.000 A 
ATOM      6  N   UNL     1      48.007   6.091  14.620  0.00  0.00    +0.000 NA
ENDROOT
BRANCH   1   7
ATOM      7  C   UNL     1      46.986   6.330  12.389  0.00  0.00    +0.000 C 
BRANCH   7  12
ATOM      8  C   UNL     1      44.239   4.720  10.238  0.00  0.00    +0.000 A 
ATOM      9  C   UNL     1      43.140   4.914  11.077  0.00  0.00    +0.000 A 
ATOM     10  C   UNL     1      43.254   5.673  12.239  0.00  0.00    +0.000 A 
ATOM     11  C   UNL     1      44.486   6.200  12.608  0.00  0.00    +0.000 A 
ATOM     12  C   UNL     1      45.627   5.945  11.836  0.00  0.00    +0.000 A 
ATOM     13  C   UNL     1      45.485   5.247  10.624  0.00  0.00    +0.000 A 
BRANCH   8  14
ATOM     14  O   UNL     1      44.229   4.042   9.052  0.00  0.00    +0.000 OA
BRANCH  14  16
ATOM     15  C   UNL     1      44.873   1.737   8.902  0.00  0.00    +0.000 C 
ATOM     16  C   UNL     1      45.334   3.183   8.735  0.00  0.00    +0.000 C 
ATOM     17  C   UNL     1      45.781   3.431   7.296  0.00  0.00    +0.000 C 
ENDBRANCH  14  16
ENDBRANCH   8  14
ENDBRANCH   7  12
ENDBRANCH   1   7
BRANCH   4  18
ATOM     18  C   UNL     1      47.865   3.414  17.300  0.00  0.00    +0.000 C 
BRANCH  18  19
ATOM     19  N   UNL     1      49.255   3.241  17.651  0.00  0.00    +0.000 N 
ATOM     20  C   UNL     1      50.021   2.279  17.038  0.00  0.00    +0.000 C 
ATOM     21  O   UNL     1      49.570   1.573  16.141  0.00  0.00    +0.000 OA
ATOM     22  H   UNL     1      49.571   3.644  18.529  0.00  0.00    +0.000 HD
BRANCH  20  23
ATOM     23  C   UNL     1      51.424   2.171  17.464  0.00  0.00    +0.000 A 
ATOM     24  C   UNL     1      51.976   0.915  17.688  0.00  0.00    +0.000 A 
ATOM     25  S   UNL     1      53.619   0.960  18.141  0.00  0.00    +0.000 S 
ATOM     26  C   UNL     1      53.640   2.660  18.105  0.00  0.00    +0.000 A 
ATOM     27  N   UNL     1      54.765   3.351  18.427  0.00  0.00    +0.000 NA
ATOM     28  C   UNL     1      54.632   4.636  18.387  0.00  0.00    +0.000 A 
ATOM     29  N   UNL     1      53.477   5.290  18.046  0.00  0.00    +0.000 N 
ATOM     30  C   UNL     1      52.325   4.632  17.681  0.00  0.00    +0.000 A 
ATOM     31  O   UNL     1      51.317   5.245  17.345  0.00  0.00    +0.000 OA
ATOM     32  C   UNL     1      52.416   3.187  17.728  0.00  0.00    +0.000 A 
ATOM     33  H   UNL     1      53.441   6.298  18.024  0.00  0.00    +0.000 HD
ENDBRANCH  20  23
ENDBRANCH  18  19
ENDBRANCH   4  18
TORSDOF 7
ENDMDL
MODEL 2
REMARK VINA RESULT:    -7.543      3.108      4.664
REMARK INTER + INTRA:         -11.770
REMARK INTER:                 -10.794
REMARK INTRA:                  -0.976
REMARK UNBOUND:                -1.139
REMARK  Name = 
REMARK  9 active torsions:
REMARK  status: ('A' for Active; 'I' for Inactive)
REMARK    1  A    between atoms: C_1  and  C_2
REMARK    2  A    between atoms: C_2  and  C_3
REMARK    3  A    between atoms: C_2  and  O_4
REMARK    4  A    between atoms: O_4  and  C_5
REMARK    5  A    between atoms: C_9  and  C_10
REMARK    6  A    between atoms: C_10  and  C_11
REMARK    7  A    between atoms: C_14  and  C_15
REMARK    8  A    between atoms: C_15  and  N_16
REMARK    9  A    between atoms: C_17  and  C_19
REMARK                            x       y       z     vdW  Elec       q    Type
REMARK                         _______ _______ _______ _____ _____    ______ ____
ROOT
ATOM      1  C   UNL     1      44.851   6.365  11.504  0.00  0.00    +0.000 A 
ATOM      2  C   UNL     1      45.803   5.650  12.226  0.00  0.00    +0.000 A 
ATOM      3  C   UNL     1      46.774   6.345  12.944  0.00  0.00    +0.000 A 
ATOM      4  C   UNL     1      46.783   7.742  12.935  0.00  0.00    +0.000 A 
ATOM      5  C   UNL     1      45.805   8.374  12.177  0.00  0.00    +0.000 A 
ATOM      6  N   UNL     1      44.857   7.725  11.456  0.00  0.00    +0.000 NA
ENDROOT
BRANCH   1   7
ATOM      7  C   UNL     1      43.665   5.648  10.876  0.00  0.00    +0.000 C 
BRANCH   7  12
ATOM      8  C   UNL     1      45.543   3.339   8.446  0.00  0.00    +0.000 A 
ATOM      9  C   UNL     1      45.228   2.100   9.008  0.00  0.00    +0.000 A 
ATOM     10  C   UNL     1      44.315   2.003  10.055  0.00  0.00    +0.000 A 
ATOM     11  C   UNL     1      43.749   3.152  10.594  0.00  0.00    +0.000 A 
ATOM     12  C   UNL     1      44.116   4.416  10.113  0.00  0.00    +0.000 A 
ATOM     13  C   UNL     1      44.975   4.498   9.004  0.00  0.00    +0.000 A 
BRANCH   8  14
ATOM     14  O   UNL     1      46.380   3.545   7.386  0.00  0.00    +0.000 OA
BRANCH  14  16
ATOM     15  C   UNL     1      47.041   3.026   5.141  0.00  0.00    +0.000 C 
ATOM     16  C   UNL     1      46.661   2.450   6.502  0.00  0.00    +0.000 C 
ATOM     17  C   UNL     1      47.812   1.619   7.063  0.00  0.00    +0.000 C 
ENDBRANCH  14  16
ENDBRANCH   8  14
ENDBRANCH   7  12
ENDBRANCH   1   7
BRANCH   4  18
ATOM     18  C   UNL     1      47.774   8.529  13.742  0.00  0.00    +0.000 C 
BRANCH  18  19
ATOM     19  N   UNL     1      47.970   7.966  15.057  0.00  0.00    +0.000 N 
ATOM     20  C   UNL     1      49.061   7.175  15.327  0.00  0.00    +0.000 C 
ATOM     21  O   UNL     1      49.927   6.963  14.484  0.00  0.00    +0.000 OA
ATOM     22  H   UNL     1      47.168   7.938  15.681  0.00  0.00    +0.000 HD
BRANCH  20  23
ATOM     23  C   UNL     1      49.175   6.640  16.692  0.00  0.00    +0.000 A 
ATOM     24  C   UNL     1      49.774   7.410  17.681  0.00  0.00    +0.000 A 
ATOM     25  S   UNL     1      49.797   6.662  19.213  0.00  0.00    +0.000 S 
ATOM     26  C   UNL     1      49.053   5.260  18.601  0.00  0.00    +0.000 A 
ATOM     27  N   UNL     1      48.804   4.194  19.406  0.00  0.00    +0.000 NA
ATOM     28  C   UNL     1      48.265   3.186  18.803  0.00  0.00    +0.000 A 
ATOM     29  N   UNL     1      47.944   3.153  17.472  0.00  0.00    +0.000 N 
ATOM     30  C   UNL     1      48.147   4.219  16.627  0.00  0.00    +0.000 A 
ATOM     31  O   UNL     1      47.816   4.174  15.447  0.00  0.00    +0.000 OA
ATOM     32  C   UNL     1      48.770   5.371  17.250  0.00  0.00    +0.000 A 
ATOM     33  H   UNL     1      47.513   2.336  17.064  0.00  0.00    +0.000 HD
ENDBRANCH  20  23
ENDBRANCH  18  19
ENDBRANCH   4  18
TORSDOF 7
ENDMDL
MODEL 3
REMARK VINA RESULT:    -7.325      3.117      4.426
REMARK INTER + INTRA:         -11.462
REMARK INTER:                 -10.125
REMARK INTRA:                  -1.337
REMARK UNBOUND:                -1.139
REMARK  Name = 
REMARK  9 active torsions:
REMARK  status: ('A' for Active; 'I' for Inactive)
REMARK    1  A    between atoms: C_1  and  C_2
REMARK    2  A    between atoms: C_2  and  C_3
REMARK    3  A    between atoms: C_2  and  O_4
REMARK    4  A    between atoms: O_4  and  C_5
REMARK    5  A    between atoms: C_9  and  C_10
REMARK    6  A    between atoms: C_10  and  C_11
REMARK    7  A    between atoms: C_14  and  C_15
REMARK    8  A    between atoms: C_15  and  N_16
REMARK    9  A    between atoms: C_17  and  C_19
REMARK                            x       y       z     vdW  Elec       q    Type
REMARK                         _______ _______ _______ _____ _____    ______ ____
ROOT
ATOM      1  C   UNL     1      45.452   7.503  11.804  0.00  0.00    +0.000 A 
ATOM      2  C   UNL     1      46.555   6.708  11.502  0.00  0.00    +0.000 A 
ATOM      3  C   UNL     1      47.771   6.964  12.133  0.00  0.00    +0.000 A 
ATOM      4  C   UNL     1      47.872   8.007  13.057  0.00  0.00    +0.000 A 
ATOM      5  C   UNL     1      46.725   8.758  13.288  0.00  0.00    +0.000 A 
ATOM      6  N   UNL     1      45.534   8.542  12.678  0.00  0.00    +0.000 NA
ENDROOT
BRANCH   1   7
ATOM      7  C   UNL     1      44.071   7.128  11.288  0.00  0.00    +0.000 C 
BRANCH   7  12
ATOM      8  C   UNL     1      43.961   3.349  10.596  0.00  0.00    +0.000 A 
ATOM      9  C   UNL     1      43.734   2.880  11.891  0.00  0.00    +0.000 A 
ATOM     10  C   UNL     1      43.477   3.764  12.936  0.00  0.00    +0.000 A 
ATOM     11  C   UNL     1      43.502   5.135  12.710  0.00  0.00    +0.000 A 
ATOM     12  C   UNL     1      43.819   5.639  11.442  0.00  0.00    +0.000 A 
ATOM     13  C   UNL     1      43.996   4.739  10.377  0.00  0.00    +0.000 A 
BRANCH   8  14
ATOM     14  O   UNL     1      44.169   2.574   9.491  0.00  0.00    +0.000 OA
BRANCH  14  16
ATOM     15  C   UNL     1      45.837   1.247   8.393  0.00  0.00    +0.000 C 
ATOM     16  C   UNL     1      45.432   2.657   8.814  0.00  0.00    +0.000 C 
ATOM     17  C   UNL     1      45.299   3.556   7.587  0.00  0.00    +0.000 C 
ENDBRANCH  14  16
ENDBRANCH   8  14
ENDBRANCH   7  12
ENDBRANCH   1   7
BRANCH   4  18
ATOM     18  C   UNL     1      49.145   8.279  13.802  0.00  0.00    +0.000 C 
BRANCH  18  19
ATOM     19  N   UNL     1      49.276   7.444  14.973  0.00  0.00    +0.000 N 
ATOM     20  C   UNL     1      48.866   7.893  16.206  0.00  0.00    +0.000 C 
ATOM     21  O   UNL     1      48.331   8.988  16.347  0.00  0.00    +0.000 OA
ATOM     22  H   UNL     1      49.912   6.653  14.917  0.00  0.00    +0.000 HD
BRANCH  20  23
ATOM     23  C   UNL     1      49.044   6.978  17.343  0.00  0.00    +0.000 A 
ATOM     24  C   UNL     1      49.641   7.443  18.508  0.00  0.00    +0.000 A 
ATOM     25  S   UNL     1      49.741   6.270  19.742  0.00  0.00    +0.000 S 
ATOM     26  C   UNL     1      49.038   5.083  18.747  0.00  0.00    +0.000 A 
ATOM     27  N   UNL     1      48.858   3.813  19.196  0.00  0.00    +0.000 NA
ATOM     28  C   UNL     1      48.342   3.008  18.327  0.00  0.00    +0.000 A 
ATOM     29  N   UNL     1      47.982   3.362  17.053  0.00  0.00    +0.000 N 
ATOM     30  C   UNL     1      48.115   4.642  16.567  0.00  0.00    +0.000 A 
ATOM     31  O   UNL     1      47.751   4.938  15.434  0.00  0.00    +0.000 OA
ATOM     32  C   UNL     1      48.708   5.582  17.498  0.00  0.00    +0.000 A 
ATOM     33  H   UNL     1      47.573   2.687  16.424  0.00  0.00    +0.000 HD
ENDBRANCH  20  23
ENDBRANCH  18  19
ENDBRANCH   4  18
TORSDOF 7
ENDMDL
MODEL 4
REMARK VINA RESULT:    -7.089      3.858      8.952
REMARK INTER + INTRA:         -11.129
REMARK INTER:                  -9.575
REMARK INTRA:                  -1.554
REMARK UNBOUND:                -1.139
REMARK  Name = 
REMARK  9 active torsions:
REMARK  status: ('A' for Active; 'I' for Inactive)
REMARK    1  A    between atoms: C_1  and  C_2
REMARK    2  A    between atoms: C_2  and  C_3
REMARK    3  A    between atoms: C_2  and  O_4
REMARK    4  A    between atoms: O_4  and  C_5
REMARK    5  A    between atoms: C_9  and  C_10
REMARK    6  A    between atoms: C_10  and  C_11
REMARK    7  A    between atoms: C_14  and  C_15
REMARK    8  A    between atoms: C_15  and  N_16
REMARK    9  A    between atoms: C_17  and  C_19
REMARK                            x       y       z     vdW  Elec       q    Type
REMARK                         _______ _______ _______ _____ _____    ______ ____
ROOT
ATOM      1  C   UNL     1      49.334   8.579  15.755  0.00  0.00    +0.000 A 
ATOM      2  C   UNL     1      48.160   9.195  15.329  0.00  0.00    +0.000 A 
ATOM      3  C   UNL     1      47.734   9.011  14.014  0.00  0.00    +0.000 A 
ATOM      4  C   UNL     1      48.481   8.214  13.144  0.00  0.00    +0.000 A 
ATOM      5  C   UNL     1      49.646   7.649  13.649  0.00  0.00    +0.000 A 
ATOM      6  N   UNL     1      50.093   7.823  14.917  0.00  0.00    +0.000 NA
ENDROOT
BRANCH   1   7
ATOM      7  C   UNL     1      49.719   8.595  17.227  0.00  0.00    +0.000 C 
BRANCH   7  12
ATOM      8  C   UNL     1      47.771   5.506  18.422  0.00  0.00    +0.000 A 
ATOM      9  C   UNL     1      47.494   5.897  19.734  0.00  0.00    +0.000 A 
ATOM     10  C   UNL     1      47.800   7.181  20.176  0.00  0.00    +0.000 A 
ATOM     11  C   UNL     1      48.441   8.075  19.327  0.00  0.00    +0.000 A 
ATOM     12  C   UNL     1      48.816   7.683  18.035  0.00  0.00    +0.000 A 
ATOM     13  C   UNL     1      48.430   6.413  17.572  0.00  0.00    +0.000 A 
BRANCH   8  14
ATOM     14  O   UNL     1      47.467   4.295  17.868  0.00  0.00    +0.000 OA
BRANCH  14  16
ATOM     15  C   UNL     1      48.634   2.502  16.789  0.00  0.00    +0.000 C 
ATOM     16  C   UNL     1      48.094   3.921  16.633  0.00  0.00    +0.000 C 
ATOM     17  C   UNL     1      47.072   3.975  15.500  0.00  0.00    +0.000 C 
ENDBRANCH  14  16
ENDBRANCH   8  14
ENDBRANCH   7  12
ENDBRANCH   1   7
BRANCH   4  18
ATOM     18  C   UNL     1      48.028   7.941  11.740  0.00  0.00    +0.000 C 
BRANCH  18  19
ATOM     19  N   UNL     1      47.246   6.730  11.649  0.00  0.00    +0.000 N 
ATOM     20  C   UNL     1      45.874   6.773  11.708  0.00  0.00    +0.000 C 
ATOM     21  O   UNL     1      45.266   7.836  11.786  0.00  0.00    +0.000 OA
ATOM     22  H   UNL     1      47.725   5.849  11.816  0.00  0.00    +0.000 HD
BRANCH  20  23
ATOM     23  C   UNL     1      45.162   5.490  11.615  0.00  0.00    +0.000 A 
ATOM     24  C   UNL     1      44.482   5.003  12.725  0.00  0.00    +0.000 A 
ATOM     25  S   UNL     1      43.680   3.525  12.443  0.00  0.00    +0.000 S 
ATOM     26  C   UNL     1      44.253   3.456  10.843  0.00  0.00    +0.000 A 
ATOM     27  N   UNL     1      43.948   2.404  10.038  0.00  0.00    +0.000 NA
ATOM     28  C   UNL     1      44.475   2.465   8.859  0.00  0.00    +0.000 A 
ATOM     29  N   UNL     1      45.270   3.487   8.412  0.00  0.00    +0.000 N 
ATOM     30  C   UNL     1      45.577   4.586   9.180  0.00  0.00    +0.000 A 
ATOM     31  O   UNL     1      46.262   5.504   8.740  0.00  0.00    +0.000 OA
ATOM     32  C   UNL     1      45.026   4.558  10.520  0.00  0.00    +0.000 A 
ATOM     33  H   UNL     1      45.642   3.480   7.474  0.00  0.00    +0.000 HD
ENDBRANCH  20  23
ENDBRANCH  18  19
ENDBRANCH   4  18
TORSDOF 7
ENDMDL
MODEL 5
REMARK VINA RESULT:    -7.004      2.219      3.361
REMARK INTER + INTRA:         -11.010
REMARK INTER:                  -9.720
REMARK INTRA:                  -1.290
REMARK UNBOUND:                -1.139
REMARK  Name = 
REMARK  9 active torsions:
REMARK  status: ('A' for Active; 'I' for Inactive)
REMARK    1  A    between atoms: C_1  and  C_2
REMARK    2  A    between atoms: C_2  and  C_3
REMARK    3  A    between atoms: C_2  and  O_4
REMARK    4  A    between atoms: O_4  and  C_5
REMARK    5  A    between atoms: C_9  and  C_10
REMARK    6  A    between atoms: C_10  and  C_11
REMARK    7  A    between atoms: C_14  and  C_15
REMARK    8  A    between atoms: C_15  and  N_16
REMARK    9  A    between atoms: C_17  and  C_19
REMARK                            x       y       z     vdW  Elec       q    Type
REMARK                         _______ _______ _______ _____ _____    ______ ____
ROOT
ATOM      1  C   UNL     1      45.537   7.554  11.916  0.00  0.00    +0.000 A 
ATOM      2  C   UNL     1      46.615   6.726  11.615  0.00  0.00    +0.000 A 
ATOM      3  C   UNL     1      47.829   6.925  12.269  0.00  0.00    +0.000 A 
ATOM      4  C   UNL     1      47.953   7.944  13.216  0.00  0.00    +0.000 A 
ATOM      5  C   UNL     1      46.830   8.731  13.445  0.00  0.00    +0.000 A 
ATOM      6  N   UNL     1      45.642   8.571  12.814  0.00  0.00    +0.000 NA
ENDROOT
BRANCH   1   7
ATOM      7  C   UNL     1      44.151   7.239  11.372  0.00  0.00    +0.000 C 
BRANCH   7  12
ATOM      8  C   UNL     1      43.979   3.506  10.476  0.00  0.00    +0.000 A 
ATOM      9  C   UNL     1      43.713   2.974  11.740  0.00  0.00    +0.000 A 
ATOM     10  C   UNL     1      43.451   3.806  12.825  0.00  0.00    +0.000 A 
ATOM     11  C   UNL     1      43.510   5.187  12.673  0.00  0.00    +0.000 A 
ATOM     12  C   UNL     1      43.865   5.751  11.440  0.00  0.00    +0.000 A 
ATOM     13  C   UNL     1      44.048   4.904  10.333  0.00  0.00    +0.000 A 
BRANCH   8  14
ATOM     14  O   UNL     1      44.196   2.786   9.336  0.00  0.00    +0.000 OA
BRANCH  14  16
ATOM     15  C   UNL     1      45.813   1.271   8.423  0.00  0.00    +0.000 C 
ATOM     16  C   UNL     1      45.525   2.722   8.799  0.00  0.00    +0.000 C 
ATOM     17  C   UNL     1      45.625   3.616   7.566  0.00  0.00    +0.000 C 
ENDBRANCH  14  16
ENDBRANCH   8  14
ENDBRANCH   7  12
ENDBRANCH   1   7
BRANCH   4  18
ATOM     18  C   UNL     1      49.223   8.155  13.986  0.00  0.00    +0.000 C 
BRANCH  18  19
ATOM     19  N   UNL     1      49.576   6.999  14.776  0.00  0.00    +0.000 N 
ATOM     20  C   UNL     1      49.175   6.893  16.086  0.00  0.00    +0.000 C 
ATOM     21  O   UNL     1      48.465   7.745  16.612  0.00  0.00    +0.000 OA
ATOM     22  H   UNL     1      50.336   6.414  14.439  0.00  0.00    +0.000 HD
BRANCH  20  23
ATOM     23  C   UNL     1      49.586   5.684  16.815  0.00  0.00    +0.000 A 
ATOM     24  C   UNL     1      48.616   4.818  17.305  0.00  0.00    +0.000 A 
ATOM     25  S   UNL     1      49.255   3.448  18.093  0.00  0.00    +0.000 S 
ATOM     26  C   UNL     1      50.851   3.986  17.853  0.00  0.00    +0.000 A 
ATOM     27  N   UNL     1      51.907   3.271  18.323  0.00  0.00    +0.000 NA
ATOM     28  C   UNL     1      53.059   3.811  18.098  0.00  0.00    +0.000 A 
ATOM     29  N   UNL     1      53.249   4.997  17.437  0.00  0.00    +0.000 N 
ATOM     30  C   UNL     1      52.214   5.737  16.917  0.00  0.00    +0.000 A 
ATOM     31  O   UNL     1      52.417   6.776  16.298  0.00  0.00    +0.000 OA
ATOM     32  C   UNL     1      50.896   5.184  17.159  0.00  0.00    +0.000 A 
ATOM     33  H   UNL     1      54.178   5.360  17.284  0.00  0.00    +0.000 HD
ENDBRANCH  20  23
ENDBRANCH  18  19
ENDBRANCH   4  18
TORSDOF 7
ENDMDL
MODEL 6
REMARK VINA RESULT:    -6.978      3.512      4.593
REMARK INTER + INTRA:         -10.974
REMARK INTER:                  -9.798
REMARK INTRA:                  -1.175
REMARK UNBOUND:                -1.139
REMARK  Name = 
REMARK  9 active torsions:
REMARK  status: ('A' for Active; 'I' for Inactive)
REMARK    1  A    between atoms: C_1  and  C_2
REMARK    2  A    between atoms: C_2  and  C_3
REMARK    3  A    between atoms: C_2  and  O_4
REMARK    4  A    between atoms: O_4  and  C_5
REMARK    5  A    between atoms: C_9  and  C_10
REMARK    6  A    between atoms: C_10  and  C_11
REMARK    7  A    between atoms: C_14  and  C_15
REMARK    8  A    between atoms: C_15  and  N_16
REMARK    9  A    between atoms: C_17  and  C_19
REMARK                            x       y       z     vdW  Elec       q    Type
REMARK                         _______ _______ _______ _____ _____    ______ ____
ROOT
ATOM      1  C   UNL     1      46.125   7.409  12.406  0.00  0.00    +0.000 A 
ATOM      2  C   UNL     1      47.011   6.355  12.199  0.00  0.00    +0.000 A 
ATOM      3  C   UNL     1      48.195   6.308  12.932  0.00  0.00    +0.000 A 
ATOM      4  C   UNL     1      48.480   7.311  13.862  0.00  0.00    +0.000 A 
ATOM      5  C   UNL     1      47.547   8.332  13.994  0.00  0.00    +0.000 A 
ATOM      6  N   UNL     1      46.395   8.412  13.285  0.00  0.00    +0.000 NA
ENDROOT
BRANCH   1   7
ATOM      7  C   UNL     1      44.741   7.385  11.773  0.00  0.00    +0.000 C 
BRANCH   7  12
ATOM      8  C   UNL     1      43.977   3.842  10.497  0.00  0.00    +0.000 A 
ATOM      9  C   UNL     1      43.585   3.241  11.696  0.00  0.00    +0.000 A 
ATOM     10  C   UNL     1      43.431   3.995  12.856  0.00  0.00    +0.000 A 
ATOM     11  C   UNL     1      43.724   5.354  12.847  0.00  0.00    +0.000 A 
ATOM     12  C   UNL     1      44.209   5.968  11.684  0.00  0.00    +0.000 A 
ATOM     13  C   UNL     1      44.283   5.215  10.499  0.00  0.00    +0.000 A 
BRANCH   8  14
ATOM     14  O   UNL     1      44.107   3.212   9.293  0.00  0.00    +0.000 OA
BRANCH  14  16
ATOM     15  C   UNL     1      45.478   1.362   8.624  0.00  0.00    +0.000 C 
ATOM     16  C   UNL     1      45.421   2.874   8.825  0.00  0.00    +0.000 C 
ATOM     17  C   UNL     1      45.697   3.593   7.507  0.00  0.00    +0.000 C 
ENDBRANCH  14  16
ENDBRANCH   8  14
ENDBRANCH   7  12
ENDBRANCH   1   7
BRANCH   4  18
ATOM     18  C   UNL     1      49.715   7.267  14.714  0.00  0.00    +0.000 C 
BRANCH  18  19
ATOM     19  N   UNL     1      49.400   7.290  16.123  0.00  0.00    +0.000 N 
ATOM     20  C   UNL     1      48.882   6.181  16.747  0.00  0.00    +0.000 C 
ATOM     21  O   UNL     1      48.718   5.123  16.146  0.00  0.00    +0.000 OA
ATOM     22  H   UNL     1      49.311   8.199  16.570  0.00  0.00    +0.000 HD
BRANCH  20  23
ATOM     23  C   UNL     1      48.586   6.298  18.182  0.00  0.00    +0.000 A 
ATOM     24  C   UNL     1      48.780   5.201  19.012  0.00  0.00    +0.000 A 
ATOM     25  S   UNL     1      48.425   5.510  20.651  0.00  0.00    +0.000 S 
ATOM     26  C   UNL     1      47.951   7.106  20.304  0.00  0.00    +0.000 A 
ATOM     27  N   UNL     1      47.499   7.930  21.287  0.00  0.00    +0.000 NA
ATOM     28  C   UNL     1      47.144   9.103  20.878  0.00  0.00    +0.000 A 
ATOM     29  N   UNL     1      47.210   9.529  19.578  0.00  0.00    +0.000 N 
ATOM     30  C   UNL     1      47.691   8.743  18.557  0.00  0.00    +0.000 A 
ATOM     31  O   UNL     1      47.772   9.164  17.408  0.00  0.00    +0.000 OA
ATOM     32  C   UNL     1      48.085   7.407  18.959  0.00  0.00    +0.000 A 
ATOM     33  H   UNL     1      46.927  10.464  19.325  0.00  0.00    +0.000 HD
ENDBRANCH  20  23
ENDBRANCH  18  19
ENDBRANCH   4  18
TORSDOF 7
ENDMDL
MODEL 7
REMARK VINA RESULT:    -6.949      1.828      2.895
REMARK INTER + INTRA:         -10.932
REMARK INTER:                  -9.938
REMARK INTRA:                  -0.995
REMARK UNBOUND:                -1.139
REMARK  Name = 
REMARK  9 active torsions:
REMARK  status: ('A' for Active; 'I' for Inactive)
REMARK    1  A    between atoms: C_1  and  C_2
REMARK    2  A    between atoms: C_2  and  C_3
REMARK    3  A    between atoms: C_2  and  O_4
REMARK    4  A    between atoms: O_4  and  C_5
REMARK    5  A    between atoms: C_9  and  C_10
REMARK    6  A    between atoms: C_10  and  C_11
REMARK    7  A    between atoms: C_14  and  C_15
REMARK    8  A    between atoms: C_15  and  N_16
REMARK    9  A    between atoms: C_17  and  C_19
REMARK                            x       y       z     vdW  Elec       q    Type
REMARK                         _______ _______ _______ _____ _____    ______ ____
ROOT
ATOM      1  C   UNL     1      47.561   7.156  13.175  0.00  0.00    +0.000 A 
ATOM      2  C   UNL     1      47.497   8.435  13.721  0.00  0.00    +0.000 A 
ATOM      3  C   UNL     1      48.096   8.678  14.957  0.00  0.00    +0.000 A 
ATOM      4  C   UNL     1      48.752   7.644  15.629  0.00  0.00    +0.000 A 
ATOM      5  C   UNL     1      48.756   6.397  15.017  0.00  0.00    +0.000 A 
ATOM      6  N   UNL     1      48.169   6.127  13.825  0.00  0.00    +0.000 NA
ENDROOT
BRANCH   1   7
ATOM      7  C   UNL     1      47.096   6.907  11.748  0.00  0.00    +0.000 C 
BRANCH   7  12
ATOM      8  C   UNL     1      44.301   4.431  10.838  0.00  0.00    +0.000 A 
ATOM      9  C   UNL     1      43.493   4.563  11.970  0.00  0.00    +0.000 A 
ATOM     10  C   UNL     1      43.766   5.531  12.933  0.00  0.00    +0.000 A 
ATOM     11  C   UNL     1      44.887   6.343  12.806  0.00  0.00    +0.000 A 
ATOM     12  C   UNL     1      45.768   6.173  11.729  0.00  0.00    +0.000 A 
ATOM     13  C   UNL     1      45.439   5.249  10.722  0.00  0.00    +0.000 A 
BRANCH   8  14
ATOM     14  O   UNL     1      44.097   3.557   9.809  0.00  0.00    +0.000 OA
BRANCH  14  16
ATOM     15  C   UNL     1      45.132   1.574   8.946  0.00  0.00    +0.000 C 
ATOM     16  C   UNL     1      45.229   3.093   9.059  0.00  0.00    +0.000 C 
ATOM     17  C   UNL     1      45.219   3.726   7.669  0.00  0.00    +0.000 C 
ENDBRANCH  14  16
ENDBRANCH   8  14
ENDBRANCH   7  12
ENDBRANCH   1   7
BRANCH   4  18
ATOM     18  C   UNL     1      49.460   7.876  16.931  0.00  0.00    +0.000 C 
BRANCH  18  19
ATOM     19  N   UNL     1      50.420   6.835  17.218  0.00  0.00    +0.000 N 
ATOM     20  C   UNL     1      50.199   5.936  18.234  0.00  0.00    +0.000 C 
ATOM     21  O   UNL     1      49.164   5.952  18.893  0.00  0.00    +0.000 OA
ATOM     22  H   UNL     1      51.360   6.949  16.849  0.00  0.00    +0.000 HD
BRANCH  20  23
ATOM     23  C   UNL     1      51.233   4.915  18.458  0.00  0.00    +0.000 A 
ATOM     24  C   UNL     1      52.374   5.245  19.178  0.00  0.00    +0.000 A 
ATOM     25  S   UNL     1      53.457   3.944  19.381  0.00  0.00    +0.000 S 
ATOM     26  C   UNL     1      52.465   2.905  18.470  0.00  0.00    +0.000 A 
ATOM     27  N   UNL     1      52.834   1.618  18.232  0.00  0.00    +0.000 NA
ATOM     28  C   UNL     1      52.002   0.952  17.501  0.00  0.00    +0.000 A 
ATOM     29  N   UNL     1      50.832   1.454  16.996  0.00  0.00    +0.000 N 
ATOM     30  C   UNL     1      50.403   2.738  17.237  0.00  0.00    +0.000 A 
ATOM     31  O   UNL     1      49.333   3.149  16.802  0.00  0.00    +0.000 OA
ATOM     32  C   UNL     1      51.311   3.536  18.037  0.00  0.00    +0.000 A 
ATOM     33  H   UNL     1      50.219   0.876  16.439  0.00  0.00    +0.000 HD
ENDBRANCH  20  23
ENDBRANCH  18  19
ENDBRANCH   4  18
TORSDOF 7
ENDMDL
MODEL 8
REMARK VINA RESULT:    -6.582      3.537      8.946
REMARK INTER + INTRA:         -10.415
REMARK INTER:                  -8.819
REMARK INTRA:                  -1.596
REMARK UNBOUND:                -1.139
REMARK  Name = 
REMARK  9 active torsions:
REMARK  status: ('A' for Active; 'I' for Inactive)
REMARK    1  A    between atoms: C_1  and  C_2
REMARK    2  A    between atoms: C_2  and  C_3
REMARK    3  A    between atoms: C_2  and  O_4
REMARK    4  A    between atoms: O_4  and  C_5
REMARK    5  A    between atoms: C_9  and  C_10
REMARK    6  A    between atoms: C_10  and  C_11
REMARK    7  A    between atoms: C_14  and  C_15
REMARK    8  A    between atoms: C_15  and  N_16
REMARK    9  A    between atoms: C_17  and  C_19
REMARK                            x       y       z     vdW  Elec       q    Type
REMARK                         _______ _______ _______ _____ _____    ______ ____
ROOT
ATOM      1  C   UNL     1      50.980   4.293  18.616  0.00  0.00    +0.000 A 
ATOM      2  C   UNL     1      50.881   3.221  17.732  0.00  0.00    +0.000 A 
ATOM      3  C   UNL     1      49.635   2.892  17.201  0.00  0.00    +0.000 A 
ATOM      4  C   UNL     1      48.507   3.635  17.555  0.00  0.00    +0.000 A 
ATOM      5  C   UNL     1      48.696   4.679  18.453  0.00  0.00    +0.000 A 
ATOM      6  N   UNL     1      49.891   5.013  18.997  0.00  0.00    +0.000 NA
ENDROOT
BRANCH   1   7
ATOM      7  C   UNL     1      52.346   4.802  19.055  0.00  0.00    +0.000 C 
BRANCH   7  12
ATOM      8  C   UNL     1      52.814   7.538  16.398  0.00  0.00    +0.000 A 
ATOM      9  C   UNL     1      52.879   8.660  17.226  0.00  0.00    +0.000 A 
ATOM     10  C   UNL     1      52.918   8.524  18.611  0.00  0.00    +0.000 A 
ATOM     11  C   UNL     1      52.833   7.263  19.189  0.00  0.00    +0.000 A 
ATOM     12  C   UNL     1      52.673   6.124  18.388  0.00  0.00    +0.000 A 
ATOM     13  C   UNL     1      52.717   6.266  16.990  0.00  0.00    +0.000 A 
BRANCH   8  14
ATOM     14  O   UNL     1      52.825   7.551  15.032  0.00  0.00    +0.000 OA
BRANCH  14  16
ATOM     15  C   UNL     1      52.475   8.622  12.916  0.00  0.00    +0.000 C 
ATOM     16  C   UNL     1      51.954   8.459  14.341  0.00  0.00    +0.000 C 
ATOM     17  C   UNL     1      50.535   7.895  14.322  0.00  0.00    +0.000 C 
ENDBRANCH  14  16
ENDBRANCH   8  14
ENDBRANCH   7  12
ENDBRANCH   1   7
BRANCH   4  18
ATOM     18  C   UNL     1      47.158   3.352  16.961  0.00  0.00    +0.000 C 
BRANCH  18  19
ATOM     19  N   UNL     1      46.767   4.359  16.002  0.00  0.00    +0.000 N 
ATOM     20  C   UNL     1      46.895   4.131  14.653  0.00  0.00    +0.000 C 
ATOM     21  O   UNL     1      47.293   3.056  14.217  0.00  0.00    +0.000 OA
ATOM     22  H   UNL     1      46.660   5.312  16.339  0.00  0.00    +0.000 HD
BRANCH  20  23
ATOM     23  C   UNL     1      46.479   5.215  13.751  0.00  0.00    +0.000 A 
ATOM     24  C   UNL     1      47.309   6.315  13.574  0.00  0.00    +0.000 A 
ATOM     25  S   UNL     1      46.700   7.464  12.472  0.00  0.00    +0.000 S 
ATOM     26  C   UNL     1      45.281   6.559  12.228  0.00  0.00    +0.000 A 
ATOM     27  N   UNL     1      44.301   7.007  11.399  0.00  0.00    +0.000 NA
ATOM     28  C   UNL     1      43.266   6.236  11.331  0.00  0.00    +0.000 A 
ATOM     29  N   UNL     1      43.128   5.054  12.010  0.00  0.00    +0.000 N 
ATOM     30  C   UNL     1      44.106   4.546  12.833  0.00  0.00    +0.000 A 
ATOM     31  O   UNL     1      43.970   3.467  13.400  0.00  0.00    +0.000 OA
ATOM     32  C   UNL     1      45.282   5.383  12.960  0.00  0.00    +0.000 A 
ATOM     33  H   UNL     1      42.297   4.491  11.905  0.00  0.00    +0.000 HD
ENDBRANCH  20  23
ENDBRANCH  18  19
ENDBRANCH   4  18
TORSDOF 7
ENDMDL
MODEL 9
REMARK VINA RESULT:    -6.524      3.658      9.464
REMARK INTER + INTRA:         -10.333
REMARK INTER:                  -9.063
REMARK INTRA:                  -1.270
REMARK UNBOUND:                -1.139
REMARK  Name = 
REMARK  9 active torsions:
REMARK  status: ('A' for Active; 'I' for Inactive)
REMARK    1  A    between atoms: C_1  and  C_2
REMARK    2  A    between atoms: C_2  and  C_3
REMARK    3  A    between atoms: C_2  and  O_4
REMARK    4  A    between atoms: O_4  and  C_5
REMARK    5  A    between atoms: C_9  and  C_10
REMARK    6  A    between atoms: C_10  and  C_11
REMARK    7  A    between atoms: C_14  and  C_15
REMARK    8  A    between atoms: C_15  and  N_16
REMARK    9  A    between atoms: C_17  and  C_19
REMARK                            x       y       z     vdW  Elec       q    Type
REMARK                         _______ _______ _______ _____ _____    ______ ____
ROOT
ATOM      1  C   UNL     1      50.317   8.267  14.929  0.00  0.00    +0.000 A 
ATOM      2  C   UNL     1      50.769   8.045  13.631  0.00  0.00    +0.000 A 
ATOM      3  C   UNL     1      49.843   7.972  12.592  0.00  0.00    +0.000 A 
ATOM      4  C   UNL     1      48.481   8.123  12.860  0.00  0.00    +0.000 A 
ATOM      5  C   UNL     1      48.118   8.327  14.186  0.00  0.00    +0.000 A 
ATOM      6  N   UNL     1      48.994   8.388  15.218  0.00  0.00    +0.000 NA
ENDROOT
BRANCH   1   7
ATOM      7  C   UNL     1      51.308   8.550  16.049  0.00  0.00    +0.000 C 
BRANCH   7  12
ATOM      8  C   UNL     1      51.192   4.933  17.340  0.00  0.00    +0.000 A 
ATOM      9  C   UNL     1      52.339   4.931  18.136  0.00  0.00    +0.000 A 
ATOM     10  C   UNL     1      53.050   6.106  18.367  0.00  0.00    +0.000 A 
ATOM     11  C   UNL     1      52.655   7.290  17.755  0.00  0.00    +0.000 A 
ATOM     12  C   UNL     1      51.563   7.305  16.877  0.00  0.00    +0.000 A 
ATOM     13  C   UNL     1      50.805   6.133  16.716  0.00  0.00    +0.000 A 
BRANCH   8  14
ATOM     14  O   UNL     1      50.391   3.855  17.092  0.00  0.00    +0.000 OA
BRANCH  14  16
ATOM     15  C   UNL     1      48.284   2.773  16.719  0.00  0.00    +0.000 C 
ATOM     16  C   UNL     1      48.990   3.949  17.389  0.00  0.00    +0.000 C 
ATOM     17  C   UNL     1      48.781   3.899  18.900  0.00  0.00    +0.000 C 
ENDBRANCH  14  16
ENDBRANCH   8  14
ENDBRANCH   7  12
ENDBRANCH   1   7
BRANCH   4  18
ATOM     18  C   UNL     1      47.456   8.110  11.764  0.00  0.00    +0.000 C 
BRANCH  18  19
ATOM     19  N   UNL     1      46.810   6.824  11.640  0.00  0.00    +0.000 N 
ATOM     20  C   UNL     1      45.440   6.719  11.667  0.00  0.00    +0.000 C 
ATOM     21  O   UNL     1      44.721   7.710  11.744  0.00  0.00    +0.000 OA
ATOM     22  H   UNL     1      47.377   5.997  11.808  0.00  0.00    +0.000 HD
BRANCH  20  23
ATOM     23  C   UNL     1      44.872   5.369  11.542  0.00  0.00    +0.000 A 
ATOM     24  C   UNL     1      44.195   4.810  12.619  0.00  0.00    +0.000 A 
ATOM     25  S   UNL     1      43.566   3.257  12.302  0.00  0.00    +0.000 S 
ATOM     26  C   UNL     1      44.219   3.253  10.731  0.00  0.00    +0.000 A 
ATOM     27  N   UNL     1      44.065   2.178   9.913  0.00  0.00    +0.000 NA
ATOM     28  C   UNL     1      44.638   2.298   8.761  0.00  0.00    +0.000 A 
ATOM     29  N   UNL     1      45.342   3.400   8.351  0.00  0.00    +0.000 N 
ATOM     30  C   UNL     1      45.495   4.522   9.131  0.00  0.00    +0.000 A 
ATOM     31  O   UNL     1      46.100   5.508   8.723  0.00  0.00    +0.000 OA
ATOM     32  C   UNL     1      44.887   4.432  10.444  0.00  0.00    +0.000 A 
ATOM     33  H   UNL     1      45.757   3.436   7.432  0.00  0.00    +0.000 HD
ENDBRANCH  20  23
ENDBRANCH  18  19
ENDBRANCH   4  18
TORSDOF 7
ENDMDL
