MODEL 1
REMARK VINA RESULT:    -8.846      0.000      0.000
REMARK INTER + INTRA:         -13.484
REMARK INTER:                 -12.466
REMARK INTRA:                  -1.018
REMARK UNBOUND:                -1.018
REMARK  Name = 
REMARK  8 active torsions:
REMARK  status: ('A' for Active; 'I' for Inactive)
REMARK    1  A    between atoms: C_1  and  C_2
REMARK    2  A    between atoms: C_2  and  C_3
REMARK    3  A    between atoms: C_6  and  C_7
REMARK    4  A    between atoms: C_11  and  C_12
REMARK    5  A    between atoms: C_12  and  C_13
REMARK    6  A    between atoms: C_13  and  N_14
REMARK    7  A    between atoms: N_14  and  C_15
REMARK    8  A    between atoms: C_18  and  C_19
REMARK                            x       y       z     vdW  Elec       q    Type
REMARK                         _______ _______ _______ _____ _____    ______ ____
ROOT
ATOM      1  C   UNL     1      43.426   5.288  12.163  0.00  0.00    +0.000 C 
ENDROOT
BRANCH   1   6
ATOM      2  C   UNL     1      46.864   5.507  13.849  0.00  0.00    +0.000 A 
ATOM      3  C   UNL     1      47.519   6.403  12.995  0.00  0.00    +0.000 A 
ATOM      4  C   UNL     1      46.865   6.960  11.900  0.00  0.00    +0.000 A 
ATOM      5  C   UNL     1      45.541   6.615  11.630  0.00  0.00    +0.000 A 
ATOM      6  C   UNL     1      44.844   5.737  12.471  0.00  0.00    +0.000 A 
ATOM      7  C   UNL     1      45.523   5.232  13.596  0.00  0.00    +0.000 A 
BRANCH   2  11
ATOM      8  C   UNL     1      48.905   3.589  16.930  0.00  0.00    +0.000 A 
ATOM      9  C   UNL     1      48.068   2.891  16.063  0.00  0.00    +0.000 A 
ATOM     10  N   UNL     1      47.387   3.487  15.060  0.00  0.00    +0.000 NA
ATOM     11  C   UNL     1      47.564   4.831  14.945  0.00  0.00    +0.000 A 
ATOM     12  C   UNL     1      48.409   5.514  15.808  0.00  0.00    +0.000 A 
ATOM     13  N   UNL     1      49.092   4.924  16.807  0.00  0.00    +0.000 NA
BRANCH   8  15
ATOM     14  C   UNL     1      50.643   1.886  17.374  0.00  0.00    +0.000 C 
ATOM     15  C   UNL     1      49.694   2.895  17.994  0.00  0.00    +0.000 C 
ENDBRANCH   8  15
ENDBRANCH   2  11
ENDBRANCH   1   6
BRANCH   1  16
ATOM     16  C   UNL     1      43.230   4.839  10.699  0.00  0.00    +0.000 C 
BRANCH  16  17
ATOM     17  N   UNL     1      43.645   3.461  10.472  0.00  0.00    +0.000 N 
ATOM     18  H   UNL     1      43.848   2.968  11.339  0.00  0.00    +0.000 HD
BRANCH  17  19
ATOM     19  C   UNL     1      44.646   3.253   9.511  0.00  0.00    +0.000 A 
ATOM     20  C   UNL     1      45.225   4.275   8.740  0.00  0.00    +0.000 A 
ATOM     21  C   UNL     1      46.182   3.987   7.753  0.00  0.00    +0.000 A 
ATOM     22  C   UNL     1      46.558   2.667   7.499  0.00  0.00    +0.000 A 
ATOM     23  C   UNL     1      45.961   1.653   8.245  0.00  0.00    +0.000 A 
ATOM     24  F   UNL     1      46.283   0.364   8.056  0.00  0.00    +0.000 F 
ATOM     25  C   UNL     1      45.010   1.936   9.220  0.00  0.00    +0.000 A 
BRANCH  22  26
ATOM     26  C   UNL     1      47.566   2.409   6.434  0.00  0.00    +0.000 C 
ATOM     27  N   UNL     1      47.389   3.030   5.228  0.00  0.00    +0.000 N 
ATOM     28  O   UNL     1      48.518   1.677   6.622  0.00  0.00    +0.000 OA
ATOM     29  H   UNL     1      46.620   3.660   5.035  0.00  0.00    +0.000 HD
ATOM     30  H   UNL     1      48.084   2.873   4.507  0.00  0.00    +0.000 HD
ENDBRANCH  22  26
ENDBRANCH  17  19
ENDBRANCH  16  17
ENDBRANCH   1  16
TORSDOF 7
ENDMDL
MODEL 2
REMARK VINA RESULT:    -8.438      0.924      1.310
REMARK INTER + INTRA:         -12.908
REMARK INTER:                 -11.969
REMARK INTRA:                  -0.939
REMARK UNBOUND:                -1.018
REMARK  Name = 
REMARK  8 active torsions:
REMARK  status: ('A' for Active; 'I' for Inactive)
REMARK    1  A    between atoms: C_1  and  C_2
REMARK    2  A    between atoms: C_2  and  C_3
REMARK    3  A    between atoms: C_6  and  C_7
REMARK    4  A    between atoms: C_11  and  C_12
REMARK    5  A    between atoms: C_12  and  C_13
REMARK    6  A    between atoms: C_13  and  N_14
REMARK    7  A    between atoms: N_14  and  C_15
REMARK    8  A    between atoms: C_18  and  C_19
REMARK                            x       y       z     vdW  Elec       q    Type
REMARK                         _______ _______ _______ _____ _____    ______ ____
ROOT
ATOM      1  C   UNL     1      43.626   5.029  12.286  0.00  0.00    +0.000 C 
ENDROOT
BRANCH   1   6
ATOM      2  C   UNL     1      47.048   5.718  13.874  0.00  0.00    +0.000 A 
ATOM      3  C   UNL     1      47.683   6.416  12.839  0.00  0.00    +0.000 A 
ATOM      4  C   UNL     1      47.019   6.694  11.647  0.00  0.00    +0.000 A 
ATOM      5  C   UNL     1      45.707   6.261  11.464  0.00  0.00    +0.000 A 
ATOM      6  C   UNL     1      45.029   5.575  12.482  0.00  0.00    +0.000 A 
ATOM      7  C   UNL     1      45.717   5.356  13.692  0.00  0.00    +0.000 A 
BRANCH   2  11
ATOM      8  C   UNL     1      49.031   4.629  17.370  0.00  0.00    +0.000 A 
ATOM      9  C   UNL     1      49.435   5.725  16.612  0.00  0.00    +0.000 A 
ATOM     10  N   UNL     1      48.817   6.097  15.470  0.00  0.00    +0.000 NA
ATOM     11  C   UNL     1      47.762   5.326  15.093  0.00  0.00    +0.000 A 
ATOM     12  C   UNL     1      47.361   4.243  15.863  0.00  0.00    +0.000 A 
ATOM     13  N   UNL     1      47.971   3.871  17.003  0.00  0.00    +0.000 NA
BRANCH   8  15
ATOM     14  C   UNL     1      48.821   4.685  19.834  0.00  0.00    +0.000 C 
ATOM     15  C   UNL     1      49.695   4.275  18.662  0.00  0.00    +0.000 C 
ENDBRANCH   8  15
ENDBRANCH   2  11
ENDBRANCH   1   6
BRANCH   1  16
ATOM     16  C   UNL     1      43.300   4.693  10.815  0.00  0.00    +0.000 C 
BRANCH  16  17
ATOM     17  N   UNL     1      43.631   3.317  10.465  0.00  0.00    +0.000 N 
ATOM     18  H   UNL     1      43.788   2.735  11.285  0.00  0.00    +0.000 HD
BRANCH  17  19
ATOM     19  C   UNL     1      44.634   3.135   9.501  0.00  0.00    +0.000 A 
ATOM     20  C   UNL     1      45.210   4.176   8.754  0.00  0.00    +0.000 A 
ATOM     21  C   UNL     1      46.169   3.915   7.761  0.00  0.00    +0.000 A 
ATOM     22  C   UNL     1      46.549   2.602   7.478  0.00  0.00    +0.000 A 
ATOM     23  C   UNL     1      45.956   1.569   8.200  0.00  0.00    +0.000 A 
ATOM     24  F   UNL     1      46.282   0.285   7.981  0.00  0.00    +0.000 F 
ATOM     25  C   UNL     1      45.002   1.826   9.180  0.00  0.00    +0.000 A 
BRANCH  22  26
ATOM     26  C   UNL     1      47.559   2.372   6.409  0.00  0.00    +0.000 C 
ATOM     27  N   UNL     1      47.382   3.021   5.218  0.00  0.00    +0.000 N 
ATOM     28  O   UNL     1      48.513   1.638   6.580  0.00  0.00    +0.000 OA
ATOM     29  H   UNL     1      46.612   3.653   5.038  0.00  0.00    +0.000 HD
ATOM     30  H   UNL     1      48.078   2.882   4.494  0.00  0.00    +0.000 HD
ENDBRANCH  22  26
ENDBRANCH  17  19
ENDBRANCH  16  17
ENDBRANCH   1  16
TORSDOF 7
ENDMDL
MODEL 3
REMARK VINA RESULT:    -8.291      2.970      5.609
REMARK INTER + INTRA:         -12.702
REMARK INTER:                 -11.686
REMARK INTRA:                  -1.016
REMARK UNBOUND:                -1.018
REMARK  Name = 
REMARK  8 active torsions:
REMARK  status: ('A' for Active; 'I' for Inactive)
REMARK    1  A    between atoms: C_1  and  C_2
REMARK    2  A    between atoms: C_2  and  C_3
REMARK    3  A    between atoms: C_6  and  C_7
REMARK    4  A    between atoms: C_11  and  C_12
REMARK    5  A    between atoms: C_12  and  C_13
REMARK    6  A    between atoms: C_13  and  N_14
REMARK    7  A    between atoms: N_14  and  C_15
REMARK    8  A    between atoms: C_18  and  C_19
REMARK                            x       y       z     vdW  Elec       q    Type
REMARK                         _______ _______ _______ _____ _____    ______ ____
ROOT
ATOM      1  C   UNL     1      43.750   4.113  12.935  0.00  0.00    +0.000 C 
ENDROOT
BRANCH   1   6
ATOM      2  C   UNL     1      45.692   7.369  12.355  0.00  0.00    +0.000 A 
ATOM      3  C   UNL     1      46.949   7.019  12.863  0.00  0.00    +0.000 A 
ATOM      4  C   UNL     1      47.192   5.744  13.366  0.00  0.00    +0.000 A 
ATOM      5  C   UNL     1      46.169   4.796  13.382  0.00  0.00    +0.000 A 
ATOM      6  C   UNL     1      44.902   5.099  12.866  0.00  0.00    +0.000 A 
ATOM      7  C   UNL     1      44.709   6.384  12.321  0.00  0.00    +0.000 A 
BRANCH   2  11
ATOM      8  C   UNL     1      44.846  11.234  11.058  0.00  0.00    +0.000 A 
ATOM      9  C   UNL     1      45.973  10.951  11.825  0.00  0.00    +0.000 A 
ATOM     10  N   UNL     1      46.268   9.709  12.267  0.00  0.00    +0.000 NA
ATOM     11  C   UNL     1      45.387   8.734  11.918  0.00  0.00    +0.000 A 
ATOM     12  C   UNL     1      44.273   9.026  11.144  0.00  0.00    +0.000 A 
ATOM     13  N   UNL     1      43.976  10.261  10.698  0.00  0.00    +0.000 NA
BRANCH   8  15
ATOM     14  C   UNL     1      43.665  12.535   9.317  0.00  0.00    +0.000 C 
ATOM     15  C   UNL     1      44.573  12.606  10.531  0.00  0.00    +0.000 C 
ENDBRANCH   8  15
ENDBRANCH   2  11
ENDBRANCH   1   6
BRANCH   1  16
ATOM     16  C   UNL     1      43.777   3.059  11.807  0.00  0.00    +0.000 C 
BRANCH  16  17
ATOM     17  N   UNL     1      43.606   3.647  10.485  0.00  0.00    +0.000 N 
ATOM     18  H   UNL     1      42.681   3.473  10.098  0.00  0.00    +0.000 HD
BRANCH  17  19
ATOM     19  C   UNL     1      44.616   3.390   9.545  0.00  0.00    +0.000 A 
ATOM     20  C   UNL     1      45.273   4.383   8.800  0.00  0.00    +0.000 A 
ATOM     21  C   UNL     1      46.235   4.050   7.831  0.00  0.00    +0.000 A 
ATOM     22  C   UNL     1      46.536   2.713   7.569  0.00  0.00    +0.000 A 
ATOM     23  C   UNL     1      45.862   1.728   8.289  0.00  0.00    +0.000 A 
ATOM     24  F   UNL     1      46.110   0.424   8.090  0.00  0.00    +0.000 F 
ATOM     25  C   UNL     1      44.906   2.057   9.245  0.00  0.00    +0.000 A 
BRANCH  22  26
ATOM     26  C   UNL     1      47.552   2.406   6.525  0.00  0.00    +0.000 C 
ATOM     27  N   UNL     1      47.388   2.978   5.293  0.00  0.00    +0.000 N 
ATOM     28  O   UNL     1      48.499   1.678   6.751  0.00  0.00    +0.000 OA
ATOM     29  H   UNL     1      46.624   3.602   5.067  0.00  0.00    +0.000 HD
ATOM     30  H   UNL     1      48.088   2.787   4.585  0.00  0.00    +0.000 HD
ENDBRANCH  22  26
ENDBRANCH  17  19
ENDBRANCH  16  17
ENDBRANCH   1  16
TORSDOF 7
ENDMDL
MODEL 4
REMARK VINA RESULT:    -8.045      1.350      1.557
REMARK INTER + INTRA:         -12.355
REMARK INTER:                 -11.375
REMARK INTRA:                  -0.980
REMARK UNBOUND:                -1.018
REMARK  Name = 
REMARK  8 active torsions:
REMARK  status: ('A' for Active; 'I' for Inactive)
REMARK    1  A    between atoms: C_1  and  C_2
REMARK    2  A    between atoms: C_2  and  C_3
REMARK    3  A    between atoms: C_6  and  C_7
REMARK    4  A    between atoms: C_11  and  C_12
REMARK    5  A    between atoms: C_12  and  C_13
REMARK    6  A    between atoms: C_13  and  N_14
REMARK    7  A    between atoms: N_14  and  C_15
REMARK    8  A    between atoms: C_18  and  C_19
REMARK                            x       y       z     vdW  Elec       q    Type
REMARK                         _______ _______ _______ _____ _____    ______ ____
ROOT
ATOM      1  C   UNL     1      44.874   4.201  12.418  0.00  0.00    +0.000 C 
ENDROOT
BRANCH   1   6
ATOM      2  C   UNL     1      47.770   6.169  13.984  0.00  0.00    +0.000 A 
ATOM      3  C   UNL     1      48.088   7.044  12.938  0.00  0.00    +0.000 A 
ATOM      4  C   UNL     1      47.369   7.031  11.746  0.00  0.00    +0.000 A 
ATOM      5  C   UNL     1      46.324   6.126  11.574  0.00  0.00    +0.000 A 
ATOM      6  C   UNL     1      45.960   5.246  12.602  0.00  0.00    +0.000 A 
ATOM      7  C   UNL     1      46.679   5.322  13.811  0.00  0.00    +0.000 A 
BRANCH   2  11
ATOM      8  C   UNL     1      50.113   5.941  17.417  0.00  0.00    +0.000 A 
ATOM      9  C   UNL     1      49.151   4.978  17.125  0.00  0.00    +0.000 A 
ATOM     10  N   UNL     1      48.371   5.030  16.023  0.00  0.00    +0.000 NA
ATOM     11  C   UNL     1      48.578   6.096  15.204  0.00  0.00    +0.000 A 
ATOM     12  C   UNL     1      49.548   7.044  15.500  0.00  0.00    +0.000 A 
ATOM     13  N   UNL     1      50.330   6.994  16.595  0.00  0.00    +0.000 NA
BRANCH   8  15
ATOM     14  C   UNL     1      52.302   5.132  18.239  0.00  0.00    +0.000 C 
ATOM     15  C   UNL     1      51.005   5.828  18.612  0.00  0.00    +0.000 C 
ENDBRANCH   8  15
ENDBRANCH   2  11
ENDBRANCH   1   6
BRANCH   1  16
ATOM     16  C   UNL     1      43.827   4.587  11.351  0.00  0.00    +0.000 C 
BRANCH  16  17
ATOM     17  N   UNL     1      43.593   3.525  10.382  0.00  0.00    +0.000 N 
ATOM     18  H   UNL     1      43.282   2.661  10.819  0.00  0.00    +0.000 HD
BRANCH  17  19
ATOM     19  C   UNL     1      44.610   3.293   9.443  0.00  0.00    +0.000 A 
ATOM     20  C   UNL     1      45.212   4.297   8.666  0.00  0.00    +0.000 A 
ATOM     21  C   UNL     1      46.183   3.986   7.701  0.00  0.00    +0.000 A 
ATOM     22  C   UNL     1      46.551   2.659   7.474  0.00  0.00    +0.000 A 
ATOM     23  C   UNL     1      45.932   1.662   8.225  0.00  0.00    +0.000 A 
ATOM     24  F   UNL     1      46.244   0.367   8.061  0.00  0.00    +0.000 F 
ATOM     25  C   UNL     1      44.966   1.969   9.178  0.00  0.00    +0.000 A 
BRANCH  22  26
ATOM     26  C   UNL     1      47.576   2.375   6.432  0.00  0.00    +0.000 C 
ATOM     27  N   UNL     1      47.440   2.998   5.222  0.00  0.00    +0.000 N 
ATOM     28  O   UNL     1      48.506   1.620   6.641  0.00  0.00    +0.000 OA
ATOM     29  H   UNL     1      46.691   3.646   5.011  0.00  0.00    +0.000 HD
ATOM     30  H   UNL     1      48.146   2.823   4.516  0.00  0.00    +0.000 HD
ENDBRANCH  22  26
ENDBRANCH  17  19
ENDBRANCH  16  17
ENDBRANCH   1  16
TORSDOF 7
ENDMDL
MODEL 5
REMARK VINA RESULT:    -8.014      2.014      2.640
REMARK INTER + INTRA:         -12.311
REMARK INTER:                 -11.685
REMARK INTRA:                  -0.626
REMARK UNBOUND:                -1.018
REMARK  Name = 
REMARK  8 active torsions:
REMARK  status: ('A' for Active; 'I' for Inactive)
REMARK    1  A    between atoms: C_1  and  C_2
REMARK    2  A    between atoms: C_2  and  C_3
REMARK    3  A    between atoms: C_6  and  C_7
REMARK    4  A    between atoms: C_11  and  C_12
REMARK    5  A    between atoms: C_12  and  C_13
REMARK    6  A    between atoms: C_13  and  N_14
REMARK    7  A    between atoms: N_14  and  C_15
REMARK    8  A    between atoms: C_18  and  C_19
REMARK                            x       y       z     vdW  Elec       q    Type
REMARK                         _______ _______ _______ _____ _____    ______ ____
ROOT
ATOM      1  C   UNL     1      43.681   4.009  12.923  0.00  0.00    +0.000 C 
ENDROOT
BRANCH   1   6
ATOM      2  C   UNL     1      46.313   6.797  12.875  0.00  0.00    +0.000 A 
ATOM      3  C   UNL     1      45.753   7.671  11.934  0.00  0.00    +0.000 A 
ATOM      4  C   UNL     1      44.528   7.392  11.335  0.00  0.00    +0.000 A 
ATOM      5  C   UNL     1      43.847   6.219  11.656  0.00  0.00    +0.000 A 
ATOM      6  C   UNL     1      44.363   5.327  12.605  0.00  0.00    +0.000 A 
ATOM      7  C   UNL     1      45.580   5.668  13.227  0.00  0.00    +0.000 A 
BRANCH   2  11
ATOM      8  C   UNL     1      50.078   7.458  14.526  0.00  0.00    +0.000 A 
ATOM      9  C   UNL     1      49.584   8.252  13.494  0.00  0.00    +0.000 A 
ATOM     10  N   UNL     1      48.370   8.056  12.934  0.00  0.00    +0.000 NA
ATOM     11  C   UNL     1      47.647   7.021  13.439  0.00  0.00    +0.000 A 
ATOM     12  C   UNL     1      48.146   6.243  14.475  0.00  0.00    +0.000 A 
ATOM     13  N   UNL     1      49.353   6.436  15.039  0.00  0.00    +0.000 NA
BRANCH   8  15
ATOM     14  C   UNL     1      51.551   6.910  16.436  0.00  0.00    +0.000 C 
ATOM     15  C   UNL     1      51.399   7.733  15.170  0.00  0.00    +0.000 C 
ENDBRANCH   8  15
ENDBRANCH   2  11
ENDBRANCH   1   6
BRANCH   1  16
ATOM     16  C   UNL     1      43.829   2.957  11.802  0.00  0.00    +0.000 C 
BRANCH  16  17
ATOM     17  N   UNL     1      43.614   3.516  10.474  0.00  0.00    +0.000 N 
ATOM     18  H   UNL     1      42.693   3.292  10.103  0.00  0.00    +0.000 HD
BRANCH  17  19
ATOM     19  C   UNL     1      44.623   3.293   9.525  0.00  0.00    +0.000 A 
ATOM     20  C   UNL     1      45.215   4.304   8.750  0.00  0.00    +0.000 A 
ATOM     21  C   UNL     1      46.180   4.003   7.774  0.00  0.00    +0.000 A 
ATOM     22  C   UNL     1      46.549   2.678   7.535  0.00  0.00    +0.000 A 
ATOM     23  C   UNL     1      45.939   1.674   8.285  0.00  0.00    +0.000 A 
ATOM     24  F   UNL     1      46.255   0.381   8.109  0.00  0.00    +0.000 F 
ATOM     25  C   UNL     1      44.981   1.972   9.248  0.00  0.00    +0.000 A 
BRANCH  22  26
ATOM     26  C   UNL     1      47.566   2.405   6.483  0.00  0.00    +0.000 C 
ATOM     27  N   UNL     1      47.398   3.007   5.266  0.00  0.00    +0.000 N 
ATOM     28  O   UNL     1      48.517   1.676   6.689  0.00  0.00    +0.000 OA
ATOM     29  H   UNL     1      46.630   3.633   5.057  0.00  0.00    +0.000 HD
ATOM     30  H   UNL     1      48.098   2.839   4.553  0.00  0.00    +0.000 HD
ENDBRANCH  22  26
ENDBRANCH  17  19
ENDBRANCH  16  17
ENDBRANCH   1  16
TORSDOF 7
ENDMDL
MODEL 6
REMARK VINA RESULT:    -7.742      3.402      7.864
REMARK INTER + INTRA:         -11.928
REMARK INTER:                 -10.733
REMARK INTRA:                  -1.195
REMARK UNBOUND:                -1.018
REMARK  Name = 
REMARK  8 active torsions:
REMARK  status: ('A' for Active; 'I' for Inactive)
REMARK    1  A    between atoms: C_1  and  C_2
REMARK    2  A    between atoms: C_2  and  C_3
REMARK    3  A    between atoms: C_6  and  C_7
REMARK    4  A    between atoms: C_11  and  C_12
REMARK    5  A    between atoms: C_12  and  C_13
REMARK    6  A    between atoms: C_13  and  N_14
REMARK    7  A    between atoms: N_14  and  C_15
REMARK    8  A    between atoms: C_18  and  C_19
REMARK                            x       y       z     vdW  Elec       q    Type
REMARK                         _______ _______ _______ _____ _____    ______ ____
ROOT
ATOM      1  C   UNL     1      45.165   8.113  11.999  0.00  0.00    +0.000 C 
ENDROOT
BRANCH   1   6
ATOM      2  C   UNL     1      44.612   4.647  10.452  0.00  0.00    +0.000 A 
ATOM      3  C   UNL     1      43.653   4.120  11.325  0.00  0.00    +0.000 A 
ATOM      4  C   UNL     1      43.159   4.870  12.389  0.00  0.00    +0.000 A 
ATOM      5  C   UNL     1      43.633   6.163  12.607  0.00  0.00    +0.000 A 
ATOM      6  C   UNL     1      44.579   6.735  11.746  0.00  0.00    +0.000 A 
ATOM      7  C   UNL     1      45.017   5.964  10.652  0.00  0.00    +0.000 A 
BRANCH   2  11
ATOM      8  C   UNL     1      46.384   2.342   7.472  0.00  0.00    +0.000 A 
ATOM      9  C   UNL     1      46.364   3.732   7.404  0.00  0.00    +0.000 A 
ATOM     10  N   UNL     1      45.789   4.506   8.351  0.00  0.00    +0.000 NA
ATOM     11  C   UNL     1      45.219   3.839   9.390  0.00  0.00    +0.000 A 
ATOM     12  C   UNL     1      45.255   2.453   9.452  0.00  0.00    +0.000 A 
ATOM     13  N   UNL     1      45.829   1.678   8.513  0.00  0.00    +0.000 NA
BRANCH   8  15
ATOM     14  C   UNL     1      47.759   2.402   5.416  0.00  0.00    +0.000 C 
ATOM     15  C   UNL     1      47.079   1.512   6.440  0.00  0.00    +0.000 C 
ENDBRANCH   8  15
ENDBRANCH   2  11
ENDBRANCH   1   6
BRANCH   1  16
ATOM     16  C   UNL     1      46.370   8.097  12.964  0.00  0.00    +0.000 C 
BRANCH  16  17
ATOM     17  N   UNL     1      47.293   7.002  12.695  0.00  0.00    +0.000 N 
ATOM     18  H   UNL     1      47.146   6.586  11.778  0.00  0.00    +0.000 HD
BRANCH  17  19
ATOM     19  C   UNL     1      47.419   6.023  13.693  0.00  0.00    +0.000 A 
ATOM     20  C   UNL     1      46.857   4.738  13.615  0.00  0.00    +0.000 A 
ATOM     21  C   UNL     1      46.972   3.827  14.678  0.00  0.00    +0.000 A 
ATOM     22  C   UNL     1      47.629   4.196  15.853  0.00  0.00    +0.000 A 
ATOM     23  C   UNL     1      48.160   5.481  15.940  0.00  0.00    +0.000 A 
ATOM     24  F   UNL     1      48.809   5.897  17.039  0.00  0.00    +0.000 F 
ATOM     25  C   UNL     1      48.042   6.386  14.890  0.00  0.00    +0.000 A 
BRANCH  22  26
ATOM     26  C   UNL     1      47.716   3.203  16.959  0.00  0.00    +0.000 C 
ATOM     27  N   UNL     1      48.959   2.762  17.320  0.00  0.00    +0.000 N 
ATOM     28  O   UNL     1      46.722   2.795  17.529  0.00  0.00    +0.000 OA
ATOM     29  H   UNL     1      49.813   3.088  16.883  0.00  0.00    +0.000 HD
ATOM     30  H   UNL     1      49.024   2.101  18.085  0.00  0.00    +0.000 HD
ENDBRANCH  22  26
ENDBRANCH  17  19
ENDBRANCH  16  17
ENDBRANCH   1  16
TORSDOF 7
ENDMDL
MODEL 7
REMARK VINA RESULT:    -7.180      3.305      4.452
REMARK INTER + INTRA:         -11.136
REMARK INTER:                  -9.754
REMARK INTRA:                  -1.381
REMARK UNBOUND:                -1.018
REMARK  Name = 
REMARK  8 active torsions:
REMARK  status: ('A' for Active; 'I' for Inactive)
REMARK    1  A    between atoms: C_1  and  C_2
REMARK    2  A    between atoms: C_2  and  C_3
REMARK    3  A    between atoms: C_6  and  C_7
REMARK    4  A    between atoms: C_11  and  C_12
REMARK    5  A    between atoms: C_12  and  C_13
REMARK    6  A    between atoms: C_13  and  N_14
REMARK    7  A    between atoms: N_14  and  C_15
REMARK    8  A    between atoms: C_18  and  C_19
REMARK                            x       y       z     vdW  Elec       q    Type
REMARK                         _______ _______ _______ _____ _____    ______ ____
ROOT
ATOM      1  C   UNL     1      46.467  10.067  11.867  0.00  0.00    +0.000 C 
ENDROOT
BRANCH   1   6
ATOM      2  C   UNL     1      48.405   7.202  13.522  0.00  0.00    +0.000 A 
ATOM      3  C   UNL     1      49.607   7.248  12.804  0.00  0.00    +0.000 A 
ATOM      4  C   UNL     1      49.815   8.203  11.813  0.00  0.00    +0.000 A 
ATOM      5  C   UNL     1      48.813   9.124  11.512  0.00  0.00    +0.000 A 
ATOM      6  C   UNL     1      47.603   9.125  12.220  0.00  0.00    +0.000 A 
ATOM      7  C   UNL     1      47.448   8.175  13.248  0.00  0.00    +0.000 A 
BRANCH   2  11
ATOM      8  C   UNL     1      47.562   4.219  16.302  0.00  0.00    +0.000 A 
ATOM      9  C   UNL     1      48.508   5.209  16.557  0.00  0.00    +0.000 A 
ATOM     10  N   UNL     1      48.808   6.184  15.672  0.00  0.00    +0.000 NA
ATOM     11  C   UNL     1      48.127   6.142  14.496  0.00  0.00    +0.000 A 
ATOM     12  C   UNL     1      47.178   5.158  14.257  0.00  0.00    +0.000 A 
ATOM     13  N   UNL     1      46.873   4.186  15.138  0.00  0.00    +0.000 NA
BRANCH   8  15
ATOM     14  C   UNL     1      48.229   3.176  18.444  0.00  0.00    +0.000 C 
ATOM     15  C   UNL     1      47.205   3.187  17.323  0.00  0.00    +0.000 C 
ENDBRANCH   8  15
ENDBRANCH   2  11
ENDBRANCH   1   6
BRANCH   1  16
ATOM     16  C   UNL     1      45.073   9.509  12.229  0.00  0.00    +0.000 C 
BRANCH  16  17
ATOM     17  N   UNL     1      44.434   8.825  11.113  0.00  0.00    +0.000 N 
ATOM     18  H   UNL     1      43.538   9.240  10.864  0.00  0.00    +0.000 HD
BRANCH  17  19
ATOM     19  C   UNL     1      44.352   7.427  11.193  0.00  0.00    +0.000 A 
ATOM     20  C   UNL     1      45.438   6.559  10.992  0.00  0.00    +0.000 A 
ATOM     21  C   UNL     1      45.273   5.164  11.028  0.00  0.00    +0.000 A 
ATOM     22  C   UNL     1      44.009   4.611  11.240  0.00  0.00    +0.000 A 
ATOM     23  C   UNL     1      42.928   5.473  11.412  0.00  0.00    +0.000 A 
ATOM     24  F   UNL     1      41.688   5.006  11.626  0.00  0.00    +0.000 F 
ATOM     25  C   UNL     1      43.090   6.854  11.370  0.00  0.00    +0.000 A 
BRANCH  22  26
ATOM     26  C   UNL     1      43.878   3.128  11.259  0.00  0.00    +0.000 C 
ATOM     27  N   UNL     1      43.781   2.514  12.477  0.00  0.00    +0.000 N 
ATOM     28  O   UNL     1      43.854   2.477  10.232  0.00  0.00    +0.000 OA
ATOM     29  H   UNL     1      43.780   3.019  13.355  0.00  0.00    +0.000 HD
ATOM     30  H   UNL     1      43.672   1.507  12.494  0.00  0.00    +0.000 HD
ENDBRANCH  22  26
ENDBRANCH  17  19
ENDBRANCH  16  17
ENDBRANCH   1  16
TORSDOF 7
ENDMDL
MODEL 8
REMARK VINA RESULT:    -6.833      3.620      8.372
REMARK INTER + INTRA:         -10.647
REMARK INTER:                  -9.945
REMARK INTRA:                  -0.702
REMARK UNBOUND:                -1.018
REMARK  Name = 
REMARK  8 active torsions:
REMARK  status: ('A' for Active; 'I' for Inactive)
REMARK    1  A    between atoms: C_1  and  C_2
REMARK    2  A    between atoms: C_2  and  C_3
REMARK    3  A    between atoms: C_6  and  C_7
REMARK    4  A    between atoms: C_11  and  C_12
REMARK    5  A    between atoms: C_12  and  C_13
REMARK    6  A    between atoms: C_13  and  N_14
REMARK    7  A    between atoms: N_14  and  C_15
REMARK    8  A    between atoms: C_18  and  C_19
REMARK                            x       y       z     vdW  Elec       q    Type
REMARK                         _______ _______ _______ _____ _____    ______ ____
ROOT
ATOM      1  C   UNL     1      46.235   7.609  12.664  0.00  0.00    +0.000 C 
ENDROOT
BRANCH   1   6
ATOM      2  C   UNL     1      44.795   4.978  10.275  0.00  0.00    +0.000 A 
ATOM      3  C   UNL     1      43.431   5.061  10.583  0.00  0.00    +0.000 A 
ATOM      4  C   UNL     1      42.962   5.970  11.528  0.00  0.00    +0.000 A 
ATOM      5  C   UNL     1      43.858   6.804  12.195  0.00  0.00    +0.000 A 
ATOM      6  C   UNL     1      45.228   6.765  11.903  0.00  0.00    +0.000 A 
ATOM      7  C   UNL     1      45.658   5.868  10.907  0.00  0.00    +0.000 A 
BRANCH   2  11
ATOM      8  C   UNL     1      46.332   2.074   7.717  0.00  0.00    +0.000 A 
ATOM      9  C   UNL     1      46.497   3.433   7.462  0.00  0.00    +0.000 A 
ATOM     10  N   UNL     1      46.003   4.397   8.269  0.00  0.00    +0.000 NA
ATOM     11  C   UNL     1      45.320   3.959   9.361  0.00  0.00    +0.000 A 
ATOM     12  C   UNL     1      45.171   2.602   9.610  0.00  0.00    +0.000 A 
ATOM     13  N   UNL     1      45.665   1.638   8.811  0.00  0.00    +0.000 NA
BRANCH   8  15
ATOM     14  C   UNL     1      46.769  -0.348   7.462  0.00  0.00    +0.000 C 
ATOM     15  C   UNL     1      46.941   1.027   6.841  0.00  0.00    +0.000 C 
ENDBRANCH   8  15
ENDBRANCH   2  11
ENDBRANCH   1   6
BRANCH   1  16
ATOM     16  C   UNL     1      47.373   6.781  13.299  0.00  0.00    +0.000 C 
BRANCH  16  17
ATOM     17  N   UNL     1      46.880   5.723  14.171  0.00  0.00    +0.000 N 
ATOM     18  H   UNL     1      45.897   5.841  14.408  0.00  0.00    +0.000 HD
BRANCH  17  19
ATOM     19  C   UNL     1      47.654   5.427  15.304  0.00  0.00    +0.000 A 
ATOM     20  C   UNL     1      48.709   6.228  15.770  0.00  0.00    +0.000 A 
ATOM     21  C   UNL     1      49.482   5.841  16.878  0.00  0.00    +0.000 A 
ATOM     22  C   UNL     1      49.231   4.629  17.523  0.00  0.00    +0.000 A 
ATOM     23  C   UNL     1      48.202   3.822  17.040  0.00  0.00    +0.000 A 
ATOM     24  F   UNL     1      47.904   2.648  17.619  0.00  0.00    +0.000 F 
ATOM     25  C   UNL     1      47.439   4.203  15.941  0.00  0.00    +0.000 A 
BRANCH  22  26
ATOM     26  C   UNL     1      50.083   4.254  18.684  0.00  0.00    +0.000 C 
ATOM     27  N   UNL     1      51.089   3.352  18.468  0.00  0.00    +0.000 N 
ATOM     28  O   UNL     1      49.903   4.730  19.788  0.00  0.00    +0.000 OA
ATOM     29  H   UNL     1      51.285   2.944  17.562  0.00  0.00    +0.000 HD
ATOM     30  H   UNL     1      51.684   3.108  19.251  0.00  0.00    +0.000 HD
ENDBRANCH  22  26
ENDBRANCH  17  19
ENDBRANCH  16  17
ENDBRANCH   1  16
TORSDOF 7
ENDMDL
MODEL 9
REMARK VINA RESULT:    -6.767      4.004      8.114
REMARK INTER + INTRA:         -10.554
REMARK INTER:                  -9.138
REMARK INTRA:                  -1.417
REMARK UNBOUND:                -1.018
REMARK  Name = 
REMARK  8 active torsions:
REMARK  status: ('A' for Active; 'I' for Inactive)
REMARK    1  A    between atoms: C_1  and  C_2
REMARK    2  A    between atoms: C_2  and  C_3
REMARK    3  A    between atoms: C_6  and  C_7
REMARK    4  A    between atoms: C_11  and  C_12
REMARK    5  A    between atoms: C_12  and  C_13
REMARK    6  A    between atoms: C_13  and  N_14
REMARK    7  A    between atoms: N_14  and  C_15
REMARK    8  A    between atoms: C_18  and  C_19
REMARK                            x       y       z     vdW  Elec       q    Type
REMARK                         _______ _______ _______ _____ _____    ______ ____
ROOT
ATOM      1  C   UNL     1      49.345   8.860  16.440  0.00  0.00    +0.000 C 
ENDROOT
BRANCH   1   6
ATOM      2  C   UNL     1      47.997   6.665  13.599  0.00  0.00    +0.000 A 
ATOM      3  C   UNL     1      48.886   6.994  12.568  0.00  0.00    +0.000 A 
ATOM      4  C   UNL     1      49.930   7.890  12.779  0.00  0.00    +0.000 A 
ATOM      5  C   UNL     1      50.093   8.488  14.027  0.00  0.00    +0.000 A 
ATOM      6  C   UNL     1      49.237   8.172  15.091  0.00  0.00    +0.000 A 
ATOM      7  C   UNL     1      48.223   7.224  14.853  0.00  0.00    +0.000 A 
BRANCH   2  11
ATOM      8  C   UNL     1      44.713   4.204  12.897  0.00  0.00    +0.000 A 
ATOM      9  C   UNL     1      44.651   5.580  12.694  0.00  0.00    +0.000 A 
ATOM     10  N   UNL     1      45.697   6.404  12.921  0.00  0.00    +0.000 NA
ATOM     11  C   UNL     1      46.832   5.805  13.370  0.00  0.00    +0.000 A 
ATOM     12  C   UNL     1      46.886   4.431  13.558  0.00  0.00    +0.000 A 
ATOM     13  N   UNL     1      45.847   3.605  13.330  0.00  0.00    +0.000 NA
BRANCH   8  15
ATOM     14  C   UNL     1      43.564   2.941  11.107  0.00  0.00    +0.000 C 
ATOM     15  C   UNL     1      43.559   3.306  12.581  0.00  0.00    +0.000 C 
ENDBRANCH   8  15
ENDBRANCH   2  11
ENDBRANCH   1   6
BRANCH   1  16
ATOM     16  C   UNL     1      48.418   8.250  17.514  0.00  0.00    +0.000 C 
BRANCH  16  17
ATOM     17  N   UNL     1      49.148   7.500  18.527  0.00  0.00    +0.000 N 
ATOM     18  H   UNL     1      49.950   8.013  18.889  0.00  0.00    +0.000 HD
BRANCH  17  19
ATOM     19  C   UNL     1      49.482   6.174  18.211  0.00  0.00    +0.000 A 
ATOM     20  C   UNL     1      50.777   5.744  17.874  0.00  0.00    +0.000 A 
ATOM     21  C   UNL     1      51.029   4.411  17.511  0.00  0.00    +0.000 A 
ATOM     22  C   UNL     1      49.984   3.487  17.450  0.00  0.00    +0.000 A 
ATOM     23  C   UNL     1      48.696   3.922  17.758  0.00  0.00    +0.000 A 
ATOM     24  F   UNL     1      47.649   3.084  17.726  0.00  0.00    +0.000 F 
ATOM     25  C   UNL     1      48.445   5.244  18.113  0.00  0.00    +0.000 A 
BRANCH  22  26
ATOM     26  C   UNL     1      50.296   2.088  17.048  0.00  0.00    +0.000 C 
ATOM     27  N   UNL     1      51.146   1.373  17.846  0.00  0.00    +0.000 N 
ATOM     28  O   UNL     1      49.814   1.590  16.049  0.00  0.00    +0.000 OA
ATOM     29  H   UNL     1      51.556   1.744  18.695  0.00  0.00    +0.000 HD
ATOM     30  H   UNL     1      51.346   0.414  17.586  0.00  0.00    +0.000 HD
ENDBRANCH  22  26
ENDBRANCH  17  19
ENDBRANCH  16  17
ENDBRANCH   1  16
TORSDOF 7
ENDMDL
