MODEL 1
REMARK VINA RESULT:    -8.415      0.000      0.000
REMARK INTER + INTRA:         -12.583
REMARK INTER:                 -11.613
REMARK INTRA:                  -0.970
REMARK UNBOUND:                -0.970
REMARK  Name = 
REMARK  7 active torsions:
REMARK  status: ('A' for Active; 'I' for Inactive)
REMARK    1  A    between atoms: C_2  and  O_3
REMARK    2  A    between atoms: C_2  and  C_4
REMARK    3  A    between atoms: C_5  and  C_6
REMARK    4  A    between atoms: C_11  and  C_12
REMARK    5  A    between atoms: C_16  and  O_17
REMARK    6  A    between atoms: O_17  and  C_18
REMARK    7  A    between atoms: C_18  and  C_19
REMARK                            x       y       z     vdW  Elec       q    Type
REMARK                         _______ _______ _______ _____ _____    ______ ____
ROOT
ATOM      1  C   UNL     1      45.324   5.644  12.134  0.00  0.00    +0.000 A 
ATOM      2  C   UNL     1      44.140   5.866  12.865  0.00  0.00    +0.000 A 
ATOM      3  C   UNL     1      42.917   5.336  12.457  0.00  0.00    +0.000 A 
ATOM      4  C   UNL     1      42.847   4.580  11.292  0.00  0.00    +0.000 A 
ATOM      5  C   UNL     1      43.990   4.383  10.520  0.00  0.00    +0.000 A 
ATOM      6  C   UNL     1      45.220   4.894  10.950  0.00  0.00    +0.000 A 
ENDROOT
BRANCH   1  12
ATOM      7  C   UNL     1      48.081   6.149  14.468  0.00  0.00    +0.000 A 
ATOM      8  C   UNL     1      48.992   6.941  13.802  0.00  0.00    +0.000 A 
ATOM      9  C   UNL     1      48.664   7.342  12.517  0.00  0.00    +0.000 A 
ATOM     10  F   UNL     1      49.518   8.119  11.835  0.00  0.00    +0.000 F 
ATOM     11  C   UNL     1      47.474   6.957  11.914  0.00  0.00    +0.000 A 
ATOM     12  C   UNL     1      46.612   6.155  12.641  0.00  0.00    +0.000 A 
ATOM     13  N   UNL     1      46.911   5.767  13.905  0.00  0.00    +0.000 NA
BRANCH   7  15
ATOM     14  C   UNL     1      47.688   4.586  16.323  0.00  0.00    +0.000 C 
ATOM     15  C   UNL     1      48.325   5.666  15.833  0.00  0.00    +0.000 C 
BRANCH  14  17
ATOM     16  O   UNL     1      48.931   4.412  18.350  0.00  0.00    +0.000 OA
ATOM     17  C   UNL     1      47.949   4.116  17.693  0.00  0.00    +0.000 C 
BRANCH  17  18
ATOM     18  O   UNL     1      46.963   3.312  18.144  0.00  0.00    +0.000 OA
ATOM     19  H   UNL     1      47.142   2.869  18.991  0.00  0.00    +0.000 HD
ENDBRANCH  17  18
ENDBRANCH  14  17
ENDBRANCH   7  15
ENDBRANCH   1  12
BRANCH   5  20
ATOM     20  O   UNL     1      44.021   3.696   9.337  0.00  0.00    +0.000 OA
BRANCH  20  21
ATOM     21  C   UNL     1      44.699   2.439   9.379  0.00  0.00    +0.000 C 
BRANCH  21  22
ATOM     22  C   UNL     1      45.696   2.406   8.255  0.00  0.00    +0.000 A 
ATOM     23  C   UNL     1      45.856   3.508   7.406  0.00  0.00    +0.000 A 
ATOM     24  C   UNL     1      46.761   3.451   6.346  0.00  0.00    +0.000 A 
ATOM     25  C   UNL     1      47.506   2.292   6.125  0.00  0.00    +0.000 A 
ATOM     26  C   UNL     1      47.351   1.191   6.964  0.00  0.00    +0.000 A 
ATOM     27  C   UNL     1      46.447   1.245   8.023  0.00  0.00    +0.000 A 
ENDBRANCH  21  22
ENDBRANCH  20  21
ENDBRANCH   5  20
TORSDOF 7
ENDMDL
MODEL 2
REMARK VINA RESULT:    -8.064      3.210      5.310
REMARK INTER + INTRA:         -12.099
REMARK INTER:                 -11.046
REMARK INTRA:                  -1.053
REMARK UNBOUND:                -0.970
REMARK  Name = 
REMARK  7 active torsions:
REMARK  status: ('A' for Active; 'I' for Inactive)
REMARK    1  A    between atoms: C_2  and  O_3
REMARK    2  A    between atoms: C_2  and  C_4
REMARK    3  A    between atoms: C_5  and  C_6
REMARK    4  A    between atoms: C_11  and  C_12
REMARK    5  A    between atoms: C_16  and  O_17
REMARK    6  A    between atoms: O_17  and  C_18
REMARK    7  A    between atoms: C_18  and  C_19
REMARK                            x       y       z     vdW  Elec       q    Type
REMARK                         _______ _______ _______ _____ _____    ______ ____
ROOT
ATOM      1  C   UNL     1      45.853   6.050  12.196  0.00  0.00    +0.000 A 
ATOM      2  C   UNL     1      46.398   5.358  13.295  0.00  0.00    +0.000 A 
ATOM      3  C   UNL     1      46.309   3.971  13.403  0.00  0.00    +0.000 A 
ATOM      4  C   UNL     1      45.655   3.242  12.416  0.00  0.00    +0.000 A 
ATOM      5  C   UNL     1      45.062   3.902  11.341  0.00  0.00    +0.000 A 
ATOM      6  C   UNL     1      45.180   5.292  11.224  0.00  0.00    +0.000 A 
ENDROOT
BRANCH   1  12
ATOM      7  C   UNL     1      44.936   9.552  11.741  0.00  0.00    +0.000 A 
ATOM      8  C   UNL     1      46.111  10.263  11.865  0.00  0.00    +0.000 A 
ATOM      9  C   UNL     1      47.271   9.539  12.094  0.00  0.00    +0.000 A 
ATOM     10  F   UNL     1      48.436  10.190  12.213  0.00  0.00    +0.000 F 
ATOM     11  C   UNL     1      47.256   8.155  12.206  0.00  0.00    +0.000 A 
ATOM     12  C   UNL     1      46.038   7.510  12.079  0.00  0.00    +0.000 A 
ATOM     13  N   UNL     1      44.897   8.203  11.840  0.00  0.00    +0.000 NA
BRANCH   7  15
ATOM     14  C   UNL     1      42.700   9.654  10.728  0.00  0.00    +0.000 C 
ATOM     15  C   UNL     1      43.650  10.216  11.499  0.00  0.00    +0.000 C 
BRANCH  14  17
ATOM     16  O   UNL     1      41.245  11.241   9.704  0.00  0.00    +0.000 OA
ATOM     17  C   UNL     1      41.416  10.335  10.500  0.00  0.00    +0.000 C 
BRANCH  17  18
ATOM     18  O   UNL     1      40.437   9.833  11.283  0.00  0.00    +0.000 OA
ATOM     19  H   UNL     1      39.775  10.479  11.586  0.00  0.00    +0.000 HD
ENDBRANCH  17  18
ENDBRANCH  14  17
ENDBRANCH   7  15
ENDBRANCH   1  12
BRANCH   5  20
ATOM     20  O   UNL     1      44.359   3.286  10.342  0.00  0.00    +0.000 OA
BRANCH  20  21
ATOM     21  C   UNL     1      44.508   3.864   9.045  0.00  0.00    +0.000 C 
BRANCH  21  22
ATOM     22  C   UNL     1      45.518   3.053   8.283  0.00  0.00    +0.000 A 
ATOM     23  C   UNL     1      45.674   1.684   8.532  0.00  0.00    +0.000 A 
ATOM     24  C   UNL     1      46.639   0.950   7.843  0.00  0.00    +0.000 A 
ATOM     25  C   UNL     1      47.456   1.580   6.903  0.00  0.00    +0.000 A 
ATOM     26  C   UNL     1      47.308   2.942   6.650  0.00  0.00    +0.000 A 
ATOM     27  C   UNL     1      46.346   3.677   7.339  0.00  0.00    +0.000 A 
ENDBRANCH  21  22
ENDBRANCH  20  21
ENDBRANCH   5  20
TORSDOF 7
ENDMDL
MODEL 3
REMARK VINA RESULT:    -7.814      3.314      4.050
REMARK INTER + INTRA:         -11.753
REMARK INTER:                 -10.827
REMARK INTRA:                  -0.927
REMARK UNBOUND:                -0.970
REMARK  Name = 
REMARK  7 active torsions:
REMARK  status: ('A' for Active; 'I' for Inactive)
REMARK    1  A    between atoms: C_2  and  O_3
REMARK    2  A    between atoms: C_2  and  C_4
REMARK    3  A    between atoms: C_5  and  C_6
REMARK    4  A    between atoms: C_11  and  C_12
REMARK    5  A    between atoms: C_16  and  O_17
REMARK    6  A    between atoms: O_17  and  C_18
REMARK    7  A    between atoms: C_18  and  C_19
REMARK                            x       y       z     vdW  Elec       q    Type
REMARK                         _______ _______ _______ _____ _____    ______ ____
ROOT
ATOM      1  C   UNL     1      45.324   6.059  11.922  0.00  0.00    +0.000 A 
ATOM      2  C   UNL     1      44.666   5.654  13.099  0.00  0.00    +0.000 A 
ATOM      3  C   UNL     1      43.877   4.505  13.138  0.00  0.00    +0.000 A 
ATOM      4  C   UNL     1      43.716   3.739  11.989  0.00  0.00    +0.000 A 
ATOM      5  C   UNL     1      44.313   4.140  10.796  0.00  0.00    +0.000 A 
ATOM      6  C   UNL     1      45.127   5.279  10.771  0.00  0.00    +0.000 A 
ENDROOT
BRANCH   1  12
ATOM      7  C   UNL     1      48.437   7.952  11.746  0.00  0.00    +0.000 A 
ATOM      8  C   UNL     1      48.077   9.275  11.894  0.00  0.00    +0.000 A 
ATOM      9  C   UNL     1      46.732   9.549  12.079  0.00  0.00    +0.000 A 
ATOM     10  F   UNL     1      46.338  10.822  12.234  0.00  0.00    +0.000 F 
ATOM     11  C   UNL     1      45.778   8.540  12.105  0.00  0.00    +0.000 A 
ATOM     12  C   UNL     1      46.214   7.237  11.942  0.00  0.00    +0.000 A 
ATOM     13  N   UNL     1      47.528   6.950  11.775  0.00  0.00    +0.000 NA
BRANCH   7  15
ATOM     14  C   UNL     1      50.799   8.449  11.283  0.00  0.00    +0.000 C 
ATOM     15  C   UNL     1      49.834   7.547  11.543  0.00  0.00    +0.000 C 
BRANCH  14  17
ATOM     16  O   UNL     1      53.166   8.738  11.246  0.00  0.00    +0.000 OA
ATOM     17  C   UNL     1      52.193   8.022  11.086  0.00  0.00    +0.000 C 
BRANCH  17  18
ATOM     18  O   UNL     1      52.272   6.729  10.704  0.00  0.00    +0.000 OA
ATOM     19  H   UNL     1      51.667   6.470   9.987  0.00  0.00    +0.000 HD
ENDBRANCH  17  18
ENDBRANCH  14  17
ENDBRANCH   7  15
ENDBRANCH   1  12
BRANCH   5  20
ATOM     20  O   UNL     1      44.182   3.486   9.602  0.00  0.00    +0.000 OA
BRANCH  20  21
ATOM     21  C   UNL     1      44.828   4.108   8.490  0.00  0.00    +0.000 C 
BRANCH  21  22
ATOM     22  C   UNL     1      45.743   3.099   7.854  0.00  0.00    +0.000 A 
ATOM     23  C   UNL     1      45.861   1.807   8.379  0.00  0.00    +0.000 A 
ATOM     24  C   UNL     1      46.739   0.891   7.800  0.00  0.00    +0.000 A 
ATOM     25  C   UNL     1      47.507   1.262   6.695  0.00  0.00    +0.000 A 
ATOM     26  C   UNL     1      47.396   2.546   6.167  0.00  0.00    +0.000 A 
ATOM     27  C   UNL     1      46.520   3.464   6.746  0.00  0.00    +0.000 A 
ENDBRANCH  21  22
ENDBRANCH  20  21
ENDBRANCH   5  20
TORSDOF 7
ENDMDL
MODEL 4
REMARK VINA RESULT:    -7.694      4.388      8.045
REMARK INTER + INTRA:         -11.588
REMARK INTER:                 -10.585
REMARK INTRA:                  -1.003
REMARK UNBOUND:                -0.970
REMARK  Name = 
REMARK  7 active torsions:
REMARK  status: ('A' for Active; 'I' for Inactive)
REMARK    1  A    between atoms: C_2  and  O_3
REMARK    2  A    between atoms: C_2  and  C_4
REMARK    3  A    between atoms: C_5  and  C_6
REMARK    4  A    between atoms: C_11  and  C_12
REMARK    5  A    between atoms: C_16  and  O_17
REMARK    6  A    between atoms: O_17  and  C_18
REMARK    7  A    between atoms: C_18  and  C_19
REMARK                            x       y       z     vdW  Elec       q    Type
REMARK                         _______ _______ _______ _____ _____    ______ ____
ROOT
ATOM      1  C   UNL     1      45.682   6.779  11.327  0.00  0.00    +0.000 A 
ATOM      2  C   UNL     1      47.022   6.896  11.745  0.00  0.00    +0.000 A 
ATOM      3  C   UNL     1      47.501   8.056  12.352  0.00  0.00    +0.000 A 
ATOM      4  C   UNL     1      46.649   9.138  12.542  0.00  0.00    +0.000 A 
ATOM      5  C   UNL     1      45.330   9.072  12.095  0.00  0.00    +0.000 A 
ATOM      6  C   UNL     1      44.848   7.894  11.512  0.00  0.00    +0.000 A 
ENDROOT
BRANCH   1  12
ATOM      7  C   UNL     1      45.348   4.046   8.934  0.00  0.00    +0.000 A 
ATOM      8  C   UNL     1      44.471   3.152   9.510  0.00  0.00    +0.000 A 
ATOM      9  C   UNL     1      43.951   3.483  10.751  0.00  0.00    +0.000 A 
ATOM     10  F   UNL     1      43.089   2.645  11.345  0.00  0.00    +0.000 F 
ATOM     11  C   UNL     1      44.302   4.661  11.398  0.00  0.00    +0.000 A 
ATOM     12  C   UNL     1      45.193   5.506  10.762  0.00  0.00    +0.000 A 
ATOM     13  N   UNL     1      45.700   5.203   9.541  0.00  0.00    +0.000 NA
BRANCH   7  15
ATOM     14  C   UNL     1      46.698   2.694   7.388  0.00  0.00    +0.000 C 
ATOM     15  C   UNL     1      45.961   3.796   7.624  0.00  0.00    +0.000 C 
BRANCH  14  17
ATOM     16  O   UNL     1      46.817   2.828   5.011  0.00  0.00    +0.000 OA
ATOM     17  C   UNL     1      47.301   2.461   6.067  0.00  0.00    +0.000 C 
BRANCH  17  18
ATOM     18  O   UNL     1      48.468   1.788   6.160  0.00  0.00    +0.000 OA
ATOM     19  H   UNL     1      48.972   1.942   6.979  0.00  0.00    +0.000 HD
ENDBRANCH  17  18
ENDBRANCH  14  17
ENDBRANCH   7  15
ENDBRANCH   1  12
BRANCH   5  20
ATOM     20  O   UNL     1      44.424  10.093  12.192  0.00  0.00    +0.000 OA
BRANCH  20  21
ATOM     21  C   UNL     1      44.873  11.357  11.702  0.00  0.00    +0.000 C 
BRANCH  21  22
ATOM     22  C   UNL     1      44.652  11.389  10.216  0.00  0.00    +0.000 A 
ATOM     23  C   UNL     1      43.522  10.789   9.646  0.00  0.00    +0.000 A 
ATOM     24  C   UNL     1      43.346  10.797   8.262  0.00  0.00    +0.000 A 
ATOM     25  C   UNL     1      44.298  11.400   7.440  0.00  0.00    +0.000 A 
ATOM     26  C   UNL     1      45.426  11.997   7.999  0.00  0.00    +0.000 A 
ATOM     27  C   UNL     1      45.605  11.990   9.381  0.00  0.00    +0.000 A 
ENDBRANCH  21  22
ENDBRANCH  20  21
ENDBRANCH   5  20
TORSDOF 7
ENDMDL
MODEL 5
REMARK VINA RESULT:    -7.652      3.125      4.559
REMARK INTER + INTRA:         -11.529
REMARK INTER:                 -10.629
REMARK INTRA:                  -0.900
REMARK UNBOUND:                -0.970
REMARK  Name = 
REMARK  7 active torsions:
REMARK  status: ('A' for Active; 'I' for Inactive)
REMARK    1  A    between atoms: C_2  and  O_3
REMARK    2  A    between atoms: C_2  and  C_4
REMARK    3  A    between atoms: C_5  and  C_6
REMARK    4  A    between atoms: C_11  and  C_12
REMARK    5  A    between atoms: C_16  and  O_17
REMARK    6  A    between atoms: O_17  and  C_18
REMARK    7  A    between atoms: C_18  and  C_19
REMARK                            x       y       z     vdW  Elec       q    Type
REMARK                         _______ _______ _______ _____ _____    ______ ____
ROOT
ATOM      1  C   UNL     1      45.228   5.660  12.181  0.00  0.00    +0.000 A 
ATOM      2  C   UNL     1      44.056   5.648  12.961  0.00  0.00    +0.000 A 
ATOM      3  C   UNL     1      43.040   4.719  12.742  0.00  0.00    +0.000 A 
ATOM      4  C   UNL     1      43.168   3.784  11.721  0.00  0.00    +0.000 A 
ATOM      5  C   UNL     1      44.293   3.802  10.899  0.00  0.00    +0.000 A 
ATOM      6  C   UNL     1      45.323   4.719  11.142  0.00  0.00    +0.000 A 
ENDROOT
BRANCH   1  12
ATOM      7  C   UNL     1      46.943   8.866  12.474  0.00  0.00    +0.000 A 
ATOM      8  C   UNL     1      48.169   8.582  13.037  0.00  0.00    +0.000 A 
ATOM      9  C   UNL     1      48.447   7.254  13.317  0.00  0.00    +0.000 A 
ATOM     10  F   UNL     1      49.630   6.932  13.859  0.00  0.00    +0.000 F 
ATOM     11  C   UNL     1      47.528   6.246  13.055  0.00  0.00    +0.000 A 
ATOM     12  C   UNL     1      46.315   6.608  12.496  0.00  0.00    +0.000 A 
ATOM     13  N   UNL     1      46.034   7.902  12.202  0.00  0.00    +0.000 NA
BRANCH   7  15
ATOM     14  C   UNL     1      45.278  10.539  11.788  0.00  0.00    +0.000 C 
ATOM     15  C   UNL     1      46.544  10.238  12.137  0.00  0.00    +0.000 C 
BRANCH  14  17
ATOM     16  O   UNL     1      45.047  12.876  12.197  0.00  0.00    +0.000 OA
ATOM     17  C   UNL     1      44.898  11.921  11.456  0.00  0.00    +0.000 C 
BRANCH  17  18
ATOM     18  O   UNL     1      44.360  12.010  10.221  0.00  0.00    +0.000 OA
ATOM     19  H   UNL     1      44.584  11.280   9.617  0.00  0.00    +0.000 HD
ENDBRANCH  17  18
ENDBRANCH  14  17
ENDBRANCH   7  15
ENDBRANCH   1  12
BRANCH   5  20
ATOM     20  O   UNL     1      44.497   2.958   9.840  0.00  0.00    +0.000 OA
BRANCH  20  21
ATOM     21  C   UNL     1      44.596   3.593   8.565  0.00  0.00    +0.000 C 
BRANCH  21  22
ATOM     22  C   UNL     1      45.664   2.890   7.773  0.00  0.00    +0.000 A 
ATOM     23  C   UNL     1      46.154   1.643   8.180  0.00  0.00    +0.000 A 
ATOM     24  C   UNL     1      47.169   1.018   7.455  0.00  0.00    +0.000 A 
ATOM     25  C   UNL     1      47.702   1.636   6.323  0.00  0.00    +0.000 A 
ATOM     26  C   UNL     1      47.220   2.877   5.913  0.00  0.00    +0.000 A 
ATOM     27  C   UNL     1      46.208   3.504   6.636  0.00  0.00    +0.000 A 
ENDBRANCH  21  22
ENDBRANCH  20  21
ENDBRANCH   5  20
TORSDOF 7
ENDMDL
MODEL 6
REMARK VINA RESULT:    -7.486      3.660      7.794
REMARK INTER + INTRA:         -11.300
REMARK INTER:                 -10.394
REMARK INTRA:                  -0.906
REMARK UNBOUND:                -0.970
REMARK  Name = 
REMARK  7 active torsions:
REMARK  status: ('A' for Active; 'I' for Inactive)
REMARK    1  A    between atoms: C_2  and  O_3
REMARK    2  A    between atoms: C_2  and  C_4
REMARK    3  A    between atoms: C_5  and  C_6
REMARK    4  A    between atoms: C_11  and  C_12
REMARK    5  A    between atoms: C_16  and  O_17
REMARK    6  A    between atoms: O_17  and  C_18
REMARK    7  A    between atoms: C_18  and  C_19
REMARK                            x       y       z     vdW  Elec       q    Type
REMARK                         _______ _______ _______ _____ _____    ______ ____
ROOT
ATOM      1  C   UNL     1      45.483   6.554  11.337  0.00  0.00    +0.000 A 
ATOM      2  C   UNL     1      44.557   7.613  11.408  0.00  0.00    +0.000 A 
ATOM      3  C   UNL     1      44.924   8.876  11.870  0.00  0.00    +0.000 A 
ATOM      4  C   UNL     1      46.229   9.106  12.288  0.00  0.00    +0.000 A 
ATOM      5  C   UNL     1      47.157   8.066  12.277  0.00  0.00    +0.000 A 
ATOM      6  C   UNL     1      46.790   6.808  11.785  0.00  0.00    +0.000 A 
ENDROOT
BRANCH   1  12
ATOM      7  C   UNL     1      45.301   3.824   8.924  0.00  0.00    +0.000 A 
ATOM      8  C   UNL     1      44.500   2.865   9.507  0.00  0.00    +0.000 A 
ATOM      9  C   UNL     1      43.980   3.149  10.760  0.00  0.00    +0.000 A 
ATOM     10  F   UNL     1      43.191   2.247  11.360  0.00  0.00    +0.000 F 
ATOM     11  C   UNL     1      44.258   4.343  11.412  0.00  0.00    +0.000 A 
ATOM     12  C   UNL     1      45.076   5.254  10.767  0.00  0.00    +0.000 A 
ATOM     13  N   UNL     1      45.581   4.998   9.535  0.00  0.00    +0.000 NA
BRANCH   7  15
ATOM     14  C   UNL     1      46.797   2.646   7.370  0.00  0.00    +0.000 C 
ATOM     15  C   UNL     1      45.906   3.629   7.600  0.00  0.00    +0.000 C 
BRANCH  14  17
ATOM     16  O   UNL     1      46.959   2.970   5.013  0.00  0.00    +0.000 OA
ATOM     17  C   UNL     1      47.390   2.466   6.035  0.00  0.00    +0.000 C 
BRANCH  17  18
ATOM     18  O   UNL     1      48.480   1.670   6.075  0.00  0.00    +0.000 OA
ATOM     19  H   UNL     1      49.187   1.964   6.675  0.00  0.00    +0.000 HD
ENDBRANCH  17  18
ENDBRANCH  14  17
ENDBRANCH   7  15
ENDBRANCH   1  12
BRANCH   5  20
ATOM     20  O   UNL     1      48.452   8.174  12.707  0.00  0.00    +0.000 OA
BRANCH  20  21
ATOM     21  C   UNL     1      49.372   7.259  12.110  0.00  0.00    +0.000 C 
BRANCH  21  22
ATOM     22  C   UNL     1      50.419   8.054  11.382  0.00  0.00    +0.000 A 
ATOM     23  C   UNL     1      51.389   7.415  10.600  0.00  0.00    +0.000 A 
ATOM     24  C   UNL     1      52.376   8.163   9.957  0.00  0.00    +0.000 A 
ATOM     25  C   UNL     1      52.403   9.551  10.096  0.00  0.00    +0.000 A 
ATOM     26  C   UNL     1      51.443  10.193  10.874  0.00  0.00    +0.000 A 
ATOM     27  C   UNL     1      50.456   9.449  11.518  0.00  0.00    +0.000 A 
ENDBRANCH  21  22
ENDBRANCH  20  21
ENDBRANCH   5  20
TORSDOF 7
ENDMDL
MODEL 7
REMARK VINA RESULT:    -7.441      2.929      8.141
REMARK INTER + INTRA:         -11.239
REMARK INTER:                 -10.342
REMARK INTRA:                  -0.898
REMARK UNBOUND:                -0.970
REMARK  Name = 
REMARK  7 active torsions:
REMARK  status: ('A' for Active; 'I' for Inactive)
REMARK    1  A    between atoms: C_2  and  O_3
REMARK    2  A    between atoms: C_2  and  C_4
REMARK    3  A    between atoms: C_5  and  C_6
REMARK    4  A    between atoms: C_11  and  C_12
REMARK    5  A    between atoms: C_16  and  O_17
REMARK    6  A    between atoms: O_17  and  C_18
REMARK    7  A    between atoms: C_18  and  C_19
REMARK                            x       y       z     vdW  Elec       q    Type
REMARK                         _______ _______ _______ _____ _____    ______ ____
ROOT
ATOM      1  C   UNL     1      45.357   6.489  11.728  0.00  0.00    +0.000 A 
ATOM      2  C   UNL     1      44.704   7.695  11.406  0.00  0.00    +0.000 A 
ATOM      3  C   UNL     1      45.113   8.914  11.942  0.00  0.00    +0.000 A 
ATOM      4  C   UNL     1      46.181   8.954  12.831  0.00  0.00    +0.000 A 
ATOM      5  C   UNL     1      46.816   7.773  13.209  0.00  0.00    +0.000 A 
ATOM      6  C   UNL     1      46.419   6.555  12.645  0.00  0.00    +0.000 A 
ENDROOT
BRANCH   1  12
ATOM      7  C   UNL     1      45.219   3.885   9.176  0.00  0.00    +0.000 A 
ATOM      8  C   UNL     1      44.369   2.921   9.675  0.00  0.00    +0.000 A 
ATOM      9  C   UNL     1      43.799   3.157  10.916  0.00  0.00    +0.000 A 
ATOM     10  F   UNL     1      42.961   2.248  11.435  0.00  0.00    +0.000 F 
ATOM     11  C   UNL     1      44.076   4.310  11.638  0.00  0.00    +0.000 A 
ATOM     12  C   UNL     1      44.945   5.230  11.077  0.00  0.00    +0.000 A 
ATOM     13  N   UNL     1      45.499   5.021   9.858  0.00  0.00    +0.000 NA
BRANCH   7  15
ATOM     14  C   UNL     1      46.682   2.692   7.604  0.00  0.00    +0.000 C 
ATOM     15  C   UNL     1      45.878   3.739   7.873  0.00  0.00    +0.000 C 
BRANCH  14  17
ATOM     16  O   UNL     1      48.100   1.668   5.983  0.00  0.00    +0.000 OA
ATOM     17  C   UNL     1      47.332   2.562   6.290  0.00  0.00    +0.000 C 
BRANCH  17  18
ATOM     18  O   UNL     1      46.972   3.559   5.453  0.00  0.00    +0.000 OA
ATOM     19  H   UNL     1      47.478   3.607   4.622  0.00  0.00    +0.000 HD
ENDBRANCH  17  18
ENDBRANCH  14  17
ENDBRANCH   7  15
ENDBRANCH   1  12
BRANCH   5  20
ATOM     20  O   UNL     1      47.844   7.695  14.109  0.00  0.00    +0.000 OA
BRANCH  20  21
ATOM     21  C   UNL     1      48.472   6.417  14.210  0.00  0.00    +0.000 C 
BRANCH  21  22
ATOM     22  C   UNL     1      48.225   5.880  15.592  0.00  0.00    +0.000 A 
ATOM     23  C   UNL     1      48.742   6.532  16.717  0.00  0.00    +0.000 A 
ATOM     24  C   UNL     1      48.534   6.005  17.992  0.00  0.00    +0.000 A 
ATOM     25  C   UNL     1      47.812   4.821  18.148  0.00  0.00    +0.000 A 
ATOM     26  C   UNL     1      47.295   4.165  17.033  0.00  0.00    +0.000 A 
ATOM     27  C   UNL     1      47.503   4.689  15.759  0.00  0.00    +0.000 A 
ENDBRANCH  21  22
ENDBRANCH  20  21
ENDBRANCH   5  20
TORSDOF 7
ENDMDL
MODEL 8
REMARK VINA RESULT:    -6.699      4.580      8.407
REMARK INTER + INTRA:         -10.214
REMARK INTER:                  -9.373
REMARK INTRA:                  -0.841
REMARK UNBOUND:                -0.970
REMARK  Name = 
REMARK  7 active torsions:
REMARK  status: ('A' for Active; 'I' for Inactive)
REMARK    1  A    between atoms: C_2  and  O_3
REMARK    2  A    between atoms: C_2  and  C_4
REMARK    3  A    between atoms: C_5  and  C_6
REMARK    4  A    between atoms: C_11  and  C_12
REMARK    5  A    between atoms: C_16  and  O_17
REMARK    6  A    between atoms: O_17  and  C_18
REMARK    7  A    between atoms: C_18  and  C_19
REMARK                            x       y       z     vdW  Elec       q    Type
REMARK                         _______ _______ _______ _____ _____    ______ ____
ROOT
ATOM      1  C   UNL     1      44.841   6.789  11.684  0.00  0.00    +0.000 A 
ATOM      2  C   UNL     1      45.749   7.106  12.713  0.00  0.00    +0.000 A 
ATOM      3  C   UNL     1      46.012   8.426  13.075  0.00  0.00    +0.000 A 
ATOM      4  C   UNL     1      45.381   9.466  12.402  0.00  0.00    +0.000 A 
ATOM      5  C   UNL     1      44.515   9.187  11.346  0.00  0.00    +0.000 A 
ATOM      6  C   UNL     1      44.233   7.859  11.006  0.00  0.00    +0.000 A 
ENDROOT
BRANCH   1  12
ATOM      7  C   UNL     1      44.622   3.711   9.738  0.00  0.00    +0.000 A 
ATOM      8  C   UNL     1      44.085   2.769  10.590  0.00  0.00    +0.000 A 
ATOM      9  C   UNL     1      43.763   3.184  11.873  0.00  0.00    +0.000 A 
ATOM     10  F   UNL     1      43.231   2.303  12.732  0.00  0.00    +0.000 F 
ATOM     11  C   UNL     1      43.979   4.490  12.293  0.00  0.00    +0.000 A 
ATOM     12  C   UNL     1      44.529   5.377  11.384  0.00  0.00    +0.000 A 
ATOM     13  N   UNL     1      44.835   4.991  10.121  0.00  0.00    +0.000 NA
BRANCH   7  15
ATOM     14  C   UNL     1      46.280   3.454   7.942  0.00  0.00    +0.000 C 
ATOM     15  C   UNL     1      45.001   3.381   8.359  0.00  0.00    +0.000 C 
BRANCH  14  17
ATOM     16  O   UNL     1      46.762   1.982   6.129  0.00  0.00    +0.000 OA
ATOM     17  C   UNL     1      46.639   3.116   6.556  0.00  0.00    +0.000 C 
BRANCH  17  18
ATOM     18  O   UNL     1      46.817   4.222   5.801  0.00  0.00    +0.000 OA
ATOM     19  H   UNL     1      47.734   4.392   5.523  0.00  0.00    +0.000 HD
ENDBRANCH  17  18
ENDBRANCH  14  17
ENDBRANCH   7  15
ENDBRANCH   1  12
BRANCH   5  20
ATOM     20  O   UNL     1      43.879  10.134  10.590  0.00  0.00    +0.000 OA
BRANCH  20  21
ATOM     21  C   UNL     1      43.181  11.137  11.329  0.00  0.00    +0.000 C 
BRANCH  21  22
ATOM     22  C   UNL     1      41.765  11.190  10.826  0.00  0.00    +0.000 A 
ATOM     23  C   UNL     1      41.385  12.124   9.854  0.00  0.00    +0.000 A 
ATOM     24  C   UNL     1      40.061  12.185   9.421  0.00  0.00    +0.000 A 
ATOM     25  C   UNL     1      39.108  11.319   9.959  0.00  0.00    +0.000 A 
ATOM     26  C   UNL     1      39.479  10.389  10.927  0.00  0.00    +0.000 A 
ATOM     27  C   UNL     1      40.801  10.326  11.363  0.00  0.00    +0.000 A 
ENDBRANCH  21  22
ENDBRANCH  20  21
ENDBRANCH   5  20
TORSDOF 7
ENDMDL
MODEL 9
REMARK VINA RESULT:    -6.451      3.398      8.577
REMARK INTER + INTRA:          -9.873
REMARK INTER:                  -9.122
REMARK INTRA:                  -0.752
REMARK UNBOUND:                -0.970
REMARK  Name = 
REMARK  7 active torsions:
REMARK  status: ('A' for Active; 'I' for Inactive)
REMARK    1  A    between atoms: C_2  and  O_3
REMARK    2  A    between atoms: C_2  and  C_4
REMARK    3  A    between atoms: C_5  and  C_6
REMARK    4  A    between atoms: C_11  and  C_12
REMARK    5  A    between atoms: C_16  and  O_17
REMARK    6  A    between atoms: O_17  and  C_18
REMARK    7  A    between atoms: C_18  and  C_19
REMARK                            x       y       z     vdW  Elec       q    Type
REMARK                         _______ _______ _______ _____ _____    ______ ____
ROOT
ATOM      1  C   UNL     1      45.345   6.333  11.702  0.00  0.00    +0.000 A 
ATOM      2  C   UNL     1      44.672   7.525  11.369  0.00  0.00    +0.000 A 
ATOM      3  C   UNL     1      45.084   8.761  11.864  0.00  0.00    +0.000 A 
ATOM      4  C   UNL     1      46.175   8.832  12.722  0.00  0.00    +0.000 A 
ATOM      5  C   UNL     1      46.832   7.666  13.111  0.00  0.00    +0.000 A 
ATOM      6  C   UNL     1      46.431   6.431  12.588  0.00  0.00    +0.000 A 
ENDROOT
BRANCH   1  12
ATOM      7  C   UNL     1      45.191   3.649   9.237  0.00  0.00    +0.000 A 
ATOM      8  C   UNL     1      44.341   2.703   9.769  0.00  0.00    +0.000 A 
ATOM      9  C   UNL     1      43.775   2.981  11.003  0.00  0.00    +0.000 A 
ATOM     10  F   UNL     1      42.937   2.092  11.554  0.00  0.00    +0.000 F 
ATOM     11  C   UNL     1      44.058   4.156  11.687  0.00  0.00    +0.000 A 
ATOM     12  C   UNL     1      44.927   5.055  11.094  0.00  0.00    +0.000 A 
ATOM     13  N   UNL     1      45.477   4.805   9.880  0.00  0.00    +0.000 NA
BRANCH   7  15
ATOM     14  C   UNL     1      46.601   2.373   7.680  0.00  0.00    +0.000 C 
ATOM     15  C   UNL     1      45.846   3.458   7.937  0.00  0.00    +0.000 C 
BRANCH  14  17
ATOM     16  O   UNL     1      48.161   1.426   6.145  0.00  0.00    +0.000 OA
ATOM     17  C   UNL     1      47.247   2.199   6.369  0.00  0.00    +0.000 C 
BRANCH  17  18
ATOM     18  O   UNL     1      46.701   3.004   5.432  0.00  0.00    +0.000 OA
ATOM     19  H   UNL     1      46.787   2.690   4.514  0.00  0.00    +0.000 HD
ENDBRANCH  17  18
ENDBRANCH  14  17
ENDBRANCH   7  15
ENDBRANCH   1  12
BRANCH   5  20
ATOM     20  O   UNL     1      47.885   7.620  13.984  0.00  0.00    +0.000 OA
BRANCH  20  21
ATOM     21  C   UNL     1      49.146   8.011  13.440  0.00  0.00    +0.000 C 
BRANCH  21  22
ATOM     22  C   UNL     1      49.880   8.807  14.482  0.00  0.00    +0.000 A 
ATOM     23  C   UNL     1      49.277   9.910  15.098  0.00  0.00    +0.000 A 
ATOM     24  C   UNL     1      49.982  10.661  16.039  0.00  0.00    +0.000 A 
ATOM     25  C   UNL     1      51.294  10.316  16.367  0.00  0.00    +0.000 A 
ATOM     26  C   UNL     1      51.901   9.221  15.758  0.00  0.00    +0.000 A 
ATOM     27  C   UNL     1      51.200   8.471  14.816  0.00  0.00    +0.000 A 
ENDBRANCH  21  22
ENDBRANCH  20  21
ENDBRANCH   5  20
TORSDOF 7
ENDMDL
