MODEL 1
REMARK VINA RESULT:    -7.988      0.000      0.000
REMARK INTER + INTRA:         -12.152
REMARK INTER:                 -12.191
REMARK INTRA:                   0.039
REMARK UNBOUND:                 0.039
REMARK  Name = 
REMARK  12 active torsions:
REMARK  status: ('A' for Active; 'I' for Inactive)
REMARK    1  A    between atoms: C_1  and  C_2
REMARK    2  A    between atoms: C_3  and  C_4
REMARK    3  A    between atoms: C_4  and  C_5
REMARK    4  A    between atoms: C_4  and  C_16
REMARK    5  A    between atoms: C_5  and  O_6
REMARK    6  A    between atoms: O_6  and  C_7
REMARK    7  A    between atoms: C_10  and  C_11
REMARK    8  A    between atoms: C_20  and  O_21
REMARK    9  A    between atoms: O_21  and  C_22
REMARK   10  A    between atoms: N_24  and  C_25
REMARK   11  A    between atoms: C_25  and  C_26
REMARK   12  A    between atoms: C_25  and  C_27
REMARK                            x       y       z     vdW  Elec       q    Type
REMARK                         _______ _______ _______ _____ _____    ______ ____
ROOT
ATOM      1  C   UNL     1      45.115   6.278  11.066  0.00  0.00    +0.000 C 
ENDROOT
BRANCH   1   2
ATOM      2  C   UNL     1      46.211   6.142  12.120  0.00  0.00    +0.000 A 
ATOM      3  C   UNL     1      47.414   6.852  12.015  0.00  0.00    +0.000 A 
ATOM      4  C   UNL     1      48.424   6.673  12.939  0.00  0.00    +0.000 A 
ATOM      5  C   UNL     1      48.204   5.806  13.997  0.00  0.00    +0.000 A 
ATOM      6  C   UNL     1      46.976   5.169  14.085  0.00  0.00    +0.000 A 
ATOM      7  N   UNL     1      45.977   5.322  13.184  0.00  0.00    +0.000 NA
BRANCH   6   8
ATOM      8  O   UNL     1      46.784   4.309  15.161  0.00  0.00    +0.000 OA
BRANCH   8   9
ATOM      9  C   UNL     1      47.669   4.523  16.290  0.00  0.00    +0.000 C 
ATOM     10  C   UNL     1      48.447   3.290  16.785  0.00  0.00    +0.000 C 
ATOM     11  N   UNL     1      48.180   3.666  18.198  0.00  0.00    +0.000 NA
ATOM     12  C   UNL     1      47.074   4.550  17.721  0.00  0.00    +0.000 C 
BRANCH  11  13
ATOM     13  C   UNL     1      49.313   4.441  18.747  0.00  0.00    +0.000 C 
ATOM     14  C   UNL     1      49.210   4.548  20.275  0.00  0.00    +0.000 C 
ATOM     15  C   UNL     1      50.646   3.743  18.419  0.00  0.00    +0.000 C 
ENDBRANCH  11  13
ENDBRANCH   8   9
ENDBRANCH   6   8
ENDBRANCH   1   2
BRANCH   1  18
ATOM     16  C   UNL     1      43.556  10.289  11.125  0.00  0.00    +0.000 C 
ATOM     17  C   UNL     1      44.030   8.845  11.114  0.00  0.00    +0.000 C 
ATOM     18  C   UNL     1      44.437   7.607  11.105  0.00  0.00    +0.000 C 
ENDBRANCH   1  18
BRANCH   1  19
ATOM     19  C   UNL     1      44.055   5.139  11.150  0.00  0.00    +0.000 C 
BRANCH  19  20
ATOM     20  O   UNL     1      43.682   4.695   9.831  0.00  0.00    +0.000 OA
BRANCH  20  21
ATOM     21  C   UNL     1      44.678   4.013   9.165  0.00  0.00    +0.000 A 
ATOM     22  C   UNL     1      44.753   2.653   9.405  0.00  0.00    +0.000 A 
ATOM     23  C   UNL     1      45.672   1.906   8.668  0.00  0.00    +0.000 A 
ATOM     24  C   UNL     1      46.490   2.545   7.723  0.00  0.00    +0.000 A 
ATOM     25  C   UNL     1      46.332   3.909   7.573  0.00  0.00    +0.000 A 
ATOM     26  N   UNL     1      45.458   4.667   8.281  0.00  0.00    +0.000 NA
BRANCH  24  27
ATOM     27  C   UNL     1      47.457   1.719   6.940  0.00  0.00    +0.000 C 
ATOM     28  N   UNL     1      48.560   2.310   6.418  0.00  0.00    +0.000 N 
ATOM     29  O   UNL     1      47.257   0.528   6.783  0.00  0.00    +0.000 OA
ATOM     30  H   UNL     1      48.826   3.282   6.502  0.00  0.00    +0.000 HD
ATOM     31  H   UNL     1      49.184   1.706   5.906  0.00  0.00    +0.000 HD
ENDBRANCH  24  27
ENDBRANCH  20  21
ENDBRANCH  19  20
ENDBRANCH   1  19
TORSDOF 9
ENDMDL
MODEL 2
REMARK VINA RESULT:    -7.604      2.449      3.123
REMARK INTER + INTRA:         -11.566
REMARK INTER:                 -11.308
REMARK INTRA:                  -0.258
REMARK UNBOUND:                 0.039
REMARK  Name = 
REMARK  12 active torsions:
REMARK  status: ('A' for Active; 'I' for Inactive)
REMARK    1  A    between atoms: C_1  and  C_2
REMARK    2  A    between atoms: C_3  and  C_4
REMARK    3  A    between atoms: C_4  and  C_5
REMARK    4  A    between atoms: C_4  and  C_16
REMARK    5  A    between atoms: C_5  and  O_6
REMARK    6  A    between atoms: O_6  and  C_7
REMARK    7  A    between atoms: C_10  and  C_11
REMARK    8  A    between atoms: C_20  and  O_21
REMARK    9  A    between atoms: O_21  and  C_22
REMARK   10  A    between atoms: N_24  and  C_25
REMARK   11  A    between atoms: C_25  and  C_26
REMARK   12  A    between atoms: C_25  and  C_27
REMARK                            x       y       z     vdW  Elec       q    Type
REMARK                         _______ _______ _______ _____ _____    ______ ____
ROOT
ATOM      1  C   UNL     1      45.051   6.054  11.213  0.00  0.00    +0.000 C 
ENDROOT
BRANCH   1   2
ATOM      2  C   UNL     1      45.939   5.655  12.389  0.00  0.00    +0.000 A 
ATOM      3  C   UNL     1      45.540   4.671  13.301  0.00  0.00    +0.000 A 
ATOM      4  C   UNL     1      46.320   4.364  14.397  0.00  0.00    +0.000 A 
ATOM      5  C   UNL     1      47.530   5.022  14.551  0.00  0.00    +0.000 A 
ATOM      6  C   UNL     1      47.905   5.948  13.590  0.00  0.00    +0.000 A 
ATOM      7  N   UNL     1      47.149   6.272  12.515  0.00  0.00    +0.000 NA
BRANCH   6   8
ATOM      8  O   UNL     1      49.127   6.588  13.769  0.00  0.00    +0.000 OA
BRANCH   8   9
ATOM      9  C   UNL     1      49.225   7.415  14.956  0.00  0.00    +0.000 C 
ATOM     10  C   UNL     1      48.295   8.641  15.006  0.00  0.00    +0.000 C 
ATOM     11  N   UNL     1      49.398   9.479  15.544  0.00  0.00    +0.000 NA
ATOM     12  C   UNL     1      50.371   8.453  15.061  0.00  0.00    +0.000 C 
BRANCH  11  13
ATOM     13  C   UNL     1      49.332   9.530  17.020  0.00  0.00    +0.000 C 
ATOM     14  C   UNL     1      50.652  10.052  17.606  0.00  0.00    +0.000 C 
ATOM     15  C   UNL     1      48.213  10.485  17.471  0.00  0.00    +0.000 C 
ENDBRANCH  11  13
ENDBRANCH   8   9
ENDBRANCH   6   8
ENDBRANCH   1   2
BRANCH   1  18
ATOM     16  C   UNL     1      44.280  10.283  11.419  0.00  0.00    +0.000 C 
ATOM     17  C   UNL     1      44.472   8.779  11.334  0.00  0.00    +0.000 C 
ATOM     18  C   UNL     1      44.638   7.487  11.261  0.00  0.00    +0.000 C 
ENDBRANCH   1  18
BRANCH   1  19
ATOM     19  C   UNL     1      43.794   5.144  11.072  0.00  0.00    +0.000 C 
BRANCH  19  20
ATOM     20  O   UNL     1      43.557   4.817   9.689  0.00  0.00    +0.000 OA
BRANCH  20  21
ATOM     21  C   UNL     1      44.554   4.061   9.111  0.00  0.00    +0.000 A 
ATOM     22  C   UNL     1      44.556   2.712   9.420  0.00  0.00    +0.000 A 
ATOM     23  C   UNL     1      45.478   1.892   8.771  0.00  0.00    +0.000 A 
ATOM     24  C   UNL     1      46.371   2.446   7.842  0.00  0.00    +0.000 A 
ATOM     25  C   UNL     1      46.282   3.807   7.617  0.00  0.00    +0.000 A 
ATOM     26  N   UNL     1      45.408   4.636   8.240  0.00  0.00    +0.000 NA
BRANCH  24  27
ATOM     27  C   UNL     1      47.339   1.542   7.152  0.00  0.00    +0.000 C 
ATOM     28  N   UNL     1      48.417   2.078   6.530  0.00  0.00    +0.000 N 
ATOM     29  O   UNL     1      47.162   0.337   7.160  0.00  0.00    +0.000 OA
ATOM     30  H   UNL     1      48.664   3.059   6.479  0.00  0.00    +0.000 HD
ATOM     31  H   UNL     1      49.044   1.424   6.089  0.00  0.00    +0.000 HD
ENDBRANCH  24  27
ENDBRANCH  20  21
ENDBRANCH  19  20
ENDBRANCH   1  19
TORSDOF 9
ENDMDL
MODEL 3
REMARK VINA RESULT:    -7.545      2.209      8.695
REMARK INTER + INTRA:         -11.476
REMARK INTER:                 -11.426
REMARK INTRA:                  -0.050
REMARK UNBOUND:                 0.039
REMARK  Name = 
REMARK  12 active torsions:
REMARK  status: ('A' for Active; 'I' for Inactive)
REMARK    1  A    between atoms: C_1  and  C_2
REMARK    2  A    between atoms: C_3  and  C_4
REMARK    3  A    between atoms: C_4  and  C_5
REMARK    4  A    between atoms: C_4  and  C_16
REMARK    5  A    between atoms: C_5  and  O_6
REMARK    6  A    between atoms: O_6  and  C_7
REMARK    7  A    between atoms: C_10  and  C_11
REMARK    8  A    between atoms: C_20  and  O_21
REMARK    9  A    between atoms: O_21  and  C_22
REMARK   10  A    between atoms: N_24  and  C_25
REMARK   11  A    between atoms: C_25  and  C_26
REMARK   12  A    between atoms: C_25  and  C_27
REMARK                            x       y       z     vdW  Elec       q    Type
REMARK                         _______ _______ _______ _____ _____    ______ ____
ROOT
ATOM      1  C   UNL     1      46.481   5.154  13.741  0.00  0.00    +0.000 C 
ENDROOT
BRANCH   1   2
ATOM      2  C   UNL     1      45.191   4.953  12.948  0.00  0.00    +0.000 A 
ATOM      3  C   UNL     1      44.091   5.802  13.123  0.00  0.00    +0.000 A 
ATOM      4  C   UNL     1      42.908   5.573  12.451  0.00  0.00    +0.000 A 
ATOM      5  C   UNL     1      42.847   4.509  11.565  0.00  0.00    +0.000 A 
ATOM      6  C   UNL     1      43.982   3.733  11.387  0.00  0.00    +0.000 A 
ATOM      7  N   UNL     1      45.147   3.933  12.046  0.00  0.00    +0.000 NA
BRANCH   6   8
ATOM      8  O   UNL     1      43.891   2.675  10.487  0.00  0.00    +0.000 OA
BRANCH   8   9
ATOM      9  C   UNL     1      44.966   2.594   9.517  0.00  0.00    +0.000 C 
ATOM     10  C   UNL     1      44.833   3.504   8.282  0.00  0.00    +0.000 C 
ATOM     11  N   UNL     1      45.291   2.400   7.398  0.00  0.00    +0.000 NA
ATOM     12  C   UNL     1      44.970   1.433   8.490  0.00  0.00    +0.000 C 
BRANCH  11  13
ATOM     13  C   UNL     1      46.746   2.504   7.158  0.00  0.00    +0.000 C 
ATOM     14  C   UNL     1      47.411   1.122   7.236  0.00  0.00    +0.000 C 
ATOM     15  C   UNL     1      47.017   3.071   5.753  0.00  0.00    +0.000 C 
ENDBRANCH  11  13
ENDBRANCH   8   9
ENDBRANCH   6   8
ENDBRANCH   1   2
BRANCH   1  18
ATOM     16  C   UNL     1      49.077   7.938  11.733  0.00  0.00    +0.000 C 
ATOM     17  C   UNL     1      48.215   6.896  12.426  0.00  0.00    +0.000 C 
ATOM     18  C   UNL     1      47.475   6.002  13.021  0.00  0.00    +0.000 C 
ENDBRANCH   1  18
BRANCH   1  19
ATOM     19  C   UNL     1      47.142   3.807  14.166  0.00  0.00    +0.000 C 
BRANCH  19  20
ATOM     20  O   UNL     1      46.942   3.566  15.572  0.00  0.00    +0.000 OA
BRANCH  20  21
ATOM     21  C   UNL     1      48.091   3.658  16.327  0.00  0.00    +0.000 A 
ATOM     22  C   UNL     1      48.660   2.461  16.722  0.00  0.00    +0.000 A 
ATOM     23  C   UNL     1      49.882   2.505  17.392  0.00  0.00    +0.000 A 
ATOM     24  C   UNL     1      50.491   3.742  17.650  0.00  0.00    +0.000 A 
ATOM     25  C   UNL     1      49.828   4.873  17.214  0.00  0.00    +0.000 A 
ATOM     26  N   UNL     1      48.633   4.868  16.572  0.00  0.00    +0.000 NA
BRANCH  24  27
ATOM     27  C   UNL     1      51.807   3.759  18.357  0.00  0.00    +0.000 C 
ATOM     28  N   UNL     1      51.851   4.126  19.662  0.00  0.00    +0.000 N 
ATOM     29  O   UNL     1      52.822   3.437  17.768  0.00  0.00    +0.000 OA
ATOM     30  H   UNL     1      51.069   4.395  20.245  0.00  0.00    +0.000 HD
ATOM     31  H   UNL     1      52.762   4.111  20.094  0.00  0.00    +0.000 HD
ENDBRANCH  24  27
ENDBRANCH  20  21
ENDBRANCH  19  20
ENDBRANCH   1  19
TORSDOF 9
ENDMDL
MODEL 4
REMARK VINA RESULT:    -7.515      2.375      4.413
REMARK INTER + INTRA:         -11.431
REMARK INTER:                 -11.145
REMARK INTRA:                  -0.286
REMARK UNBOUND:                 0.039
REMARK  Name = 
REMARK  12 active torsions:
REMARK  status: ('A' for Active; 'I' for Inactive)
REMARK    1  A    between atoms: C_1  and  C_2
REMARK    2  A    between atoms: C_3  and  C_4
REMARK    3  A    between atoms: C_4  and  C_5
REMARK    4  A    between atoms: C_4  and  C_16
REMARK    5  A    between atoms: C_5  and  O_6
REMARK    6  A    between atoms: O_6  and  C_7
REMARK    7  A    between atoms: C_10  and  C_11
REMARK    8  A    between atoms: C_20  and  O_21
REMARK    9  A    between atoms: O_21  and  C_22
REMARK   10  A    between atoms: N_24  and  C_25
REMARK   11  A    between atoms: C_25  and  C_26
REMARK   12  A    between atoms: C_25  and  C_27
REMARK                            x       y       z     vdW  Elec       q    Type
REMARK                         _______ _______ _______ _____ _____    ______ ____
ROOT
ATOM      1  C   UNL     1      45.267   5.923  11.342  0.00  0.00    +0.000 C 
ENDROOT
BRANCH   1   2
ATOM      2  C   UNL     1      46.158   5.656  12.553  0.00  0.00    +0.000 A 
ATOM      3  C   UNL     1      45.913   4.578  13.413  0.00  0.00    +0.000 A 
ATOM      4  C   UNL     1      46.685   4.384  14.541  0.00  0.00    +0.000 A 
ATOM      5  C   UNL     1      47.735   5.256  14.780  0.00  0.00    +0.000 A 
ATOM      6  C   UNL     1      47.968   6.274  13.869  0.00  0.00    +0.000 A 
ATOM      7  N   UNL     1      47.217   6.489  12.764  0.00  0.00    +0.000 NA
BRANCH   6   8
ATOM      8  O   UNL     1      49.033   7.129  14.134  0.00  0.00    +0.000 OA
BRANCH   8   9
ATOM      9  C   UNL     1      49.275   8.147  13.130  0.00  0.00    +0.000 C 
ATOM     10  C   UNL     1      50.742   8.355  12.714  0.00  0.00    +0.000 C 
ATOM     11  N   UNL     1      50.558   9.830  12.731  0.00  0.00    +0.000 NA
ATOM     12  C   UNL     1      49.331   9.635  13.561  0.00  0.00    +0.000 C 
BRANCH  11  13
ATOM     13  C   UNL     1      50.239  10.324  11.375  0.00  0.00    +0.000 C 
ATOM     14  C   UNL     1      49.735  11.773  11.428  0.00  0.00    +0.000 C 
ATOM     15  C   UNL     1      51.497  10.301  10.489  0.00  0.00    +0.000 C 
ENDBRANCH  11  13
ENDBRANCH   8   9
ENDBRANCH   6   8
ENDBRANCH   1   2
BRANCH   1  18
ATOM     16  C   UNL     1      44.188  10.089  11.365  0.00  0.00    +0.000 C 
ATOM     17  C   UNL     1      44.494   8.601  11.329  0.00  0.00    +0.000 C 
ATOM     18  C   UNL     1      44.757   7.324  11.298  0.00  0.00    +0.000 C 
ENDBRANCH   1  18
BRANCH   1  19
ATOM     19  C   UNL     1      44.077   4.922  11.238  0.00  0.00    +0.000 C 
BRANCH  19  20
ATOM     20  O   UNL     1      43.741   4.674   9.859  0.00  0.00    +0.000 OA
BRANCH  20  21
ATOM     21  C   UNL     1      44.697   3.962   9.168  0.00  0.00    +0.000 A 
ATOM     22  C   UNL     1      44.743   2.601   9.415  0.00  0.00    +0.000 A 
ATOM     23  C   UNL     1      45.619   1.826   8.656  0.00  0.00    +0.000 A 
ATOM     24  C   UNL     1      46.423   2.436   7.681  0.00  0.00    +0.000 A 
ATOM     25  C   UNL     1      46.297   3.803   7.526  0.00  0.00    +0.000 A 
ATOM     26  N   UNL     1      45.466   4.589   8.255  0.00  0.00    +0.000 NA
BRANCH  24  27
ATOM     27  C   UNL     1      47.342   1.579   6.873  0.00  0.00    +0.000 C 
ATOM     28  N   UNL     1      48.466   2.127   6.348  0.00  0.00    +0.000 N 
ATOM     29  O   UNL     1      47.086   0.402   6.700  0.00  0.00    +0.000 OA
ATOM     30  H   UNL     1      48.778   3.085   6.446  0.00  0.00    +0.000 HD
ATOM     31  H   UNL     1      49.056   1.504   5.820  0.00  0.00    +0.000 HD
ENDBRANCH  24  27
ENDBRANCH  20  21
ENDBRANCH  19  20
ENDBRANCH   1  19
TORSDOF 9
ENDMDL
MODEL 5
REMARK VINA RESULT:    -7.446      3.311      7.264
REMARK INTER + INTRA:         -11.324
REMARK INTER:                 -11.080
REMARK INTRA:                  -0.244
REMARK UNBOUND:                 0.039
REMARK  Name = 
REMARK  12 active torsions:
REMARK  status: ('A' for Active; 'I' for Inactive)
REMARK    1  A    between atoms: C_1  and  C_2
REMARK    2  A    between atoms: C_3  and  C_4
REMARK    3  A    between atoms: C_4  and  C_5
REMARK    4  A    between atoms: C_4  and  C_16
REMARK    5  A    between atoms: C_5  and  O_6
REMARK    6  A    between atoms: O_6  and  C_7
REMARK    7  A    between atoms: C_10  and  C_11
REMARK    8  A    between atoms: C_20  and  O_21
REMARK    9  A    between atoms: O_21  and  C_22
REMARK   10  A    between atoms: N_24  and  C_25
REMARK   11  A    between atoms: C_25  and  C_26
REMARK   12  A    between atoms: C_25  and  C_27
REMARK                            x       y       z     vdW  Elec       q    Type
REMARK                         _______ _______ _______ _____ _____    ______ ____
ROOT
ATOM      1  C   UNL     1      44.402   6.357  11.829  0.00  0.00    +0.000 C 
ENDROOT
BRANCH   1   2
ATOM      2  C   UNL     1      44.818   7.824  11.756  0.00  0.00    +0.000 A 
ATOM      3  C   UNL     1      46.100   8.236  12.139  0.00  0.00    +0.000 A 
ATOM      4  C   UNL     1      46.446   9.573  12.132  0.00  0.00    +0.000 A 
ATOM      5  C   UNL     1      45.507  10.494  11.696  0.00  0.00    +0.000 A 
ATOM      6  C   UNL     1      44.270  10.028  11.276  0.00  0.00    +0.000 A 
ATOM      7  N   UNL     1      43.909   8.724  11.286  0.00  0.00    +0.000 NA
BRANCH   6   8
ATOM      8  O   UNL     1      43.352  10.977  10.838  0.00  0.00    +0.000 OA
BRANCH   8   9
ATOM      9  C   UNL     1      42.018  10.849  11.392  0.00  0.00    +0.000 C 
ATOM     10  C   UNL     1      40.871  10.714  10.374  0.00  0.00    +0.000 C 
ATOM     11  N   UNL     1      40.032  11.649  11.168  0.00  0.00    +0.000 NA
ATOM     12  C   UNL     1      41.268  12.123  11.860  0.00  0.00    +0.000 C 
BRANCH  11  13
ATOM     13  C   UNL     1      39.141  10.896  12.076  0.00  0.00    +0.000 C 
ATOM     14  C   UNL     1      38.277  11.853  12.910  0.00  0.00    +0.000 C 
ATOM     15  C   UNL     1      38.190   9.997  11.266  0.00  0.00    +0.000 C 
ENDBRANCH  11  13
ENDBRANCH   8   9
ENDBRANCH   6   8
ENDBRANCH   1   2
BRANCH   1  18
ATOM     16  C   UNL     1      47.007   3.595  13.857  0.00  0.00    +0.000 C 
ATOM     17  C   UNL     1      46.150   4.622  13.135  0.00  0.00    +0.000 C 
ATOM     18  C   UNL     1      45.415   5.503  12.516  0.00  0.00    +0.000 C 
ENDBRANCH   1  18
BRANCH   1  19
ATOM     19  C   UNL     1      44.063   5.757  10.431  0.00  0.00    +0.000 C 
BRANCH  19  20
ATOM     20  O   UNL     1      43.970   4.321  10.504  0.00  0.00    +0.000 OA
BRANCH  20  21
ATOM     21  C   UNL     1      44.721   3.661   9.556  0.00  0.00    +0.000 A 
ATOM     22  C   UNL     1      45.438   4.456   8.680  0.00  0.00    +0.000 A 
ATOM     23  C   UNL     1      46.297   3.830   7.777  0.00  0.00    +0.000 A 
ATOM     24  C   UNL     1      46.406   2.431   7.776  0.00  0.00    +0.000 A 
ATOM     25  C   UNL     1      45.638   1.738   8.691  0.00  0.00    +0.000 A 
ATOM     26  N   UNL     1      44.783   2.313   9.574  0.00  0.00    +0.000 NA
BRANCH  24  27
ATOM     27  C   UNL     1      47.344   1.788   6.807  0.00  0.00    +0.000 C 
ATOM     28  N   UNL     1      48.413   2.489   6.357  0.00  0.00    +0.000 N 
ATOM     29  O   UNL     1      47.151   0.644   6.438  0.00  0.00    +0.000 OA
ATOM     30  H   UNL     1      48.672   3.434   6.612  0.00  0.00    +0.000 HD
ATOM     31  H   UNL     1      49.020   2.005   5.713  0.00  0.00    +0.000 HD
ENDBRANCH  24  27
ENDBRANCH  20  21
ENDBRANCH  19  20
ENDBRANCH   1  19
TORSDOF 9
ENDMDL
MODEL 6
REMARK VINA RESULT:    -7.164      2.945      4.944
REMARK INTER + INTRA:         -10.895
REMARK INTER:                 -10.797
REMARK INTRA:                  -0.098
REMARK UNBOUND:                 0.039
REMARK  Name = 
REMARK  12 active torsions:
REMARK  status: ('A' for Active; 'I' for Inactive)
REMARK    1  A    between atoms: C_1  and  C_2
REMARK    2  A    between atoms: C_3  and  C_4
REMARK    3  A    between atoms: C_4  and  C_5
REMARK    4  A    between atoms: C_4  and  C_16
REMARK    5  A    between atoms: C_5  and  O_6
REMARK    6  A    between atoms: O_6  and  C_7
REMARK    7  A    between atoms: C_10  and  C_11
REMARK    8  A    between atoms: C_20  and  O_21
REMARK    9  A    between atoms: O_21  and  C_22
REMARK   10  A    between atoms: N_24  and  C_25
REMARK   11  A    between atoms: C_25  and  C_26
REMARK   12  A    between atoms: C_25  and  C_27
REMARK                            x       y       z     vdW  Elec       q    Type
REMARK                         _______ _______ _______ _____ _____    ______ ____
ROOT
ATOM      1  C   UNL     1      44.152   5.801  12.080  0.00  0.00    +0.000 C 
ENDROOT
BRANCH   1   2
ATOM      2  C   UNL     1      44.637   7.246  11.996  0.00  0.00    +0.000 A 
ATOM      3  C   UNL     1      43.966   8.194  11.213  0.00  0.00    +0.000 A 
ATOM      4  C   UNL     1      44.449   9.481  11.092  0.00  0.00    +0.000 A 
ATOM      5  C   UNL     1      45.591   9.826  11.796  0.00  0.00    +0.000 A 
ATOM      6  C   UNL     1      46.187   8.866  12.599  0.00  0.00    +0.000 A 
ATOM      7  N   UNL     1      45.736   7.596  12.723  0.00  0.00    +0.000 NA
BRANCH   6   8
ATOM      8  O   UNL     1      47.329   9.245  13.298  0.00  0.00    +0.000 OA
BRANCH   8   9
ATOM      9  C   UNL     1      48.568   9.164  12.549  0.00  0.00    +0.000 C 
ATOM     10  C   UNL     1      48.840   7.830  11.830  0.00  0.00    +0.000 C 
ATOM     11  N   UNL     1      50.263   7.868  12.258  0.00  0.00    +0.000 NA
ATOM     12  C   UNL     1      49.889   8.867  13.304  0.00  0.00    +0.000 C 
BRANCH  11  13
ATOM     13  C   UNL     1      51.103   8.463  11.197  0.00  0.00    +0.000 C 
ATOM     14  C   UNL     1      52.276   9.245  11.805  0.00  0.00    +0.000 C 
ATOM     15  C   UNL     1      51.695   7.359  10.302  0.00  0.00    +0.000 C 
ENDBRANCH  11  13
ENDBRANCH   8   9
ENDBRANCH   6   8
ENDBRANCH   1   2
BRANCH   1  18
ATOM     16  C   UNL     1      47.149   3.507  14.151  0.00  0.00    +0.000 C 
ATOM     17  C   UNL     1      46.076   4.252  13.373  0.00  0.00    +0.000 C 
ATOM     18  C   UNL     1      45.156   4.891  12.705  0.00  0.00    +0.000 C 
ENDBRANCH   1  18
BRANCH   1  19
ATOM     19  C   UNL     1      43.709   5.233  10.698  0.00  0.00    +0.000 C 
BRANCH  19  20
ATOM     20  O   UNL     1      43.918   3.808  10.646  0.00  0.00    +0.000 OA
BRANCH  20  21
ATOM     21  C   UNL     1      44.689   3.392   9.582  0.00  0.00    +0.000 A 
ATOM     22  C   UNL     1      45.240   4.391   8.799  0.00  0.00    +0.000 A 
ATOM     23  C   UNL     1      46.117   4.018   7.780  0.00  0.00    +0.000 A 
ATOM     24  C   UNL     1      46.408   2.661   7.575  0.00  0.00    +0.000 A 
ATOM     25  C   UNL     1      45.795   1.750   8.414  0.00  0.00    +0.000 A 
ATOM     26  N   UNL     1      44.928   2.077   9.405  0.00  0.00    +0.000 NA
BRANCH  24  27
ATOM     27  C   UNL     1      47.361   2.291   6.485  0.00  0.00    +0.000 C 
ATOM     28  N   UNL     1      47.431   3.068   5.376  0.00  0.00    +0.000 N 
ATOM     29  O   UNL     1      48.069   1.308   6.601  0.00  0.00    +0.000 OA
ATOM     30  H   UNL     1      46.901   3.910   5.189  0.00  0.00    +0.000 HD
ATOM     31  H   UNL     1      48.097   2.779   4.676  0.00  0.00    +0.000 HD
ENDBRANCH  24  27
ENDBRANCH  20  21
ENDBRANCH  19  20
ENDBRANCH   1  19
TORSDOF 9
ENDMDL
MODEL 7
REMARK VINA RESULT:    -6.911      1.826      8.228
REMARK INTER + INTRA:         -10.509
REMARK INTER:                 -10.241
REMARK INTRA:                  -0.268
REMARK UNBOUND:                 0.039
REMARK  Name = 
REMARK  12 active torsions:
REMARK  status: ('A' for Active; 'I' for Inactive)
REMARK    1  A    between atoms: C_1  and  C_2
REMARK    2  A    between atoms: C_3  and  C_4
REMARK    3  A    between atoms: C_4  and  C_5
REMARK    4  A    between atoms: C_4  and  C_16
REMARK    5  A    between atoms: C_5  and  O_6
REMARK    6  A    between atoms: O_6  and  C_7
REMARK    7  A    between atoms: C_10  and  C_11
REMARK    8  A    between atoms: C_20  and  O_21
REMARK    9  A    between atoms: O_21  and  C_22
REMARK   10  A    between atoms: N_24  and  C_25
REMARK   11  A    between atoms: C_25  and  C_26
REMARK   12  A    between atoms: C_25  and  C_27
REMARK                            x       y       z     vdW  Elec       q    Type
REMARK                         _______ _______ _______ _____ _____    ______ ____
ROOT
ATOM      1  C   UNL     1      45.683   7.295  12.910  0.00  0.00    +0.000 C 
ENDROOT
BRANCH   1   2
ATOM      2  C   UNL     1      44.789   6.179  12.374  0.00  0.00    +0.000 A 
ATOM      3  C   UNL     1      43.962   5.437  13.226  0.00  0.00    +0.000 A 
ATOM      4  C   UNL     1      43.207   4.388  12.742  0.00  0.00    +0.000 A 
ATOM      5  C   UNL     1      43.253   4.114  11.384  0.00  0.00    +0.000 A 
ATOM      6  C   UNL     1      44.046   4.913  10.576  0.00  0.00    +0.000 A 
ATOM      7  N   UNL     1      44.802   5.939  11.032  0.00  0.00    +0.000 NA
BRANCH   6   8
ATOM      8  O   UNL     1      44.067   4.616   9.216  0.00  0.00    +0.000 OA
BRANCH   8   9
ATOM      9  C   UNL     1      45.123   3.717   8.796  0.00  0.00    +0.000 C 
ATOM     10  C   UNL     1      46.001   4.202   7.627  0.00  0.00    +0.000 C 
ATOM     11  N   UNL     1      45.967   2.848   7.015  0.00  0.00    +0.000 NA
ATOM     12  C   UNL     1      44.777   2.530   7.861  0.00  0.00    +0.000 C 
BRANCH  11  13
ATOM     13  C   UNL     1      47.159   2.072   7.418  0.00  0.00    +0.000 C 
ATOM     14  C   UNL     1      46.810   0.586   7.585  0.00  0.00    +0.000 C 
ATOM     15  C   UNL     1      48.253   2.175   6.341  0.00  0.00    +0.000 C 
ENDBRANCH  11  13
ENDBRANCH   8   9
ENDBRANCH   6   8
ENDBRANCH   1   2
BRANCH   1  18
ATOM     16  C   UNL     1      44.964  11.283  11.460  0.00  0.00    +0.000 C 
ATOM     17  C   UNL     1      45.201   9.847  11.897  0.00  0.00    +0.000 C 
ATOM     18  C   UNL     1      45.405   8.615  12.273  0.00  0.00    +0.000 C 
ENDBRANCH   1  18
BRANCH   1  19
ATOM     19  C   UNL     1      47.201   6.959  12.794  0.00  0.00    +0.000 C 
BRANCH  19  20
ATOM     20  O   UNL     1      47.431   5.559  13.047  0.00  0.00    +0.000 OA
BRANCH  20  21
ATOM     21  C   UNL     1      47.703   5.264  14.365  0.00  0.00    +0.000 A 
ATOM     22  C   UNL     1      48.420   6.215  15.069  0.00  0.00    +0.000 A 
ATOM     23  C   UNL     1      48.621   6.008  16.433  0.00  0.00    +0.000 A 
ATOM     24  C   UNL     1      48.107   4.856  17.046  0.00  0.00    +0.000 A 
ATOM     25  C   UNL     1      47.413   3.972  16.243  0.00  0.00    +0.000 A 
ATOM     26  N   UNL     1      47.209   4.135  14.912  0.00  0.00    +0.000 NA
BRANCH  24  27
ATOM     27  C   UNL     1      48.326   4.666  18.512  0.00  0.00    +0.000 C 
ATOM     28  N   UNL     1      47.966   3.493  19.088  0.00  0.00    +0.000 N 
ATOM     29  O   UNL     1      48.832   5.553  19.174  0.00  0.00    +0.000 OA
ATOM     30  H   UNL     1      47.555   2.690  18.627  0.00  0.00    +0.000 HD
ATOM     31  H   UNL     1      48.144   3.412  20.077  0.00  0.00    +0.000 HD
ENDBRANCH  24  27
ENDBRANCH  20  21
ENDBRANCH  19  20
ENDBRANCH   1  19
TORSDOF 9
ENDMDL
MODEL 8
REMARK VINA RESULT:    -6.878      3.305      8.225
REMARK INTER + INTRA:         -10.458
REMARK INTER:                 -10.546
REMARK INTRA:                   0.088
REMARK UNBOUND:                 0.039
REMARK  Name = 
REMARK  12 active torsions:
REMARK  status: ('A' for Active; 'I' for Inactive)
REMARK    1  A    between atoms: C_1  and  C_2
REMARK    2  A    between atoms: C_3  and  C_4
REMARK    3  A    between atoms: C_4  and  C_5
REMARK    4  A    between atoms: C_4  and  C_16
REMARK    5  A    between atoms: C_5  and  O_6
REMARK    6  A    between atoms: O_6  and  C_7
REMARK    7  A    between atoms: C_10  and  C_11
REMARK    8  A    between atoms: C_20  and  O_21
REMARK    9  A    between atoms: O_21  and  C_22
REMARK   10  A    between atoms: N_24  and  C_25
REMARK   11  A    between atoms: C_25  and  C_26
REMARK   12  A    between atoms: C_25  and  C_27
REMARK                            x       y       z     vdW  Elec       q    Type
REMARK                         _______ _______ _______ _____ _____    ______ ____
ROOT
ATOM      1  C   UNL     1      46.971   8.067  11.865  0.00  0.00    +0.000 C 
ENDROOT
BRANCH   1   2
ATOM      2  C   UNL     1      46.515   6.672  12.287  0.00  0.00    +0.000 A 
ATOM      3  C   UNL     1      46.803   6.167  13.560  0.00  0.00    +0.000 A 
ATOM      4  C   UNL     1      46.443   4.880  13.910  0.00  0.00    +0.000 A 
ATOM      5  C   UNL     1      45.751   4.115  12.984  0.00  0.00    +0.000 A 
ATOM      6  C   UNL     1      45.443   4.682  11.757  0.00  0.00    +0.000 A 
ATOM      7  N   UNL     1      45.797   5.936  11.391  0.00  0.00    +0.000 NA
BRANCH   6   8
ATOM      8  O   UNL     1      44.743   3.890  10.852  0.00  0.00    +0.000 OA
BRANCH   8   9
ATOM      9  C   UNL     1      45.534   3.344   9.766  0.00  0.00    +0.000 C 
ATOM     10  C   UNL     1      45.363   4.022   8.395  0.00  0.00    +0.000 C 
ATOM     11  N   UNL     1      45.343   2.698   7.722  0.00  0.00    +0.000 NA
ATOM     12  C   UNL     1      45.041   2.066   9.041  0.00  0.00    +0.000 C 
BRANCH  11  13
ATOM     13  C   UNL     1      46.695   2.348   7.235  0.00  0.00    +0.000 C 
ATOM     14  C   UNL     1      46.944   0.838   7.356  0.00  0.00    +0.000 C 
ATOM     15  C   UNL     1      46.843   2.727   5.751  0.00  0.00    +0.000 C 
ENDBRANCH  11  13
ENDBRANCH   8   9
ENDBRANCH   6   8
ENDBRANCH   1   2
BRANCH   1  18
ATOM     16  C   UNL     1      51.260   8.097  11.501  0.00  0.00    +0.000 C 
ATOM     17  C   UNL     1      49.751   8.153  11.676  0.00  0.00    +0.000 C 
ATOM     18  C   UNL     1      48.457   8.201  11.826  0.00  0.00    +0.000 C 
ENDBRANCH   1  18
BRANCH   1  19
ATOM     19  C   UNL     1      46.360   9.194  12.751  0.00  0.00    +0.000 C 
BRANCH  19  20
ATOM     20  O   UNL     1      46.109  10.376  11.966  0.00  0.00    +0.000 OA
BRANCH  20  21
ATOM     21  C   UNL     1      44.802  10.508  11.551  0.00  0.00    +0.000 A 
ATOM     22  C   UNL     1      44.234   9.396  10.955  0.00  0.00    +0.000 A 
ATOM     23  C   UNL     1      42.881   9.449  10.621  0.00  0.00    +0.000 A 
ATOM     24  C   UNL     1      42.143  10.613  10.887  0.00  0.00    +0.000 A 
ATOM     25  C   UNL     1      42.816  11.664  11.480  0.00  0.00    +0.000 A 
ATOM     26  N   UNL     1      44.133  11.651  11.806  0.00  0.00    +0.000 NA
BRANCH  24  27
ATOM     27  C   UNL     1      40.693  10.637  10.531  0.00  0.00    +0.000 C 
ATOM     28  N   UNL     1      39.843   9.787  11.160  0.00  0.00    +0.000 N 
ATOM     29  O   UNL     1      40.282  11.420   9.694  0.00  0.00    +0.000 OA
ATOM     30  H   UNL     1      40.078   9.113  11.877  0.00  0.00    +0.000 HD
ATOM     31  H   UNL     1      38.874   9.852  10.890  0.00  0.00    +0.000 HD
ENDBRANCH  24  27
ENDBRANCH  20  21
ENDBRANCH  19  20
ENDBRANCH   1  19
TORSDOF 9
ENDMDL
MODEL 9
REMARK VINA RESULT:    -6.672      2.152      9.082
REMARK INTER + INTRA:         -10.144
REMARK INTER:                 -10.043
REMARK INTRA:                  -0.101
REMARK UNBOUND:                 0.039
REMARK  Name = 
REMARK  12 active torsions:
REMARK  status: ('A' for Active; 'I' for Inactive)
REMARK    1  A    between atoms: C_1  and  C_2
REMARK    2  A    between atoms: C_3  and  C_4
REMARK    3  A    between atoms: C_4  and  C_5
REMARK    4  A    between atoms: C_4  and  C_16
REMARK    5  A    between atoms: C_5  and  O_6
REMARK    6  A    between atoms: O_6  and  C_7
REMARK    7  A    between atoms: C_10  and  C_11
REMARK    8  A    between atoms: C_20  and  O_21
REMARK    9  A    between atoms: O_21  and  C_22
REMARK   10  A    between atoms: N_24  and  C_25
REMARK   11  A    between atoms: C_25  and  C_26
REMARK   12  A    between atoms: C_25  and  C_27
REMARK                            x       y       z     vdW  Elec       q    Type
REMARK                         _______ _______ _______ _____ _____    ______ ____
ROOT
ATOM      1  C   UNL     1      47.734   7.298  13.157  0.00  0.00    +0.000 C 
ENDROOT
BRANCH   1   2
ATOM      2  C   UNL     1      46.419   7.094  12.407  0.00  0.00    +0.000 A 
ATOM      3  C   UNL     1      45.601   8.177  12.065  0.00  0.00    +0.000 A 
ATOM      4  C   UNL     1      44.384   7.977  11.445  0.00  0.00    +0.000 A 
ATOM      5  C   UNL     1      44.010   6.681  11.131  0.00  0.00    +0.000 A 
ATOM      6  C   UNL     1      44.880   5.648  11.442  0.00  0.00    +0.000 A 
ATOM      7  N   UNL     1      46.072   5.822  12.060  0.00  0.00    +0.000 NA
BRANCH   6   8
ATOM      8  O   UNL     1      44.478   4.358  11.109  0.00  0.00    +0.000 OA
BRANCH   8   9
ATOM      9  C   UNL     1      45.273   3.706  10.086  0.00  0.00    +0.000 C 
ATOM     10  C   UNL     1      45.113   4.249   8.655  0.00  0.00    +0.000 C 
ATOM     11  N   UNL     1      45.092   2.866   8.113  0.00  0.00    +0.000 NA
ATOM     12  C   UNL     1      44.778   2.366   9.486  0.00  0.00    +0.000 C 
BRANCH  11  13
ATOM     13  C   UNL     1      46.445   2.466   7.671  0.00  0.00    +0.000 C 
ATOM     14  C   UNL     1      46.607   0.940   7.727  0.00  0.00    +0.000 C 
ATOM     15  C   UNL     1      46.683   2.905   6.215  0.00  0.00    +0.000 C 
ENDBRANCH  11  13
ENDBRANCH   8   9
ENDBRANCH   6   8
ENDBRANCH   1   2
BRANCH   1  18
ATOM     16  C   UNL     1      51.358   7.719  10.874  0.00  0.00    +0.000 C 
ATOM     17  C   UNL     1      50.037   7.574  11.610  0.00  0.00    +0.000 C 
ATOM     18  C   UNL     1      48.903   7.449  12.242  0.00  0.00    +0.000 C 
ENDBRANCH   1  18
BRANCH   1  19
ATOM     19  C   UNL     1      48.016   6.171  14.196  0.00  0.00    +0.000 C 
BRANCH  19  20
ATOM     20  O   UNL     1      49.176   6.490  14.987  0.00  0.00    +0.000 OA
BRANCH  20  21
ATOM     21  C   UNL     1      49.053   6.167  16.321  0.00  0.00    +0.000 A 
ATOM     22  C   UNL     1      48.835   7.224  17.188  0.00  0.00    +0.000 A 
ATOM     23  C   UNL     1      48.593   6.932  18.530  0.00  0.00    +0.000 A 
ATOM     24  C   UNL     1      48.584   5.597  18.962  0.00  0.00    +0.000 A 
ATOM     25  C   UNL     1      48.821   4.625  18.009  0.00  0.00    +0.000 A 
ATOM     26  N   UNL     1      49.072   4.873  16.699  0.00  0.00    +0.000 NA
BRANCH  24  27
ATOM     27  C   UNL     1      48.310   5.313  20.403  0.00  0.00    +0.000 C 
ATOM     28  N   UNL     1      47.051   5.474  20.880  0.00  0.00    +0.000 N 
ATOM     29  O   UNL     1      49.207   4.932  21.132  0.00  0.00    +0.000 OA
ATOM     30  H   UNL     1      46.236   5.769  20.358  0.00  0.00    +0.000 HD
ATOM     31  H   UNL     1      46.918   5.259  21.856  0.00  0.00    +0.000 HD
ENDBRANCH  24  27
ENDBRANCH  20  21
ENDBRANCH  19  20
ENDBRANCH   1  19
TORSDOF 9
ENDMDL
