MODEL 1
REMARK VINA RESULT:    -8.516      0.000      0.000
REMARK INTER + INTRA:         -13.380
REMARK INTER:                 -12.249
REMARK INTRA:                  -1.131
REMARK UNBOUND:                -1.131
REMARK  Name = 
REMARK  9 active torsions:
REMARK  status: ('A' for Active; 'I' for Inactive)
REMARK    1  A    between atoms: C_1  and  C_2
REMARK    2  A    between atoms: C_2  and  O_3
REMARK    3  A    between atoms: C_2  and  C_4
REMARK    4  A    between atoms: C_2  and  C_15
REMARK    5  A    between atoms: C_4  and  O_5
REMARK    6  A    between atoms: O_5  and  C_6
REMARK    7  A    between atoms: C_9  and  C_10
REMARK    8  A    between atoms: C_19  and  O_20
REMARK    9  A    between atoms: O_20  and  C_21
REMARK                            x       y       z     vdW  Elec       q    Type
REMARK                         _______ _______ _______ _____ _____    ______ ____
ROOT
ATOM      1  C   UNL     1      42.773   5.382  11.777  0.00  0.00    +0.000 C 
ATOM      2  C   UNL     1      43.776   4.445  12.468  0.00  0.00    +0.000 C 
ENDROOT
BRANCH   2   3
ATOM      3  C   UNL     1      45.180   5.034  12.611  0.00  0.00    +0.000 A 
ATOM      4  C   UNL     1      45.652   5.998  11.704  0.00  0.00    +0.000 A 
ATOM      5  C   UNL     1      46.885   6.627  11.900  0.00  0.00    +0.000 A 
ATOM      6  C   UNL     1      47.674   6.306  13.004  0.00  0.00    +0.000 A 
ATOM      7  C   UNL     1      47.229   5.345  13.905  0.00  0.00    +0.000 A 
ATOM      8  C   UNL     1      45.993   4.721  13.711  0.00  0.00    +0.000 A 
BRANCH   7   9
ATOM      9  O   UNL     1      47.884   4.963  15.048  0.00  0.00    +0.000 OA
BRANCH   9  10
ATOM     10  C   UNL     1      47.195   4.142  16.014  0.00  0.00    +0.000 C 
ATOM     11  C   UNL     1      47.234   4.565  17.488  0.00  0.00    +0.000 C 
ATOM     12  O   UNL     1      47.749   3.273  17.893  0.00  0.00    +0.000 OA
ATOM     13  C   UNL     1      47.995   2.928  16.510  0.00  0.00    +0.000 C 
ENDBRANCH   9  10
ENDBRANCH   7   9
ENDBRANCH   2   3
BRANCH   2  14
ATOM     14  O   UNL     1      43.242   4.182  13.776  0.00  0.00    +0.000 OA
ATOM     15  H   UNL     1      42.364   4.604  13.801  0.00  0.00    +0.000 HD
ENDBRANCH   2  14
BRANCH   2  16
ATOM     16  C   UNL     1      43.903   3.101  11.707  0.00  0.00    +0.000 C 
BRANCH  16  17
ATOM     17  O   UNL     1      43.475   3.262  10.346  0.00  0.00    +0.000 OA
BRANCH  17  18
ATOM     18  C   UNL     1      44.451   3.148   9.396  0.00  0.00    +0.000 A 
ATOM     19  C   UNL     1      44.982   4.185   8.630  0.00  0.00    +0.000 A 
ATOM     20  C   UNL     1      45.989   3.913   7.705  0.00  0.00    +0.000 A 
ATOM     21  C   UNL     1      46.434   2.605   7.576  0.00  0.00    +0.000 A 
ATOM     22  N   UNL     1      45.936   1.562   8.295  0.00  0.00    +0.000 NA
ATOM     23  C   UNL     1      44.957   1.867   9.182  0.00  0.00    +0.000 A 
BRANCH  21  24
ATOM     24  C   UNL     1      47.534   2.292   6.609  0.00  0.00    +0.000 C 
ATOM     25  N   UNL     1      47.482   2.971   5.423  0.00  0.00    +0.000 N 
ATOM     26  O   UNL     1      48.419   1.481   6.853  0.00  0.00    +0.000 OA
ATOM     27  H   UNL     1      46.724   3.621   5.252  0.00  0.00    +0.000 HD
ATOM     28  H   UNL     1      48.177   2.791   4.714  0.00  0.00    +0.000 HD
ENDBRANCH  21  24
ENDBRANCH  17  18
ENDBRANCH  16  17
ENDBRANCH   2  16
TORSDOF 8
ENDMDL
MODEL 2
REMARK VINA RESULT:    -6.714      2.934      7.547
REMARK INTER + INTRA:         -10.789
REMARK INTER:                 -10.320
REMARK INTRA:                  -0.469
REMARK UNBOUND:                -1.131
REMARK  Name = 
REMARK  9 active torsions:
REMARK  status: ('A' for Active; 'I' for Inactive)
REMARK    1  A    between atoms: C_1  and  C_2
REMARK    2  A    between atoms: C_2  and  O_3
REMARK    3  A    between atoms: C_2  and  C_4
REMARK    4  A    between atoms: C_2  and  C_15
REMARK    5  A    between atoms: C_4  and  O_5
REMARK    6  A    between atoms: O_5  and  C_6
REMARK    7  A    between atoms: C_9  and  C_10
REMARK    8  A    between atoms: C_19  and  O_20
REMARK    9  A    between atoms: O_20  and  C_21
REMARK                            x       y       z     vdW  Elec       q    Type
REMARK                         _______ _______ _______ _____ _____    ______ ____
ROOT
ATOM      1  C   UNL     1      43.214   5.413  12.773  0.00  0.00    +0.000 C 
ATOM      2  C   UNL     1      43.992   5.700  11.480  0.00  0.00    +0.000 C 
ENDROOT
BRANCH   2   3
ATOM      3  C   UNL     1      44.326   4.449  10.666  0.00  0.00    +0.000 A 
ATOM      4  C   UNL     1      43.814   3.193  11.033  0.00  0.00    +0.000 A 
ATOM      5  C   UNL     1      44.018   2.069  10.226  0.00  0.00    +0.000 A 
ATOM      6  C   UNL     1      44.737   2.176   9.036  0.00  0.00    +0.000 A 
ATOM      7  C   UNL     1      45.262   3.408   8.663  0.00  0.00    +0.000 A 
ATOM      8  C   UNL     1      45.053   4.532   9.468  0.00  0.00    +0.000 A 
BRANCH   7   9
ATOM      9  O   UNL     1      45.953   3.660   7.505  0.00  0.00    +0.000 OA
BRANCH   9  10
ATOM     10  C   UNL     1      46.348   2.554   6.666  0.00  0.00    +0.000 C 
ATOM     11  C   UNL     1      47.509   1.666   7.131  0.00  0.00    +0.000 C 
ATOM     12  O   UNL     1      48.225   1.873   5.889  0.00  0.00    +0.000 OA
ATOM     13  C   UNL     1      47.304   2.927   5.524  0.00  0.00    +0.000 C 
ENDBRANCH   9  10
ENDBRANCH   7   9
ENDBRANCH   2   3
BRANCH   2  14
ATOM     14  O   UNL     1      43.155   6.562  10.692  0.00  0.00    +0.000 OA
ATOM     15  H   UNL     1      43.695   6.841   9.930  0.00  0.00    +0.000 HD
ENDBRANCH   2  14
BRANCH   2  16
ATOM     16  C   UNL     1      45.321   6.438  11.778  0.00  0.00    +0.000 C 
BRANCH  16  17
ATOM     17  O   UNL     1      46.384   5.489  11.957  0.00  0.00    +0.000 OA
BRANCH  17  18
ATOM     18  C   UNL     1      46.877   5.378  13.228  0.00  0.00    +0.000 A 
ATOM     19  C   UNL     1      47.682   6.307  13.884  0.00  0.00    +0.000 A 
ATOM     20  C   UNL     1      48.096   6.059  15.192  0.00  0.00    +0.000 A 
ATOM     21  C   UNL     1      47.689   4.880  15.803  0.00  0.00    +0.000 A 
ATOM     22  N   UNL     1      46.913   3.942  15.194  0.00  0.00    +0.000 NA
ATOM     23  C   UNL     1      46.534   4.220  13.923  0.00  0.00    +0.000 A 
BRANCH  21  24
ATOM     24  C   UNL     1      48.099   4.603  17.217  0.00  0.00    +0.000 C 
ATOM     25  N   UNL     1      47.204   3.880  17.956  0.00  0.00    +0.000 N 
ATOM     26  O   UNL     1      49.158   4.998  17.687  0.00  0.00    +0.000 OA
ATOM     27  H   UNL     1      46.330   3.586  17.534  0.00  0.00    +0.000 HD
ATOM     28  H   UNL     1      47.403   3.678  18.924  0.00  0.00    +0.000 HD
ENDBRANCH  21  24
ENDBRANCH  17  18
ENDBRANCH  16  17
ENDBRANCH   2  16
TORSDOF 8
ENDMDL
MODEL 3
REMARK VINA RESULT:    -6.674      2.514      3.344
REMARK INTER + INTRA:         -10.731
REMARK INTER:                 -10.072
REMARK INTRA:                  -0.659
REMARK UNBOUND:                -1.131
REMARK  Name = 
REMARK  9 active torsions:
REMARK  status: ('A' for Active; 'I' for Inactive)
REMARK    1  A    between atoms: C_1  and  C_2
REMARK    2  A    between atoms: C_2  and  O_3
REMARK    3  A    between atoms: C_2  and  C_4
REMARK    4  A    between atoms: C_2  and  C_15
REMARK    5  A    between atoms: C_4  and  O_5
REMARK    6  A    between atoms: O_5  and  C_6
REMARK    7  A    between atoms: C_9  and  C_10
REMARK    8  A    between atoms: C_19  and  O_20
REMARK    9  A    between atoms: O_20  and  C_21
REMARK                            x       y       z     vdW  Elec       q    Type
REMARK                         _______ _______ _______ _____ _____    ______ ____
ROOT
ATOM      1  C   UNL     1      42.958   4.862  13.367  0.00  0.00    +0.000 C 
ATOM      2  C   UNL     1      44.115   4.679  12.373  0.00  0.00    +0.000 C 
ENDROOT
BRANCH   2   3
ATOM      3  C   UNL     1      44.953   5.940  12.157  0.00  0.00    +0.000 A 
ATOM      4  C   UNL     1      44.341   7.199  12.031  0.00  0.00    +0.000 A 
ATOM      5  C   UNL     1      45.106   8.366  11.954  0.00  0.00    +0.000 A 
ATOM      6  C   UNL     1      46.498   8.303  12.001  0.00  0.00    +0.000 A 
ATOM      7  C   UNL     1      47.122   7.065  12.112  0.00  0.00    +0.000 A 
ATOM      8  C   UNL     1      46.355   5.899  12.195  0.00  0.00    +0.000 A 
BRANCH   7   9
ATOM      9  O   UNL     1      48.475   6.863  12.206  0.00  0.00    +0.000 OA
BRANCH   9  10
ATOM     10  C   UNL     1      49.373   7.941  11.870  0.00  0.00    +0.000 C 
ATOM     11  C   UNL     1      50.712   7.592  11.206  0.00  0.00    +0.000 C 
ATOM     12  O   UNL     1      51.456   8.307  12.223  0.00  0.00    +0.000 OA
ATOM     13  C   UNL     1      50.260   8.421  13.029  0.00  0.00    +0.000 C 
ENDBRANCH   9  10
ENDBRANCH   7   9
ENDBRANCH   2   3
BRANCH   2  14
ATOM     14  O   UNL     1      44.953   3.648  12.918  0.00  0.00    +0.000 OA
ATOM     15  H   UNL     1      44.959   2.927  12.262  0.00  0.00    +0.000 HD
ENDBRANCH   2  14
BRANCH   2  16
ATOM     16  C   UNL     1      43.596   4.215  10.989  0.00  0.00    +0.000 C 
BRANCH  16  17
ATOM     17  O   UNL     1      44.290   4.911   9.942  0.00  0.00    +0.000 OA
BRANCH  17  18
ATOM     18  C   UNL     1      45.068   4.138   9.125  0.00  0.00    +0.000 A 
ATOM     19  C   UNL     1      45.938   4.598   8.138  0.00  0.00    +0.000 A 
ATOM     20  C   UNL     1      46.679   3.683   7.391  0.00  0.00    +0.000 A 
ATOM     21  C   UNL     1      46.523   2.330   7.658  0.00  0.00    +0.000 A 
ATOM     22  N   UNL     1      45.677   1.838   8.605  0.00  0.00    +0.000 NA
ATOM     23  C   UNL     1      44.973   2.760   9.307  0.00  0.00    +0.000 A 
BRANCH  21  24
ATOM     24  C   UNL     1      47.328   1.329   6.888  0.00  0.00    +0.000 C 
ATOM     25  N   UNL     1      48.479   1.809   6.327  0.00  0.00    +0.000 N 
ATOM     26  O   UNL     1      46.982   0.161   6.759  0.00  0.00    +0.000 OA
ATOM     27  H   UNL     1      48.721   2.786   6.442  0.00  0.00    +0.000 HD
ATOM     28  H   UNL     1      49.057   1.196   5.772  0.00  0.00    +0.000 HD
ENDBRANCH  21  24
ENDBRANCH  17  18
ENDBRANCH  16  17
ENDBRANCH   2  16
TORSDOF 8
ENDMDL
MODEL 4
REMARK VINA RESULT:    -6.482      2.828      4.602
REMARK INTER + INTRA:         -10.455
REMARK INTER:                 -10.005
REMARK INTRA:                  -0.450
REMARK UNBOUND:                -1.131
REMARK  Name = 
REMARK  9 active torsions:
REMARK  status: ('A' for Active; 'I' for Inactive)
REMARK    1  A    between atoms: C_1  and  C_2
REMARK    2  A    between atoms: C_2  and  O_3
REMARK    3  A    between atoms: C_2  and  C_4
REMARK    4  A    between atoms: C_2  and  C_15
REMARK    5  A    between atoms: C_4  and  O_5
REMARK    6  A    between atoms: O_5  and  C_6
REMARK    7  A    between atoms: C_9  and  C_10
REMARK    8  A    between atoms: C_19  and  O_20
REMARK    9  A    between atoms: O_20  and  C_21
REMARK                            x       y       z     vdW  Elec       q    Type
REMARK                         _______ _______ _______ _____ _____    ______ ____
ROOT
ATOM      1  C   UNL     1      42.863   4.977  13.373  0.00  0.00    +0.000 C 
ATOM      2  C   UNL     1      44.014   4.725  12.388  0.00  0.00    +0.000 C 
ENDROOT
BRANCH   2   3
ATOM      3  C   UNL     1      45.081   5.821  12.386  0.00  0.00    +0.000 A 
ATOM      4  C   UNL     1      46.412   5.531  12.729  0.00  0.00    +0.000 A 
ATOM      5  C   UNL     1      47.413   6.500  12.613  0.00  0.00    +0.000 A 
ATOM      6  C   UNL     1      47.106   7.780  12.151  0.00  0.00    +0.000 A 
ATOM      7  C   UNL     1      45.792   8.089  11.819  0.00  0.00    +0.000 A 
ATOM      8  C   UNL     1      44.793   7.117  11.931  0.00  0.00    +0.000 A 
BRANCH   7   9
ATOM      9  O   UNL     1      45.360   9.291  11.319  0.00  0.00    +0.000 OA
BRANCH   9  10
ATOM     10  C   UNL     1      43.952   9.485  11.067  0.00  0.00    +0.000 C 
ATOM     11  C   UNL     1      43.535  10.178   9.763  0.00  0.00    +0.000 C 
ATOM     12  O   UNL     1      42.763  11.170  10.484  0.00  0.00    +0.000 OA
ATOM     13  C   UNL     1      43.347  10.729  11.732  0.00  0.00    +0.000 C 
ENDBRANCH   9  10
ENDBRANCH   7   9
ENDBRANCH   2   3
BRANCH   2  14
ATOM     14  O   UNL     1      44.619   3.485  12.788  0.00  0.00    +0.000 OA
ATOM     15  H   UNL     1      45.573   3.579  12.612  0.00  0.00    +0.000 HD
ENDBRANCH   2  14
BRANCH   2  16
ATOM     16  C   UNL     1      43.489   4.574  10.938  0.00  0.00    +0.000 C 
BRANCH  16  17
ATOM     17  O   UNL     1      44.444   5.109  10.009  0.00  0.00    +0.000 OA
BRANCH  17  18
ATOM     18  C   UNL     1      45.128   4.192   9.261  0.00  0.00    +0.000 A 
ATOM     19  C   UNL     1      45.060   2.806   9.391  0.00  0.00    +0.000 A 
ATOM     20  C   UNL     1      45.811   1.996   8.539  0.00  0.00    +0.000 A 
ATOM     21  C   UNL     1      46.610   2.604   7.581  0.00  0.00    +0.000 A 
ATOM     22  N   UNL     1      46.713   3.952   7.427  0.00  0.00    +0.000 NA
ATOM     23  C   UNL     1      45.970   4.705   8.275  0.00  0.00    +0.000 A 
BRANCH  21  24
ATOM     24  C   UNL     1      47.404   1.755   6.637  0.00  0.00    +0.000 C 
ATOM     25  N   UNL     1      48.465   2.378   6.039  0.00  0.00    +0.000 N 
ATOM     26  O   UNL     1      47.126   0.585   6.406  0.00  0.00    +0.000 OA
ATOM     27  H   UNL     1      48.652   3.353   6.244  0.00  0.00    +0.000 HD
ATOM     28  H   UNL     1      49.029   1.873   5.372  0.00  0.00    +0.000 HD
ENDBRANCH  21  24
ENDBRANCH  17  18
ENDBRANCH  16  17
ENDBRANCH   2  16
TORSDOF 8
ENDMDL
MODEL 5
REMARK VINA RESULT:    -6.066      3.575      5.754
REMARK INTER + INTRA:          -9.857
REMARK INTER:                  -9.434
REMARK INTRA:                  -0.422
REMARK UNBOUND:                -1.131
REMARK  Name = 
REMARK  9 active torsions:
REMARK  status: ('A' for Active; 'I' for Inactive)
REMARK    1  A    between atoms: C_1  and  C_2
REMARK    2  A    between atoms: C_2  and  O_3
REMARK    3  A    between atoms: C_2  and  C_4
REMARK    4  A    between atoms: C_2  and  C_15
REMARK    5  A    between atoms: C_4  and  O_5
REMARK    6  A    between atoms: O_5  and  C_6
REMARK    7  A    between atoms: C_9  and  C_10
REMARK    8  A    between atoms: C_19  and  O_20
REMARK    9  A    between atoms: O_20  and  C_21
REMARK                            x       y       z     vdW  Elec       q    Type
REMARK                         _______ _______ _______ _____ _____    ______ ____
ROOT
ATOM      1  C   UNL     1      49.684   9.384  14.790  0.00  0.00    +0.000 C 
ATOM      2  C   UNL     1      49.052   7.984  14.799  0.00  0.00    +0.000 C 
ENDROOT
BRANCH   2   3
ATOM      3  C   UNL     1      49.786   6.975  15.682  0.00  0.00    +0.000 A 
ATOM      4  C   UNL     1      51.187   7.008  15.800  0.00  0.00    +0.000 A 
ATOM      5  C   UNL     1      51.853   6.167  16.697  0.00  0.00    +0.000 A 
ATOM      6  C   UNL     1      51.135   5.276  17.496  0.00  0.00    +0.000 A 
ATOM      7  C   UNL     1      49.750   5.221  17.383  0.00  0.00    +0.000 A 
ATOM      8  C   UNL     1      49.086   6.066  16.489  0.00  0.00    +0.000 A 
BRANCH   7   9
ATOM      9  O   UNL     1      48.923   4.422  18.131  0.00  0.00    +0.000 OA
BRANCH   9  10
ATOM     10  C   UNL     1      48.796   3.026  17.790  0.00  0.00    +0.000 C 
ATOM     11  C   UNL     1      50.004   2.316  17.166  0.00  0.00    +0.000 C 
ATOM     12  O   UNL     1      49.220   1.880  16.029  0.00  0.00    +0.000 OA
ATOM     13  C   UNL     1      48.140   2.757  16.427  0.00  0.00    +0.000 C 
ENDBRANCH   9  10
ENDBRANCH   7   9
ENDBRANCH   2   3
BRANCH   2  14
ATOM     14  O   UNL     1      47.714   8.153  15.294  0.00  0.00    +0.000 OA
ATOM     15  H   UNL     1      47.450   7.290  15.663  0.00  0.00    +0.000 HD
ENDBRANCH   2  14
BRANCH   2  16
ATOM     16  C   UNL     1      48.979   7.393  13.368  0.00  0.00    +0.000 C 
BRANCH  16  17
ATOM     17  O   UNL     1      48.442   6.062  13.410  0.00  0.00    +0.000 OA
BRANCH  17  18
ATOM     18  C   UNL     1      47.195   5.904  12.871  0.00  0.00    +0.000 A 
ATOM     19  C   UNL     1      46.738   6.451  11.674  0.00  0.00    +0.000 A 
ATOM     20  C   UNL     1      45.438   6.187  11.246  0.00  0.00    +0.000 A 
ATOM     21  C   UNL     1      44.632   5.380  12.037  0.00  0.00    +0.000 A 
ATOM     22  N   UNL     1      45.034   4.835  13.218  0.00  0.00    +0.000 NA
ATOM     23  C   UNL     1      46.304   5.117  13.600  0.00  0.00    +0.000 A 
BRANCH  21  24
ATOM     24  C   UNL     1      43.240   5.059  11.586  0.00  0.00    +0.000 C 
ATOM     25  N   UNL     1      42.343   6.088  11.676  0.00  0.00    +0.000 N 
ATOM     26  O   UNL     1      42.918   3.953  11.171  0.00  0.00    +0.000 OA
ATOM     27  H   UNL     1      42.646   6.984  12.042  0.00  0.00    +0.000 HD
ATOM     28  H   UNL     1      41.381   5.936  11.414  0.00  0.00    +0.000 HD
ENDBRANCH  21  24
ENDBRANCH  17  18
ENDBRANCH  16  17
ENDBRANCH   2  16
TORSDOF 8
ENDMDL
MODEL 6
REMARK VINA RESULT:    -6.034      3.643      7.430
REMARK INTER + INTRA:          -9.811
REMARK INTER:                  -9.466
REMARK INTRA:                  -0.344
REMARK UNBOUND:                -1.131
REMARK  Name = 
REMARK  9 active torsions:
REMARK  status: ('A' for Active; 'I' for Inactive)
REMARK    1  A    between atoms: C_1  and  C_2
REMARK    2  A    between atoms: C_2  and  O_3
REMARK    3  A    between atoms: C_2  and  C_4
REMARK    4  A    between atoms: C_2  and  C_15
REMARK    5  A    between atoms: C_4  and  O_5
REMARK    6  A    between atoms: O_5  and  C_6
REMARK    7  A    between atoms: C_9  and  C_10
REMARK    8  A    between atoms: C_19  and  O_20
REMARK    9  A    between atoms: O_20  and  C_21
REMARK                            x       y       z     vdW  Elec       q    Type
REMARK                         _______ _______ _______ _____ _____    ______ ____
ROOT
ATOM      1  C   UNL     1      43.185   5.700  12.202  0.00  0.00    +0.000 C 
ATOM      2  C   UNL     1      44.539   5.615  11.482  0.00  0.00    +0.000 C 
ENDROOT
BRANCH   2   3
ATOM      3  C   UNL     1      44.670   4.415  10.543  0.00  0.00    +0.000 A 
ATOM      4  C   UNL     1      44.091   3.177  10.871  0.00  0.00    +0.000 A 
ATOM      5  C   UNL     1      44.104   2.114   9.964  0.00  0.00    +0.000 A 
ATOM      6  C   UNL     1      44.695   2.263   8.710  0.00  0.00    +0.000 A 
ATOM      7  C   UNL     1      45.284   3.476   8.372  0.00  0.00    +0.000 A 
ATOM      8  C   UNL     1      45.266   4.540   9.278  0.00  0.00    +0.000 A 
BRANCH   7   9
ATOM      9  O   UNL     1      45.864   3.769   7.164  0.00  0.00    +0.000 OA
BRANCH   9  10
ATOM     10  C   UNL     1      47.192   3.279   6.883  0.00  0.00    +0.000 C 
ATOM     11  C   UNL     1      47.500   2.783   5.464  0.00  0.00    +0.000 C 
ATOM     12  O   UNL     1      47.958   1.502   5.961  0.00  0.00    +0.000 OA
ATOM     13  C   UNL     1      47.429   1.812   7.271  0.00  0.00    +0.000 C 
ENDBRANCH   9  10
ENDBRANCH   7   9
ENDBRANCH   2   3
BRANCH   2  14
ATOM     14  O   UNL     1      44.662   6.825  10.717  0.00  0.00    +0.000 OA
ATOM     15  H   UNL     1      45.596   7.094  10.784  0.00  0.00    +0.000 HD
ENDBRANCH   2  14
BRANCH   2  16
ATOM     16  C   UNL     1      45.710   5.550  12.495  0.00  0.00    +0.000 C 
BRANCH  16  17
ATOM     17  O   UNL     1      45.981   6.859  13.021  0.00  0.00    +0.000 OA
BRANCH  17  18
ATOM     18  C   UNL     1      47.274   7.291  12.910  0.00  0.00    +0.000 A 
ATOM     19  C   UNL     1      47.856   7.873  11.786  0.00  0.00    +0.000 A 
ATOM     20  C   UNL     1      49.190   8.277  11.830  0.00  0.00    +0.000 A 
ATOM     21  C   UNL     1      49.901   8.082  13.006  0.00  0.00    +0.000 A 
ATOM     22  N   UNL     1      49.375   7.508  14.122  0.00  0.00    +0.000 NA
ATOM     23  C   UNL     1      48.077   7.127  14.038  0.00  0.00    +0.000 A 
BRANCH  21  24
ATOM     24  C   UNL     1      51.327   8.532  13.088  0.00  0.00    +0.000 C 
ATOM     25  N   UNL     1      52.208   7.834  12.308  0.00  0.00    +0.000 N 
ATOM     26  O   UNL     1      51.689   9.456  13.805  0.00  0.00    +0.000 OA
ATOM     27  H   UNL     1      51.871   7.064  11.741  0.00  0.00    +0.000 HD
ATOM     28  H   UNL     1      53.190   8.066  12.333  0.00  0.00    +0.000 HD
ENDBRANCH  21  24
ENDBRANCH  17  18
ENDBRANCH  16  17
ENDBRANCH   2  16
TORSDOF 8
ENDMDL
MODEL 7
REMARK VINA RESULT:    -5.995      3.228      5.605
REMARK INTER + INTRA:          -9.755
REMARK INTER:                  -8.799
REMARK INTRA:                  -0.956
REMARK UNBOUND:                -1.131
REMARK  Name = 
REMARK  9 active torsions:
REMARK  status: ('A' for Active; 'I' for Inactive)
REMARK    1  A    between atoms: C_1  and  C_2
REMARK    2  A    between atoms: C_2  and  O_3
REMARK    3  A    between atoms: C_2  and  C_4
REMARK    4  A    between atoms: C_2  and  C_15
REMARK    5  A    between atoms: C_4  and  O_5
REMARK    6  A    between atoms: O_5  and  C_6
REMARK    7  A    between atoms: C_9  and  C_10
REMARK    8  A    between atoms: C_19  and  O_20
REMARK    9  A    between atoms: O_20  and  C_21
REMARK                            x       y       z     vdW  Elec       q    Type
REMARK                         _______ _______ _______ _____ _____    ______ ____
ROOT
ATOM      1  C   UNL     1      49.517   9.615  14.536  0.00  0.00    +0.000 C 
ATOM      2  C   UNL     1      48.548   8.474  14.880  0.00  0.00    +0.000 C 
ENDROOT
BRANCH   2   3
ATOM      3  C   UNL     1      48.901   7.725  16.166  0.00  0.00    +0.000 A 
ATOM      4  C   UNL     1      48.443   8.181  17.414  0.00  0.00    +0.000 A 
ATOM      5  C   UNL     1      48.662   7.436  18.576  0.00  0.00    +0.000 A 
ATOM      6  C   UNL     1      49.342   6.219  18.518  0.00  0.00    +0.000 A 
ATOM      7  C   UNL     1      49.814   5.759  17.294  0.00  0.00    +0.000 A 
ATOM      8  C   UNL     1      49.590   6.503  16.132  0.00  0.00    +0.000 A 
BRANCH   7   9
ATOM      9  O   UNL     1      50.463   4.568  17.089  0.00  0.00    +0.000 OA
BRANCH   9  10
ATOM     10  C   UNL     1      49.785   3.334  17.407  0.00  0.00    +0.000 C 
ATOM     11  C   UNL     1      50.414   2.016  16.934  0.00  0.00    +0.000 C 
ATOM     12  O   UNL     1      49.194   1.623  16.259  0.00  0.00    +0.000 OA
ATOM     13  C   UNL     1      48.657   2.955  16.437  0.00  0.00    +0.000 C 
ENDBRANCH   9  10
ENDBRANCH   7   9
ENDBRANCH   2   3
BRANCH   2  14
ATOM     14  O   UNL     1      47.254   9.080  15.032  0.00  0.00    +0.000 OA
ATOM     15  H   UNL     1      47.252   9.864  14.453  0.00  0.00    +0.000 HD
ENDBRANCH   2  14
BRANCH   2  16
ATOM     16  C   UNL     1      48.475   7.435  13.733  0.00  0.00    +0.000 C 
BRANCH  16  17
ATOM     17  O   UNL     1      47.262   7.611  12.984  0.00  0.00    +0.000 OA
BRANCH  17  18
ATOM     18  C   UNL     1      46.555   6.471  12.717  0.00  0.00    +0.000 A 
ATOM     19  C   UNL     1      46.614   5.277  13.432  0.00  0.00    +0.000 A 
ATOM     20  C   UNL     1      45.817   4.201  13.044  0.00  0.00    +0.000 A 
ATOM     21  C   UNL     1      44.983   4.356  11.945  0.00  0.00    +0.000 A 
ATOM     22  N   UNL     1      44.904   5.501  11.212  0.00  0.00    +0.000 NA
ATOM     23  C   UNL     1      45.695   6.523  11.621  0.00  0.00    +0.000 A 
BRANCH  21  24
ATOM     24  C   UNL     1      44.098   3.224  11.524  0.00  0.00    +0.000 C 
ATOM     25  N   UNL     1      43.756   2.348  12.517  0.00  0.00    +0.000 N 
ATOM     26  O   UNL     1      43.709   3.081  10.372  0.00  0.00    +0.000 OA
ATOM     27  H   UNL     1      44.113   2.491  13.455  0.00  0.00    +0.000 HD
ATOM     28  H   UNL     1      43.183   1.546  12.300  0.00  0.00    +0.000 HD
ENDBRANCH  21  24
ENDBRANCH  17  18
ENDBRANCH  16  17
ENDBRANCH   2  16
TORSDOF 8
ENDMDL
MODEL 8
REMARK VINA RESULT:    -5.931      3.918      8.542
REMARK INTER + INTRA:          -9.663
REMARK INTER:                  -9.074
REMARK INTRA:                  -0.589
REMARK UNBOUND:                -1.131
REMARK  Name = 
REMARK  9 active torsions:
REMARK  status: ('A' for Active; 'I' for Inactive)
REMARK    1  A    between atoms: C_1  and  C_2
REMARK    2  A    between atoms: C_2  and  O_3
REMARK    3  A    between atoms: C_2  and  C_4
REMARK    4  A    between atoms: C_2  and  C_15
REMARK    5  A    between atoms: C_4  and  O_5
REMARK    6  A    between atoms: O_5  and  C_6
REMARK    7  A    between atoms: C_9  and  C_10
REMARK    8  A    between atoms: C_19  and  O_20
REMARK    9  A    between atoms: O_20  and  C_21
REMARK                            x       y       z     vdW  Elec       q    Type
REMARK                         _______ _______ _______ _____ _____    ______ ____
ROOT
ATOM      1  C   UNL     1      46.337   7.761  13.274  0.00  0.00    +0.000 C 
ATOM      2  C   UNL     1      46.795   6.463  12.592  0.00  0.00    +0.000 C 
ENDROOT
BRANCH   2   3
ATOM      3  C   UNL     1      45.701   5.770  11.778  0.00  0.00    +0.000 A 
ATOM      4  C   UNL     1      44.416   5.582  12.314  0.00  0.00    +0.000 A 
ATOM      5  C   UNL     1      43.381   5.058  11.533  0.00  0.00    +0.000 A 
ATOM      6  C   UNL     1      43.607   4.711  10.202  0.00  0.00    +0.000 A 
ATOM      7  C   UNL     1      44.876   4.877   9.658  0.00  0.00    +0.000 A 
ATOM      8  C   UNL     1      45.908   5.406  10.439  0.00  0.00    +0.000 A 
BRANCH   7   9
ATOM      9  O   UNL     1      45.225   4.613   8.359  0.00  0.00    +0.000 OA
BRANCH   9  10
ATOM     10  C   UNL     1      45.182   3.252   7.880  0.00  0.00    +0.000 C 
ATOM     11  C   UNL     1      45.446   2.121   8.882  0.00  0.00    +0.000 C 
ATOM     12  O   UNL     1      46.501   1.572   8.054  0.00  0.00    +0.000 OA
ATOM     13  C   UNL     1      46.483   2.761   7.229  0.00  0.00    +0.000 C 
ENDBRANCH   9  10
ENDBRANCH   7   9
ENDBRANCH   2   3
BRANCH   2  14
ATOM     14  O   UNL     1      47.870   6.831  11.713  0.00  0.00    +0.000 OA
ATOM     15  H   UNL     1      48.316   7.589  12.132  0.00  0.00    +0.000 HD
ENDBRANCH   2  14
BRANCH   2  16
ATOM     16  C   UNL     1      47.330   5.443  13.629  0.00  0.00    +0.000 C 
BRANCH  16  17
ATOM     17  O   UNL     1      48.276   6.078  14.503  0.00  0.00    +0.000 OA
BRANCH  17  18
ATOM     18  C   UNL     1      48.195   5.731  15.823  0.00  0.00    +0.000 A 
ATOM     19  C   UNL     1      47.543   4.616  16.344  0.00  0.00    +0.000 A 
ATOM     20  C   UNL     1      47.560   4.387  17.719  0.00  0.00    +0.000 A 
ATOM     21  C   UNL     1      48.233   5.289  18.532  0.00  0.00    +0.000 A 
ATOM     22  N   UNL     1      48.872   6.397  18.066  0.00  0.00    +0.000 NA
ATOM     23  C   UNL     1      48.830   6.584  16.724  0.00  0.00    +0.000 A 
BRANCH  21  24
ATOM     24  C   UNL     1      48.288   5.051  20.010  0.00  0.00    +0.000 C 
ATOM     25  N   UNL     1      48.597   3.773  20.387  0.00  0.00    +0.000 N 
ATOM     26  O   UNL     1      48.066   5.932  20.831  0.00  0.00    +0.000 OA
ATOM     27  H   UNL     1      48.758   3.068  19.676  0.00  0.00    +0.000 HD
ATOM     28  H   UNL     1      48.627   3.535  21.367  0.00  0.00    +0.000 HD
ENDBRANCH  21  24
ENDBRANCH  17  18
ENDBRANCH  16  17
ENDBRANCH   2  16
TORSDOF 8
ENDMDL
MODEL 9
REMARK VINA RESULT:    -5.878      3.692      6.330
REMARK INTER + INTRA:          -9.587
REMARK INTER:                  -8.950
REMARK INTRA:                  -0.637
REMARK UNBOUND:                -1.131
REMARK  Name = 
REMARK  9 active torsions:
REMARK  status: ('A' for Active; 'I' for Inactive)
REMARK    1  A    between atoms: C_1  and  C_2
REMARK    2  A    between atoms: C_2  and  O_3
REMARK    3  A    between atoms: C_2  and  C_4
REMARK    4  A    between atoms: C_2  and  C_15
REMARK    5  A    between atoms: C_4  and  O_5
REMARK    6  A    between atoms: O_5  and  C_6
REMARK    7  A    between atoms: C_9  and  C_10
REMARK    8  A    between atoms: C_19  and  O_20
REMARK    9  A    between atoms: O_20  and  C_21
REMARK                            x       y       z     vdW  Elec       q    Type
REMARK                         _______ _______ _______ _____ _____    ______ ____
ROOT
ATOM      1  C   UNL     1      47.242   5.173  18.309  0.00  0.00    +0.000 C 
ATOM      2  C   UNL     1      47.610   4.147  17.227  0.00  0.00    +0.000 C 
ENDROOT
BRANCH   2   3
ATOM      3  C   UNL     1      49.000   3.535  17.397  0.00  0.00    +0.000 A 
ATOM      4  C   UNL     1      49.246   2.196  17.045  0.00  0.00    +0.000 A 
ATOM      5  C   UNL     1      50.539   1.668  17.085  0.00  0.00    +0.000 A 
ATOM      6  C   UNL     1      51.616   2.463  17.477  0.00  0.00    +0.000 A 
ATOM      7  C   UNL     1      51.390   3.786  17.842  0.00  0.00    +0.000 A 
ATOM      8  C   UNL     1      50.097   4.315  17.795  0.00  0.00    +0.000 A 
BRANCH   7   9
ATOM      9  O   UNL     1      52.358   4.685  18.209  0.00  0.00    +0.000 OA
BRANCH   9  10
ATOM     10  C   UNL     1      52.322   5.258  19.533  0.00  0.00    +0.000 C 
ATOM     11  C   UNL     1      53.394   6.289  19.910  0.00  0.00    +0.000 C 
ATOM     12  O   UNL     1      53.782   5.526  21.079  0.00  0.00    +0.000 OA
ATOM     13  C   UNL     1      52.993   4.404  20.619  0.00  0.00    +0.000 C 
ENDBRANCH   9  10
ENDBRANCH   7   9
ENDBRANCH   2   3
BRANCH   2  14
ATOM     14  O   UNL     1      46.625   3.104  17.313  0.00  0.00    +0.000 OA
ATOM     15  H   UNL     1      45.758   3.545  17.260  0.00  0.00    +0.000 HD
ENDBRANCH   2  14
BRANCH   2  16
ATOM     16  C   UNL     1      47.541   4.776  15.812  0.00  0.00    +0.000 C 
BRANCH  16  17
ATOM     17  O   UNL     1      47.373   3.749  14.823  0.00  0.00    +0.000 OA
BRANCH  17  18
ATOM     18  C   UNL     1      46.488   4.027  13.818  0.00  0.00    +0.000 A 
ATOM     19  C   UNL     1      45.940   3.110  12.924  0.00  0.00    +0.000 A 
ATOM     20  C   UNL     1      45.035   3.545  11.956  0.00  0.00    +0.000 A 
ATOM     21  C   UNL     1      44.708   4.893  11.915  0.00  0.00    +0.000 A 
ATOM     22  N   UNL     1      45.228   5.824  12.761  0.00  0.00    +0.000 NA
ATOM     23  C   UNL     1      46.105   5.361  13.686  0.00  0.00    +0.000 A 
BRANCH  21  24
ATOM     24  C   UNL     1      43.718   5.381  10.903  0.00  0.00    +0.000 C 
ATOM     25  N   UNL     1      43.109   6.568  11.203  0.00  0.00    +0.000 N 
ATOM     26  O   UNL     1      43.462   4.762   9.878  0.00  0.00    +0.000 OA
ATOM     27  H   UNL     1      43.336   7.041  12.071  0.00  0.00    +0.000 HD
ATOM     28  H   UNL     1      42.412   6.944  10.578  0.00  0.00    +0.000 HD
ENDBRANCH  21  24
ENDBRANCH  17  18
ENDBRANCH  16  17
ENDBRANCH   2  16
TORSDOF 8
ENDMDL
